CHEMBL83617
     RDKit          3D

 58 62  0  0  1  0  0  0  0  0999 V2000
    5.6856   -1.0272  -15.0119 N   0  0  0  0  0  0  0  0  0  0  0  0
    5.3253   -0.1022  -14.1230 C   0  0  0  0  0  0  0  0  0  0  0  0
    4.3062   -0.2274  -13.4473 O   0  0  0  0  0  0  0  0  0  0  0  0
    6.1911    1.1256  -14.0092 C   0  0  0  0  0  0  0  0  0  0  0  0
    5.6849    2.2793  -13.3661 C   0  0  0  0  0  0  0  0  0  0  0  0
    6.4702    3.4387  -13.2318 C   0  0  0  0  0  0  0  0  0  0  0  0
    7.7927    3.4580  -13.7182 C   0  0  0  0  0  0  0  0  0  0  0  0
    8.3052    2.3173  -14.3791 C   0  0  0  0  0  0  0  0  0  0  0  0
    7.5122    1.1576  -14.5198 C   0  0  0  0  0  0  0  0  0  0  0  0
    9.7019    2.3497  -14.9677 C   0  0  0  0  0  0  0  0  0  0  0  0
   10.5577    3.4817  -14.3869 C   0  0  0  0  0  0  0  0  0  0  0  0
    9.8094    4.6920  -14.3781 O   0  0  0  0  0  0  0  0  0  0  0  0
    8.6769    4.6862  -13.5089 C   0  0  2  0  0  0  0  0  0  0  0  0
    9.1623    4.8887  -12.0482 C   0  0  0  0  0  0  0  0  0  0  0  0
    8.0773    5.3655  -11.0445 C   0  0  0  0  0  0  0  0  0  0  0  0
    8.5961    6.1223   -9.8701 N   0  0  1  0  0  0  0  0  0  0  0  0
    9.4100    5.3289   -8.9097 C   0  0  0  0  0  0  0  0  0  0  0  0
   10.1340    6.1849   -7.8673 C   0  0  0  0  0  0  0  0  0  0  0  0
   10.1900    7.5306   -7.8760 C   0  0  0  0  0  0  0  0  0  0  0  0
   10.8810    8.3159   -6.8217 C   0  0  0  0  0  0  0  0  0  0  0  0
   11.3015    9.5949   -7.0480 C   0  0  0  0  0  0  0  0  0  0  0  0
   11.8028   10.1212   -5.8803 N   0  0  0  0  0  0  0  0  0  0  0  0
   11.8004    9.1690   -4.8852 C   0  0  0  0  0  0  0  0  0  0  0  0
   12.2006    9.2441   -3.5431 C   0  0  0  0  0  0  0  0  0  0  0  0
   12.1498    8.0961   -2.7428 C   0  0  0  0  0  0  0  0  0  0  0  0
   12.5286    8.1715   -1.4473 F   0  0  0  0  0  0  0  0  0  0  0  0
   11.7132    6.8797   -3.2964 C   0  0  0  0  0  0  0  0  0  0  0  0
   11.2856    6.8202   -4.6405 C   0  0  0  0  0  0  0  0  0  0  0  0
   11.2863    7.9666   -5.4742 C   0  0  0  0  0  0  0  0  0  0  0  0
    9.4296    8.2771   -8.9705 C   0  0  0  0  0  0  0  0  0  0  0  0
    9.2013    7.4255  -10.2253 C   0  0  0  0  0  0  0  0  0  0  0  0
    5.1123   -1.8486  -15.1294 H   0  0  0  0  0  0  0  0  0  0  0  0
    6.5399   -0.9345  -15.5425 H   0  0  0  0  0  0  0  0  0  0  0  0
    4.6770    2.2842  -12.9721 H   0  0  0  0  0  0  0  0  0  0  0  0
    6.0550    4.3023  -12.7327 H   0  0  0  0  0  0  0  0  0  0  0  0
    7.9318    0.2964  -15.0194 H   0  0  0  0  0  0  0  0  0  0  0  0
    9.6106    2.4801  -16.0449 H   0  0  0  0  0  0  0  0  0  0  0  0
   10.1951    1.3922  -14.8068 H   0  0  0  0  0  0  0  0  0  0  0  0
   11.4608    3.6161  -14.9826 H   0  0  0  0  0  0  0  0  0  0  0  0
   10.8863    3.2314  -13.3801 H   0  0  0  0  0  0  0  0  0  0  0  0
    8.0929    5.5620  -13.7974 H   0  0  0  0  0  0  0  0  0  0  0  0
    9.9585    5.6274  -12.1016 H   0  0  0  0  0  0  0  0  0  0  0  0
    9.6322    3.9798  -11.6716 H   0  0  0  0  0  0  0  0  0  0  0  0
    7.5049    4.5076  -10.6858 H   0  0  0  0  0  0  0  0  0  0  0  0
    7.3597    6.0104  -11.5537 H   0  0  0  0  0  0  0  0  0  0  0  0
   10.1604    4.7469   -9.4440 H   0  0  0  0  0  0  0  0  0  0  0  0
    8.7592    4.6180   -8.3994 H   0  0  0  0  0  0  0  0  0  0  0  0
   10.6624    5.6383   -7.1070 H   0  0  0  0  0  0  0  0  0  0  0  0
   11.2861   10.1725   -7.9549 H   0  0  0  0  0  0  0  0  0  0  0  0
   12.1584   11.0636   -5.8127 H   0  0  0  0  0  0  0  0  0  0  0  0
   12.5629   10.1674   -3.1187 H   0  0  0  0  0  0  0  0  0  0  0  0
   11.6856    5.9932   -2.6793 H   0  0  0  0  0  0  0  0  0  0  0  0
   10.9124    5.8789   -5.0107 H   0  0  0  0  0  0  0  0  0  0  0  0
    8.4868    8.6398   -8.5561 H   0  0  0  0  0  0  0  0  0  0  0  0
    9.9837    9.1541   -9.2977 H   0  0  0  0  0  0  0  0  0  0  0  0
    8.5336    7.9576  -10.9091 H   0  0  0  0  0  0  0  0  0  0  0  0
   10.1505    7.2776  -10.7411 H   0  0  0  0  0  0  0  0  0  0  0  0
    7.7585    6.4080   -9.3705 H   0  0  0  0  0  0  0  0  0  0  0  0
  2  1  1  0
  3  2  2  0
  4  2  1  0
  5  4  1  0
  6  5  2  0
  7  6  1  0
  8  7  2  0
  9  4  2  0
  9  8  1  0
 10  8  1  0
 11 10  1  0
 12 11  1  0
 13  7  1  0
 13 12  1  0
 14 13  1  0
 15 14  1  0
 16 15  1  0
 17 16  1  0
 18 17  1  0
 19 18  2  0
 20 19  1  0
 21 20  2  0
 22 21  1  0
 23 22  1  0
 24 23  2  0
 25 24  1  0
 26 25  1  0
 27 25  2  0
 28 27  1  0
 29 20  1  0
 29 23  1  0
 29 28  2  0
 30 19  1  0
 31 16  1  0
 31 30  1  0
 32  1  1  0
 33  1  1  0
 34  5  1  0
 35  6  1  0
 36  9  1  0
 37 10  1  0
 38 10  1  0
 39 11  1  0
 40 11  1  0
 13 41  1  6
 42 14  1  0
 43 14  1  0
 44 15  1  0
 45 15  1  0
 46 17  1  0
 47 17  1  0
 48 18  1  0
 49 21  1  0
 50 22  1  0
 51 24  1  0
 52 27  1  0
 53 28  1  0
 54 30  1  0
 55 30  1  0
 56 31  1  0
 57 31  1  0
 16 58  1  1
M  CHG  1  16   1
M  END
>  <b_m_subgroup_collapsed>  (1) 
0

>  <r_i_docking_score>  (1) 
-11.0235409998606

>  <s_m_subgroup_title>  (1) 
glide-dock_SP_D22_pv

>  <s_m_subgroupid>  (1) 
glide-dock_SP_D22_pv

>  <Molecule ChEMBL ID>  (1) 
CHEMBL83617

>  <Standard Type>  (1) 
Ki

>  <Standard Value>  (1) 
4.7

>  <label>  (1) 
1

$$$$
CHEMBL3102875
     RDKit          3D

 57 60  0  0  1  0  0  0  0  0999 V2000
    5.3079   -1.1482  -15.1721 C   0  0  0  0  0  0  0  0  0  0  0  0
    5.0848   -0.0249  -14.1633 C   0  0  0  0  0  0  0  0  0  0  0  0
    4.0862   -0.0748  -13.4472 O   0  0  0  0  0  0  0  0  0  0  0  0
    6.0862    1.0801  -14.1087 C   0  0  0  0  0  0  0  0  0  0  0  0
    7.3594    0.9384  -14.7033 C   0  0  0  0  0  0  0  0  0  0  0  0
    8.2894    1.9930  -14.6476 C   0  0  0  0  0  0  0  0  0  0  0  0
    7.9653    3.2067  -14.0021 C   0  0  0  0  0  0  0  0  0  0  0  0
    6.6881    3.3665  -13.4057 C   0  0  0  0  0  0  0  0  0  0  0  0
    5.7674    2.2924  -13.4469 C   0  0  0  0  0  0  0  0  0  0  0  0
    6.2926    4.6535  -12.6892 C   0  0  0  0  0  0  0  0  0  0  0  0
    7.4888    5.5289  -12.2465 C   0  0  1  0  0  0  0  0  0  0  0  0
    8.1129    5.0547  -10.9031 C   0  0  0  0  0  0  0  0  0  0  0  0
    8.4860    6.1723   -9.9811 N   0  0  1  0  0  0  0  0  0  0  0  0
    8.6366    5.7070   -8.5709 C   0  0  0  0  0  0  0  0  0  0  0  0
    9.0748    6.8288   -7.6020 C   0  0  0  0  0  0  0  0  0  0  0  0
   10.4247    7.4201   -8.0470 C   0  0  2  0  0  0  0  0  0  0  0  0
   10.9989    8.5238   -7.1229 C   0  0  0  0  0  0  0  0  0  0  0  0
   11.2858    9.6084   -7.6208 O   0  0  0  0  0  0  0  0  0  0  0  0
   11.2860    8.2733   -5.6814 C   0  0  0  0  0  0  0  0  0  0  0  0
   11.2999    6.9845   -5.1004 C   0  0  0  0  0  0  0  0  0  0  0  0
   11.6921    6.8180   -3.7563 C   0  0  0  0  0  0  0  0  0  0  0  0
   12.0856    7.9303   -2.9878 C   0  0  0  0  0  0  0  0  0  0  0  0
   12.4857    7.7722   -1.7086 F   0  0  0  0  0  0  0  0  0  0  0  0
   12.0556    9.2164   -3.5473 C   0  0  0  0  0  0  0  0  0  0  0  0
   11.6545    9.3843   -4.8827 C   0  0  0  0  0  0  0  0  0  0  0  0
   10.2065    7.9604   -9.4796 C   0  0  0  0  0  0  0  0  0  0  0  0
    9.6963    6.8928  -10.4562 C   0  0  0  0  0  0  0  0  0  0  0  0
    8.5216    5.6263  -13.3880 C   0  0  0  0  0  0  0  0  0  0  0  0
    8.9920    4.2738  -13.9149 C   0  0  0  0  0  0  0  0  0  0  0  0
   10.1675    4.1346  -14.2496 O   0  0  0  0  0  0  0  0  0  0  0  0
    5.6056   -0.7469  -16.1416 H   0  0  0  0  0  0  0  0  0  0  0  0
    6.0833   -1.8289  -14.8153 H   0  0  0  0  0  0  0  0  0  0  0  0
    4.3910   -1.7210  -15.3104 H   0  0  0  0  0  0  0  0  0  0  0  0
    7.6455    0.0226  -15.2009 H   0  0  0  0  0  0  0  0  0  0  0  0
    9.2612    1.8580  -15.0995 H   0  0  0  0  0  0  0  0  0  0  0  0
    4.7965    2.4100  -12.9858 H   0  0  0  0  0  0  0  0  0  0  0  0
    5.6415    4.4295  -11.8436 H   0  0  0  0  0  0  0  0  0  0  0  0
    5.6811    5.2251  -13.3895 H   0  0  0  0  0  0  0  0  0  0  0  0
    7.0815    6.5266  -12.0740 H   0  0  0  0  0  0  0  0  0  0  0  0
    8.9795    4.4129  -11.0750 H   0  0  0  0  0  0  0  0  0  0  0  0
    7.4044    4.4024  -10.4008 H   0  0  0  0  0  0  0  0  0  0  0  0
    7.6861    5.3027   -8.2237 H   0  0  0  0  0  0  0  0  0  0  0  0
    9.3587    4.8899   -8.5351 H   0  0  0  0  0  0  0  0  0  0  0  0
    9.1143    6.4237   -6.5934 H   0  0  0  0  0  0  0  0  0  0  0  0
    8.3191    7.6152   -7.5685 H   0  0  0  0  0  0  0  0  0  0  0  0
   11.1649    6.6204   -8.0810 H   0  0  0  0  0  0  0  0  0  0  0  0
   11.0604    6.1078   -5.6795 H   0  0  0  0  0  0  0  0  0  0  0  0
   11.7183    5.8311   -3.3171 H   0  0  0  0  0  0  0  0  0  0  0  0
   12.3491   10.0718   -2.9545 H   0  0  0  0  0  0  0  0  0  0  0  0
   11.6593   10.3836   -5.2946 H   0  0  0  0  0  0  0  0  0  0  0  0
    9.4914    8.7853   -9.4571 H   0  0  0  0  0  0  0  0  0  0  0  0
   11.1368    8.3715   -9.8764 H   0  0  0  0  0  0  0  0  0  0  0  0
    9.4701    7.3940  -11.3966 H   0  0  0  0  0  0  0  0  0  0  0  0
   10.4865    6.1708  -10.6530 H   0  0  0  0  0  0  0  0  0  0  0  0
    8.0872    6.1661  -14.2279 H   0  0  0  0  0  0  0  0  0  0  0  0
    9.4011    6.1911  -13.0871 H   0  0  0  0  0  0  0  0  0  0  0  0
    7.7101    6.8396   -9.9846 H   0  0  0  0  0  0  0  0  0  0  0  0
  2  1  1  0
  3  2  2  0
  4  2  1  0
  5  4  1  0
  6  5  2  0
  7  6  1  0
  8  7  2  0
  9  4  2  0
  9  8  1  0
 10  8  1  0
 11 10  1  0
 12 11  1  0
 13 12  1  0
 14 13  1  0
 15 14  1  0
 16 15  1  0
 17 16  1  0
 18 17  2  0
 19 17  1  0
 20 19  1  0
 21 20  2  0
 22 21  1  0
 23 22  1  0
 24 22  2  0
 25 19  2  0
 25 24  1  0
 26 16  1  0
 27 13  1  0
 27 26  1  0
 28 11  1  0
 29  7  1  0
 29 28  1  0
 30 29  2  0
 31  1  1  0
 32  1  1  0
 33  1  1  0
 34  5  1  0
 35  6  1  0
 36  9  1  0
 37 10  1  0
 38 10  1  0
 11 39  1  1
 40 12  1  0
 41 12  1  0
 42 14  1  0
 43 14  1  0
 44 15  1  0
 45 15  1  0
 16 46  1  6
 47 20  1  0
 48 21  1  0
 49 24  1  0
 50 25  1  0
 51 26  1  0
 52 26  1  0
 53 27  1  0
 54 27  1  0
 55 28  1  0
 56 28  1  0
 13 57  1  1
M  CHG  1  13   1
M  END
>  <b_m_subgroup_collapsed>  (2) 
0

>  <r_i_docking_score>  (2) 
-10.7936125741426

>  <s_m_subgroup_title>  (2) 
glide-dock_SP_D22_pv

>  <s_m_subgroupid>  (2) 
glide-dock_SP_D22_pv

>  <Molecule ChEMBL ID>  (2) 
CHEMBL3102875

>  <Standard Type>  (2) 
Ki

>  <Standard Value>  (2) 
32.36

>  <label>  (2) 
1

$$$$
CHEMBL4750660
     RDKit          3D

 64 67  0  0  1  0  0  0  0  0999 V2000
    8.4865    5.3661  -14.6452 O   0  0  0  0  0  0  0  0  0  0  0  0
    8.8448    4.0898  -13.8839 S   0  0  0  0  0  0  0  0  0  0  0  0
    9.2883    4.6402  -12.1730 C   0  0  0  0  0  0  0  0  0  0  0  0
    8.1898    5.6192  -11.7361 C   0  0  0  0  0  0  0  0  0  0  0  0
    8.0860    5.7723  -10.2744 N   0  0  0  0  0  0  0  0  0  0  0  0
    9.2500    6.3122   -9.5521 C   0  0  0  0  0  0  0  0  0  0  0  0
    9.0763    6.0663   -8.0519 C   0  0  0  0  0  0  0  0  0  0  0  0
   10.2533    6.6559   -7.2686 C   0  0  0  0  0  0  0  0  0  0  0  0
   10.3977    8.0963   -7.5122 N   0  0  0  0  0  0  0  0  0  0  0  0
   11.5809    8.6352   -6.8403 C   0  0  0  0  0  0  0  0  0  0  0  0
   11.6070    8.5739   -5.3176 C   0  0  0  0  0  0  0  0  0  0  0  0
   11.8481    7.3606   -4.6316 C   0  0  0  0  0  0  0  0  0  0  0  0
   12.0864    7.3561   -3.2465 C   0  0  0  0  0  0  0  0  0  0  0  0
   12.0861    8.5686   -2.5384 C   0  0  0  0  0  0  0  0  0  0  0  0
   12.4030    8.5788   -1.2262 F   0  0  0  0  0  0  0  0  0  0  0  0
   11.7732    9.7702   -3.1990 C   0  0  0  0  0  0  0  0  0  0  0  0
   11.5219    9.7721   -4.5832 C   0  0  0  0  0  0  0  0  0  0  0  0
   10.5853    8.3554   -8.9451 C   0  0  0  0  0  0  0  0  0  0  0  0
    9.4042    7.8249   -9.7680 C   0  0  0  0  0  0  0  0  0  0  0  0
   10.5219    3.4926  -14.4375 C   0  0  0  0  0  0  0  0  0  0  0  0
   11.2341    4.6605  -15.1180 C   0  0  0  0  0  0  0  0  0  0  0  0
   12.2603    5.3501  -14.4390 C   0  0  0  0  0  0  0  0  0  0  0  0
   12.8977    6.4484  -15.0474 C   0  0  0  0  0  0  0  0  0  0  0  0
   12.5307    6.8561  -16.3418 C   0  0  0  0  0  0  0  0  0  0  0  0
   13.1575    7.9056  -16.9231 F   0  0  0  0  0  0  0  0  0  0  0  0
   11.5099    6.1724  -17.0274 C   0  0  0  0  0  0  0  0  0  0  0  0
   10.8577    5.0862  -16.4136 C   0  0  0  0  0  0  0  0  0  0  0  0
   10.4006    2.2180  -15.2847 C   0  0  0  0  0  0  0  0  0  0  0  0
    9.3980    1.2598  -15.0045 C   0  0  0  0  0  0  0  0  0  0  0  0
    9.2867    0.0908  -15.7775 C   0  0  0  0  0  0  0  0  0  0  0  0
   10.1884   -0.1558  -16.8270 C   0  0  0  0  0  0  0  0  0  0  0  0
   10.0858   -1.2892  -17.5608 F   0  0  0  0  0  0  0  0  0  0  0  0
   11.2093    0.7715  -17.0985 C   0  0  0  0  0  0  0  0  0  0  0  0
   11.3179    1.9451  -16.3281 C   0  0  0  0  0  0  0  0  0  0  0  0
   10.2553    5.1419  -12.1849 H   0  0  0  0  0  0  0  0  0  0  0  0
    9.3619    3.7723  -11.5193 H   0  0  0  0  0  0  0  0  0  0  0  0
    7.2154    5.2592  -12.0697 H   0  0  0  0  0  0  0  0  0  0  0  0
    8.3309    6.5913  -12.2100 H   0  0  0  0  0  0  0  0  0  0  0  0
    7.8037    4.8930   -9.8643 H   0  0  0  0  0  0  0  0  0  0  0  0
   10.1529    5.7955   -9.8788 H   0  0  0  0  0  0  0  0  0  0  0  0
    9.0028    4.9971   -7.8484 H   0  0  0  0  0  0  0  0  0  0  0  0
    8.1458    6.5122   -7.6953 H   0  0  0  0  0  0  0  0  0  0  0  0
   11.1765    6.1304   -7.5183 H   0  0  0  0  0  0  0  0  0  0  0  0
   10.0454    6.4820   -6.2143 H   0  0  0  0  0  0  0  0  0  0  0  0
   11.6730    9.6868   -7.1162 H   0  0  0  0  0  0  0  0  0  0  0  0
   12.4848    8.1613   -7.2281 H   0  0  0  0  0  0  0  0  0  0  0  0
   11.9408    6.4293   -5.1697 H   0  0  0  0  0  0  0  0  0  0  0  0
   12.3149    6.4302   -2.7387 H   0  0  0  0  0  0  0  0  0  0  0  0
   11.7649   10.6972   -2.6470 H   0  0  0  0  0  0  0  0  0  0  0  0
   11.3283   10.7078   -5.0876 H   0  0  0  0  0  0  0  0  0  0  0  0
   10.6816    9.4288   -9.1145 H   0  0  0  0  0  0  0  0  0  0  0  0
   11.5115    7.8963   -9.2960 H   0  0  0  0  0  0  0  0  0  0  0  0
    9.5669    8.0519  -10.8217 H   0  0  0  0  0  0  0  0  0  0  0  0
    8.4918    8.3485   -9.4730 H   0  0  0  0  0  0  0  0  0  0  0  0
   11.0788    3.1994  -13.5472 H   0  0  0  0  0  0  0  0  0  0  0  0
   12.5634    5.0470  -13.4472 H   0  0  0  0  0  0  0  0  0  0  0  0
   13.6835    6.9741  -14.5252 H   0  0  0  0  0  0  0  0  0  0  0  0
   11.2188    6.4904  -18.0173 H   0  0  0  0  0  0  0  0  0  0  0  0
   10.0595    4.5816  -16.9384 H   0  0  0  0  0  0  0  0  0  0  0  0
    8.7026    1.3985  -14.1904 H   0  0  0  0  0  0  0  0  0  0  0  0
    8.5107   -0.6273  -15.5569 H   0  0  0  0  0  0  0  0  0  0  0  0
   11.9156    0.5782  -17.8923 H   0  0  0  0  0  0  0  0  0  0  0  0
   12.1248    2.6285  -16.5475 H   0  0  0  0  0  0  0  0  0  0  0  0
    7.3268    6.4447  -10.1234 H   0  0  0  0  0  0  0  0  0  0  0  0
  2  1  2  0
  2  3  1  1
  4  3  1  0
  5  4  1  0
  6  5  1  0
  7  6  1  0
  8  7  1  0
  9  8  1  0
 10  9  1  0
 11 10  1  0
 12 11  1  0
 13 12  2  0
 14 13  1  0
 15 14  1  0
 16 14  2  0
 17 11  2  0
 17 16  1  0
 18  9  1  0
 19  6  1  0
 19 18  1  0
 20  2  1  0
 21 20  1  0
 22 21  1  0
 23 22  2  0
 24 23  1  0
 25 24  1  0
 26 24  2  0
 27 21  2  0
 27 26  1  0
 28 20  1  0
 29 28  1  0
 30 29  2  0
 31 30  1  0
 32 31  1  0
 33 31  2  0
 34 28  2  0
 34 33  1  0
 35  3  1  0
 36  3  1  0
 37  4  1  0
 38  4  1  0
 39  5  1  0
 40  6  1  0
 41  7  1  0
 42  7  1  0
 43  8  1  0
 44  8  1  0
 45 10  1  0
 46 10  1  0
 47 12  1  0
 48 13  1  0
 49 16  1  0
 50 17  1  0
 51 18  1  0
 52 18  1  0
 53 19  1  0
 54 19  1  0
 55 20  1  0
 56 22  1  0
 57 23  1  0
 58 26  1  0
 59 27  1  0
 60 29  1  0
 61 30  1  0
 62 33  1  0
 63 34  1  0
 64  5  1  0
M  CHG  1   5   1
M  END
>  <b_m_subgroup_collapsed>  (3) 
0

>  <r_i_docking_score>  (3) 
-10.6644068114059

>  <s_m_subgroup_title>  (3) 
glide-dock_SP_D22_pv

>  <s_m_subgroupid>  (3) 
glide-dock_SP_D22_pv

>  <Molecule ChEMBL ID>  (3) 
CHEMBL4750660

>  <Standard Type>  (3) 
Ki

>  <Standard Value>  (3) 
12400.0

>  <label>  (3) 
0

$$$$
CHEMBL4751063
     RDKit          3D

 54 58  0  0  1  0  0  0  0  0999 V2000
    5.7538    4.7156  -12.7700 O   0  0  0  0  0  0  0  0  0  0  0  0
    7.1998    4.9639  -12.6583 S   0  0  0  0  0  0  0  0  0  0  0  0
    7.7893    6.2539  -13.0448 O   0  0  0  0  0  0  0  0  0  0  0  0
    7.6862    4.5759  -11.0474 N   0  0  0  0  0  0  0  0  0  0  0  0
    8.9964    4.9452  -10.4983 C   0  0  2  0  0  0  0  0  0  0  0  0
    9.1647    4.3348   -9.0884 C   0  0  0  0  0  0  0  0  0  0  0  0
    9.4178    5.5134   -8.1472 C   0  0  0  0  0  0  0  0  0  0  0  0
    8.8864    6.6907   -8.8473 N   0  0  1  0  0  0  0  0  0  0  0  0
    9.2065    8.0290   -8.2790 C   0  0  0  0  0  0  0  0  0  0  0  0
   10.6485    8.5469   -8.4951 C   0  0  0  0  0  0  0  0  0  0  0  0
   11.6831    8.2074   -7.4055 C   0  0  0  0  0  0  0  0  0  0  0  0
   11.4464    8.8664   -6.0729 C   0  0  0  0  0  0  0  0  0  0  0  0
   11.1947   10.1716   -6.0123 N   0  0  0  0  0  0  0  0  0  0  0  0
   11.2846   10.5542   -4.6483 O   0  0  0  0  0  0  0  0  0  0  0  0
   11.6849    9.4703   -3.8838 C   0  0  0  0  0  0  0  0  0  0  0  0
   12.0859    9.3662   -2.5449 C   0  0  0  0  0  0  0  0  0  0  0  0
   12.4765    8.0998   -2.0703 C   0  0  0  0  0  0  0  0  0  0  0  0
   12.4270    6.9731   -2.9231 C   0  0  0  0  0  0  0  0  0  0  0  0
   12.0423    7.1095   -4.2752 C   0  0  0  0  0  0  0  0  0  0  0  0
   11.6901    8.3886   -4.7635 C   0  0  0  0  0  0  0  0  0  0  0  0
    9.1368    6.4659  -10.2844 C   0  0  0  0  0  0  0  0  0  0  0  0
    8.0206    3.7555  -13.6638 C   0  0  0  0  0  0  0  0  0  0  0  0
    9.3299    3.8211  -14.0687 C   0  0  0  0  0  0  0  0  0  0  0  0
    9.6812    2.7010  -14.9091 C   0  0  0  0  0  0  0  0  0  0  0  0
   10.8953    2.3786  -15.5576 C   0  0  0  0  0  0  0  0  0  0  0  0
   11.0222    1.2296  -16.3612 C   0  0  0  0  0  0  0  0  0  0  0  0
    9.9292    0.3626  -16.5316 C   0  0  0  0  0  0  0  0  0  0  0  0
   10.0863   -1.0278  -17.5383 Cl  0  0  0  0  0  0  0  0  0  0  0  0
    8.7092    0.6408  -15.8930 C   0  0  0  0  0  0  0  0  0  0  0  0
    8.5839    1.7994  -15.1008 C   0  0  0  0  0  0  0  0  0  0  0  0
    7.1530    2.3681  -14.2519 S   0  0  0  0  0  0  0  0  0  0  0  0
    6.9083    4.6709  -10.3825 H   0  0  0  0  0  0  0  0  0  0  0  0
    9.7710    4.5801  -11.1740 H   0  0  0  0  0  0  0  0  0  0  0  0
    9.9886    3.6190   -9.0482 H   0  0  0  0  0  0  0  0  0  0  0  0
    8.2637    3.8077   -8.7698 H   0  0  0  0  0  0  0  0  0  0  0  0
   10.4903    5.6107   -7.9977 H   0  0  0  0  0  0  0  0  0  0  0  0
    8.9469    5.3775   -7.1754 H   0  0  0  0  0  0  0  0  0  0  0  0
    8.9370    8.0533   -7.2223 H   0  0  0  0  0  0  0  0  0  0  0  0
    8.5209    8.7303   -8.7591 H   0  0  0  0  0  0  0  0  0  0  0  0
   10.6028    9.6320   -8.5749 H   0  0  0  0  0  0  0  0  0  0  0  0
   11.0486    8.2477   -9.4597 H   0  0  0  0  0  0  0  0  0  0  0  0
   12.6612    8.5271   -7.7682 H   0  0  0  0  0  0  0  0  0  0  0  0
   11.7734    7.1333   -7.2723 H   0  0  0  0  0  0  0  0  0  0  0  0
   12.0871   10.2190   -1.8861 H   0  0  0  0  0  0  0  0  0  0  0  0
   12.7973    7.9895   -1.0461 H   0  0  0  0  0  0  0  0  0  0  0  0
   12.7137    6.0020   -2.5454 H   0  0  0  0  0  0  0  0  0  0  0  0
   12.0596    6.2527   -4.9330 H   0  0  0  0  0  0  0  0  0  0  0  0
    8.4861    7.0881  -10.8922 H   0  0  0  0  0  0  0  0  0  0  0  0
   10.1582    6.7265  -10.5547 H   0  0  0  0  0  0  0  0  0  0  0  0
   10.0090    4.6202  -13.8104 H   0  0  0  0  0  0  0  0  0  0  0  0
   11.7447    3.0329  -15.4378 H   0  0  0  0  0  0  0  0  0  0  0  0
   11.9620    1.0126  -16.8480 H   0  0  0  0  0  0  0  0  0  0  0  0
    7.8692   -0.0271  -16.0188 H   0  0  0  0  0  0  0  0  0  0  0  0
    7.8743    6.6336   -8.7645 H   0  0  0  0  0  0  0  0  0  0  0  0
  2  1  2  0
  3  2  2  0
  4  2  1  0
  5  4  1  0
  6  5  1  0
  7  6  1  0
  8  7  1  0
  9  8  1  0
 10  9  1  0
 11 10  1  0
 12 11  1  0
 13 12  2  0
 14 13  1  0
 15 14  1  0
 16 15  2  0
 17 16  1  0
 18 17  2  0
 19 18  1  0
 20 12  1  0
 20 15  1  0
 20 19  2  0
 21  5  1  0
 21  8  1  0
 22  2  1  0
 23 22  2  0
 24 23  1  0
 25 24  2  0
 26 25  1  0
 27 26  2  0
 28 27  1  0
 29 27  1  0
 30 24  1  0
 30 29  2  0
 31 22  1  0
 31 30  1  0
 32  4  1  0
  5 33  1  6
 34  6  1  0
 35  6  1  0
 36  7  1  0
 37  7  1  0
 38  9  1  0
 39  9  1  0
 40 10  1  0
 41 10  1  0
 42 11  1  0
 43 11  1  0
 44 16  1  0
 45 17  1  0
 46 18  1  0
 47 19  1  0
 48 21  1  0
 49 21  1  0
 50 23  1  0
 51 25  1  0
 52 26  1  0
 53 29  1  0
  8 54  1  6
M  CHG  1   8   1
M  END
>  <b_m_subgroup_collapsed>  (4) 
0

>  <r_i_docking_score>  (4) 
-10.3971110678131

>  <s_m_subgroup_title>  (4) 
glide-dock_SP_D22_pv

>  <s_m_subgroupid>  (4) 
glide-dock_SP_D22_pv

>  <Molecule ChEMBL ID>  (4) 
CHEMBL4751063

>  <Standard Type>  (4) 
Ki

>  <Standard Value>  (4) 
8.318

>  <label>  (4) 
1

$$$$
CHEMBL3423332
     RDKit          3D

 73 78  0  0  1  0  0  0  0  0999 V2000
   14.3293    3.9284  -18.6405 C   0  0  0  0  0  0  0  0  0  0  0  0
   13.3464    4.3516  -17.6280 N   0  0  0  0  0  0  0  0  0  0  0  0
   12.2402    3.5709  -17.4326 C   0  0  0  0  0  0  0  0  0  0  0  0
   11.9592    2.5450  -18.0536 O   0  0  0  0  0  0  0  0  0  0  0  0
   11.3892    4.0391  -16.3521 C   0  0  0  0  0  0  0  0  0  0  0  0
   11.6058    5.1625  -15.6380 C   0  0  0  0  0  0  0  0  0  0  0  0
   10.6878    5.3412  -14.6040 N   0  0  0  0  0  0  0  0  0  0  0  0
    9.9358    4.2721  -14.7386 C   0  0  0  0  0  0  0  0  0  0  0  0
    8.9000    3.7142  -14.0606 N   0  0  0  0  0  0  0  0  0  0  0  0
    8.4977    4.3145  -12.7927 C   0  0  0  0  0  0  0  0  0  0  0  0
    9.6419    4.2625  -11.7647 C   0  0  0  0  0  0  0  0  0  0  0  0
    9.2895    4.7939  -10.3753 C   0  0  0  0  0  0  0  0  0  0  0  0
    8.7599    6.2328  -10.3776 C   0  0  0  0  0  0  0  0  0  0  0  0
    9.0205    6.9734   -9.1161 N   0  0  0  0  0  0  0  0  0  0  0  0
   10.3437    7.6556   -9.1231 C   0  0  0  0  0  0  0  0  0  0  0  0
   10.5848    8.4816   -7.8456 C   0  0  0  0  0  0  0  0  0  0  0  0
   10.3182    7.6683   -6.6678 N   0  0  0  0  0  0  0  0  0  0  0  0
   10.9873    7.9067   -5.4474 C   0  0  0  0  0  0  0  0  0  0  0  0
   11.3627    6.7890   -4.6658 C   0  0  0  0  0  0  0  0  0  0  0  0
   12.0208    6.9603   -3.4318 C   0  0  0  0  0  0  0  0  0  0  0  0
   12.2861    8.2507   -2.9438 C   0  0  0  0  0  0  0  0  0  0  0  0
   11.9109    9.3723   -3.7036 C   0  0  0  0  0  0  0  0  0  0  0  0
   11.2812    9.2114   -4.9550 C   0  0  0  0  0  0  0  0  0  0  0  0
   10.9037   10.3377   -5.6288 O   0  0  0  0  0  0  0  0  0  0  0  0
    8.9992    7.0481   -6.6211 C   0  0  0  0  0  0  0  0  0  0  0  0
    8.7680    6.1924   -7.8718 C   0  0  0  0  0  0  0  0  0  0  0  0
    8.4866    2.5628  -14.7743 C   0  0  0  0  0  0  0  0  0  0  0  0
    7.3655    1.7057  -14.3857 C   0  0  0  0  0  0  0  0  0  0  0  0
    6.1678    2.2303  -13.8435 C   0  0  0  0  0  0  0  0  0  0  0  0
    5.1188    1.3790  -13.4471 C   0  0  0  0  0  0  0  0  0  0  0  0
    5.2146   -0.0003  -13.6846 C   0  0  0  0  0  0  0  0  0  0  0  0
    6.3880   -0.5370  -14.2414 C   0  0  0  0  0  0  0  0  0  0  0  0
    7.4596    0.3100  -14.5795 C   0  0  0  0  0  0  0  0  0  0  0  0
    9.3853    2.4421  -15.8183 C   0  0  0  0  0  0  0  0  0  0  0  0
   10.2668    3.4653  -15.7874 N   0  0  0  0  0  0  0  0  0  0  0  0
   12.7272    5.9542  -15.9951 N   0  0  0  0  0  0  0  0  0  0  0  0
   12.9369    7.2255  -15.3014 C   0  0  0  0  0  0  0  0  0  0  0  0
   13.6312    5.5137  -16.9280 C   0  0  0  0  0  0  0  0  0  0  0  0
   14.6711    6.1451  -17.1336 O   0  0  0  0  0  0  0  0  0  0  0  0
   14.5104    4.7275  -19.3600 H   0  0  0  0  0  0  0  0  0  0  0  0
   15.2767    3.6890  -18.1585 H   0  0  0  0  0  0  0  0  0  0  0  0
   14.0352    3.0517  -19.2178 H   0  0  0  0  0  0  0  0  0  0  0  0
    7.6517    3.7737  -12.3770 H   0  0  0  0  0  0  0  0  0  0  0  0
    8.1702    5.3376  -12.9798 H   0  0  0  0  0  0  0  0  0  0  0  0
   10.4858    4.8443  -12.1228 H   0  0  0  0  0  0  0  0  0  0  0  0
   10.0034    3.2388  -11.6716 H   0  0  0  0  0  0  0  0  0  0  0  0
   10.1843    4.7134   -9.7651 H   0  0  0  0  0  0  0  0  0  0  0  0
    8.5380    4.1724   -9.8964 H   0  0  0  0  0  0  0  0  0  0  0  0
    7.6864    6.1722  -10.5401 H   0  0  0  0  0  0  0  0  0  0  0  0
    9.1588    6.7994  -11.2210 H   0  0  0  0  0  0  0  0  0  0  0  0
   10.4251    8.3089   -9.9933 H   0  0  0  0  0  0  0  0  0  0  0  0
   11.1262    6.9019   -9.2201 H   0  0  0  0  0  0  0  0  0  0  0  0
    9.9283    9.3533   -7.8354 H   0  0  0  0  0  0  0  0  0  0  0  0
   11.6112    8.8493   -7.8300 H   0  0  0  0  0  0  0  0  0  0  0  0
   11.1609    5.7789   -5.0093 H   0  0  0  0  0  0  0  0  0  0  0  0
   12.3033    6.0942   -2.8509 H   0  0  0  0  0  0  0  0  0  0  0  0
   12.7664    8.3864   -1.9866 H   0  0  0  0  0  0  0  0  0  0  0  0
   12.0893   10.3587   -3.2994 H   0  0  0  0  0  0  0  0  0  0  0  0
   11.2169   11.1341   -5.2292 H   0  0  0  0  0  0  0  0  0  0  0  0
    8.8922    6.4189   -5.7411 H   0  0  0  0  0  0  0  0  0  0  0  0
    8.2375    7.8264   -6.5527 H   0  0  0  0  0  0  0  0  0  0  0  0
    7.7591    5.7749   -7.8758 H   0  0  0  0  0  0  0  0  0  0  0  0
    9.4497    5.3462   -7.8076 H   0  0  0  0  0  0  0  0  0  0  0  0
    6.0397    3.2965  -13.7310 H   0  0  0  0  0  0  0  0  0  0  0  0
    4.2077    1.7951  -13.0450 H   0  0  0  0  0  0  0  0  0  0  0  0
    4.3811   -0.6441  -13.4509 H   0  0  0  0  0  0  0  0  0  0  0  0
    6.4677   -1.6003  -14.4153 H   0  0  0  0  0  0  0  0  0  0  0  0
    8.3564   -0.1208  -14.9987 H   0  0  0  0  0  0  0  0  0  0  0  0
    9.4384    1.6738  -16.5754 H   0  0  0  0  0  0  0  0  0  0  0  0
   12.0243    7.5931  -14.8326 H   0  0  0  0  0  0  0  0  0  0  0  0
   13.6858    7.1068  -14.5196 H   0  0  0  0  0  0  0  0  0  0  0  0
   13.2764    8.0055  -15.9866 H   0  0  0  0  0  0  0  0  0  0  0  0
    8.3175    7.7047   -9.1148 H   0  0  0  0  0  0  0  0  0  0  0  0
  2  1  1  0
  3  2  1  0
  4  3  2  0
  5  3  1  0
  6  5  2  0
  7  6  1  0
  8  7  2  0
  9  8  1  0
 10  9  1  0
 11 10  1  0
 12 11  1  0
 13 12  1  0
 14 13  1  0
 15 14  1  0
 16 15  1  0
 17 16  1  0
 18 17  1  0
 19 18  2  0
 20 19  1  0
 21 20  2  0
 22 21  1  0
 23 18  1  0
 23 22  2  0
 24 23  1  0
 25 17  1  0
 26 14  1  0
 26 25  1  0
 27  9  1  0
 28 27  1  0
 29 28  2  0
 30 29  1  0
 31 30  2  0
 32 31  1  0
 33 28  1  0
 33 32  2  0
 34 27  2  0
 35  5  1  0
 35  8  1  0
 35 34  1  0
 36  6  1  0
 37 36  1  0
 38  2  1  0
 38 36  1  0
 39 38  2  0
 40  1  1  0
 41  1  1  0
 42  1  1  0
 43 10  1  0
 44 10  1  0
 45 11  1  0
 46 11  1  0
 47 12  1  0
 48 12  1  0
 49 13  1  0
 50 13  1  0
 51 15  1  0
 52 15  1  0
 53 16  1  0
 54 16  1  0
 55 19  1  0
 56 20  1  0
 57 21  1  0
 58 22  1  0
 59 24  1  0
 60 25  1  0
 61 25  1  0
 62 26  1  0
 63 26  1  0
 64 29  1  0
 65 30  1  0
 66 31  1  0
 67 32  1  0
 68 33  1  0
 69 34  1  0
 70 37  1  0
 71 37  1  0
 72 37  1  0
 73 14  1  0
M  CHG  1  14   1
M  END
>  <b_m_subgroup_collapsed>  (5) 
0

>  <r_i_docking_score>  (5) 
-10.260915009361099

>  <s_m_subgroup_title>  (5) 
glide-dock_SP_D22_pv

>  <s_m_subgroupid>  (5) 
glide-dock_SP_D22_pv

>  <Molecule ChEMBL ID>  (5) 
CHEMBL3423332

>  <Standard Type>  (5) 
Ki

>  <Standard Value>  (5) 
4.0

>  <label>  (5) 
1

$$$$
CHEMBL5760252
     RDKit          3D

 60 64  0  0  1  0  0  0  0  0999 V2000
   11.2585   10.8207   -5.8465 C   0  0  0  0  0  0  0  0  0  0  0  0
   11.3550    9.4197   -5.5163 N   0  0  0  0  0  0  0  0  0  0  0  0
   11.1096    8.3600   -6.3174 C   0  0  0  0  0  0  0  0  0  0  0  0
   10.5396    8.5437   -7.9583 S   0  0  0  0  0  0  0  0  0  0  0  0
    8.8522    7.9647   -7.6355 C   0  0  0  0  0  0  0  0  0  0  0  0
    8.7146    6.4276   -7.5545 C   0  0  0  0  0  0  0  0  0  0  0  0
    9.1573    5.6296   -8.7903 C   0  0  0  0  0  0  0  0  0  0  0  0
    8.4860    6.0654  -10.0411 N   0  0  1  0  0  0  0  0  0  0  0  0
    9.2136    7.1108  -10.8028 C   0  0  0  0  0  0  0  0  0  0  0  0
    9.0148    6.7878  -12.2849 C   0  0  1  0  0  0  0  0  0  0  0  0
   10.2476    6.1754  -12.9734 C   0  0  0  0  0  0  0  0  0  0  0  0
    9.6870    5.1189  -13.9307 C   0  0  0  0  0  0  0  0  0  0  0  0
    8.3101    4.8753  -13.5096 N   0  0  0  0  0  0  0  0  0  0  0  0
    7.6432    3.6617  -13.7828 C   0  0  0  0  0  0  0  0  0  0  0  0
    6.3514    3.4180  -13.2555 C   0  0  0  0  0  0  0  0  0  0  0  0
    5.7151    2.1761  -13.4432 C   0  0  0  0  0  0  0  0  0  0  0  0
    6.3540    1.1549  -14.1777 C   0  0  0  0  0  0  0  0  0  0  0  0
    5.7231   -0.2171  -14.3301 C   0  0  0  0  0  0  0  0  0  0  0  0
    6.4701   -1.0881  -13.6543 F   0  0  0  0  0  0  0  0  0  0  0  0
    4.4798   -0.2508  -13.8473 F   0  0  0  0  0  0  0  0  0  0  0  0
    5.6924   -0.5668  -15.6153 F   0  0  0  0  0  0  0  0  0  0  0  0
    7.6140    1.4068  -14.7532 C   0  0  0  0  0  0  0  0  0  0  0  0
    8.2483    2.6491  -14.5667 C   0  0  0  0  0  0  0  0  0  0  0  0
    7.9874    5.6703  -12.3300 C   0  0  1  0  0  0  0  0  0  0  0  0
    8.2094    4.9675  -10.9883 C   0  0  0  0  0  0  0  0  0  0  0  0
   11.2860    7.1627   -5.7740 N   0  0  0  0  0  0  0  0  0  0  0  0
   11.6860    7.4786   -4.5001 C   0  0  0  0  0  0  0  0  0  0  0  0
   12.0772    6.6367   -3.4493 C   0  0  0  0  0  0  0  0  0  0  0  0
   12.4835    7.1796   -2.2252 C   0  0  0  0  0  0  0  0  0  0  0  0
   12.4844    8.5726   -2.0131 C   0  0  0  0  0  0  0  0  0  0  0  0
   12.0862    9.4342   -3.0513 C   0  0  0  0  0  0  0  0  0  0  0  0
   11.7222    8.8839   -4.2927 C   0  0  0  0  0  0  0  0  0  0  0  0
   10.9728   11.3742   -4.9565 H   0  0  0  0  0  0  0  0  0  0  0  0
   10.4894   10.9721   -6.5966 H   0  0  0  0  0  0  0  0  0  0  0  0
   12.2123   11.1833   -6.2310 H   0  0  0  0  0  0  0  0  0  0  0  0
    8.4959    8.4115   -6.7061 H   0  0  0  0  0  0  0  0  0  0  0  0
    8.2122    8.3770   -8.4086 H   0  0  0  0  0  0  0  0  0  0  0  0
    9.2515    6.0473   -6.6907 H   0  0  0  0  0  0  0  0  0  0  0  0
    7.6854    6.1722   -7.3321 H   0  0  0  0  0  0  0  0  0  0  0  0
   10.2425    5.6492   -8.9010 H   0  0  0  0  0  0  0  0  0  0  0  0
    8.9048    4.5849   -8.6011 H   0  0  0  0  0  0  0  0  0  0  0  0
    8.8067    8.0944  -10.5718 H   0  0  0  0  0  0  0  0  0  0  0  0
   10.2759    7.1418  -10.5583 H   0  0  0  0  0  0  0  0  0  0  0  0
    8.6314    7.6539  -12.8219 H   0  0  0  0  0  0  0  0  0  0  0  0
   10.8860    6.9141  -13.4580 H   0  0  0  0  0  0  0  0  0  0  0  0
   10.8785    5.6684  -12.2469 H   0  0  0  0  0  0  0  0  0  0  0  0
    9.6866    5.4831  -14.9586 H   0  0  0  0  0  0  0  0  0  0  0  0
   10.3060    4.2222  -13.8856 H   0  0  0  0  0  0  0  0  0  0  0  0
    5.8369    4.1700  -12.6765 H   0  0  0  0  0  0  0  0  0  0  0  0
    4.7435    2.0099  -13.0019 H   0  0  0  0  0  0  0  0  0  0  0  0
    8.1060    0.6325  -15.3236 H   0  0  0  0  0  0  0  0  0  0  0  0
    9.2187    2.7885  -15.0172 H   0  0  0  0  0  0  0  0  0  0  0  0
    6.9824    6.0922  -12.3870 H   0  0  0  0  0  0  0  0  0  0  0  0
    9.0759    4.3051  -11.0446 H   0  0  0  0  0  0  0  0  0  0  0  0
    7.3528    4.3695  -10.6772 H   0  0  0  0  0  0  0  0  0  0  0  0
   12.0853    5.5734   -3.6003 H   0  0  0  0  0  0  0  0  0  0  0  0
   12.8055    6.5062   -1.4468 H   0  0  0  0  0  0  0  0  0  0  0  0
   12.7911    8.9824   -1.0609 H   0  0  0  0  0  0  0  0  0  0  0  0
   12.0872   10.5035   -2.8972 H   0  0  0  0  0  0  0  0  0  0  0  0
    7.5809    6.4823   -9.8212 H   0  0  0  0  0  0  0  0  0  0  0  0
  2  1  1  0
  3  2  1  0
  4  3  1  0
  5  4  1  0
  6  5  1  0
  7  6  1  0
  8  7  1  0
  9  8  1  0
 10  9  1  0
 11 10  1  0
 12 11  1  0
 13 12  1  0
 14 13  1  0
 15 14  1  0
 16 15  2  0
 17 16  1  0
 18 17  1  0
 19 18  1  0
 20 18  1  0
 21 18  1  0
 22 17  2  0
 23 14  2  0
 23 22  1  0
 24 10  1  0
 24 13  1  0
 25  8  1  0
 25 24  1  0
 26  3  2  0
 27 26  1  0
 28 27  2  0
 29 28  1  0
 30 29  2  0
 31 30  1  0
 32  2  1  0
 32 27  1  0
 32 31  2  0
 33  1  1  0
 34  1  1  0
 35  1  1  0
 36  5  1  0
 37  5  1  0
 38  6  1  0
 39  6  1  0
 40  7  1  0
 41  7  1  0
 42  9  1  0
 43  9  1  0
 10 44  1  6
 45 11  1  0
 46 11  1  0
 47 12  1  0
 48 12  1  0
 49 15  1  0
 50 16  1  0
 51 22  1  0
 52 23  1  0
 24 53  1  6
 54 25  1  0
 55 25  1  0
 56 28  1  0
 57 29  1  0
 58 30  1  0
 59 31  1  0
  8 60  1  1
M  CHG  1   8   1
M  END
>  <b_m_subgroup_collapsed>  (6) 
0

>  <r_i_docking_score>  (6) 
-10.2490308430956

>  <s_m_subgroup_title>  (6) 
glide-dock_SP_D22_pv

>  <s_m_subgroupid>  (6) 
glide-dock_SP_D22_pv

>  <Molecule ChEMBL ID>  (6) 
CHEMBL5760252

>  <Standard Type>  (6) 
Ki

>  <Standard Value>  (6) 
57.5

>  <label>  (6) 
1

$$$$
CHEMBL2059305
     RDKit          3D

 59 63  0  0  1  0  0  0  0  0999 V2000
   11.2892    6.0382  -14.0432 O   0  0  0  0  0  0  0  0  0  0  0  0
   11.1811    4.9106  -14.5307 C   0  0  0  0  0  0  0  0  0  0  0  0
   12.4017    4.3099  -15.2318 C   0  0  0  0  0  0  0  0  0  0  0  0
   12.0103    3.3639  -16.3723 C   0  0  0  0  0  0  0  0  0  0  0  0
   10.9389    2.3958  -15.9242 C   0  0  0  0  0  0  0  0  0  0  0  0
   10.8934    1.0925  -16.4562 C   0  0  0  0  0  0  0  0  0  0  0  0
    9.9014    0.1910  -16.0372 C   0  0  0  0  0  0  0  0  0  0  0  0
    8.9397    0.5996  -15.0972 C   0  0  0  0  0  0  0  0  0  0  0  0
    8.9766    1.9065  -14.5756 C   0  0  0  0  0  0  0  0  0  0  0  0
    9.9816    2.8228  -14.9714 C   0  0  0  0  0  0  0  0  0  0  0  0
   10.0508    4.1567  -14.4268 N   0  0  0  0  0  0  0  0  0  0  0  0
    8.8943    4.7343  -13.7122 C   0  0  0  0  0  0  0  0  0  0  0  0
    9.0742    4.6816  -12.1779 C   0  0  0  0  0  0  0  0  0  0  0  0
    7.9981    5.4953  -11.4220 C   0  0  0  0  0  0  0  0  0  0  0  0
    8.4865    6.1726  -10.1929 N   0  0  2  0  0  0  0  0  0  0  0  0
    9.5058    7.2275  -10.4619 C   0  0  0  0  0  0  0  0  0  0  0  0
    9.8734    8.0141   -9.1867 C   0  0  0  0  0  0  0  0  0  0  0  0
   10.3444    7.0734   -8.0569 C   0  0  1  0  0  0  0  0  0  0  0  0
   10.7950    7.7643   -6.7575 C   0  0  0  0  0  0  0  0  0  0  0  0
   10.7700    9.1696   -6.6303 C   0  0  0  0  0  0  0  0  0  0  0  0
   11.2039    9.8011   -5.4485 C   0  0  0  0  0  0  0  0  0  0  0  0
   11.6471    9.0174   -4.3719 C   0  0  0  0  0  0  0  0  0  0  0  0
   12.0909    9.3381   -3.1020 N   0  0  0  0  0  0  0  0  0  0  0  0
   12.3901    8.1914   -2.3901 C   0  0  0  0  0  0  0  0  0  0  0  0
   12.1531    7.0984   -3.1814 C   0  0  0  0  0  0  0  0  0  0  0  0
   11.6859    7.5953   -4.4477 C   0  0  0  0  0  0  0  0  0  0  0  0
   11.2724    6.9968   -5.6637 C   0  0  0  0  0  0  0  0  0  0  0  0
    9.2141    6.0602   -7.8211 C   0  0  0  0  0  0  0  0  0  0  0  0
    8.8862    5.2596   -9.0958 C   0  0  0  0  0  0  0  0  0  0  0  0
   13.0536    5.1018  -15.6011 H   0  0  0  0  0  0  0  0  0  0  0  0
   12.9649    3.7729  -14.4731 H   0  0  0  0  0  0  0  0  0  0  0  0
   12.8880    2.8138  -16.7140 H   0  0  0  0  0  0  0  0  0  0  0  0
   11.6395    3.9317  -17.2239 H   0  0  0  0  0  0  0  0  0  0  0  0
   11.6296    0.7756  -17.1812 H   0  0  0  0  0  0  0  0  0  0  0  0
    9.8714   -0.8111  -16.4397 H   0  0  0  0  0  0  0  0  0  0  0  0
    8.1739   -0.0923  -14.7755 H   0  0  0  0  0  0  0  0  0  0  0  0
    8.2286    2.1698  -13.8465 H   0  0  0  0  0  0  0  0  0  0  0  0
    8.7674    5.7689  -14.0326 H   0  0  0  0  0  0  0  0  0  0  0  0
    7.9551    4.2692  -14.0062 H   0  0  0  0  0  0  0  0  0  0  0  0
    9.0626    3.6451  -11.8453 H   0  0  0  0  0  0  0  0  0  0  0  0
   10.0711    5.0413  -11.9336 H   0  0  0  0  0  0  0  0  0  0  0  0
    7.5856    6.2715  -12.0694 H   0  0  0  0  0  0  0  0  0  0  0  0
    7.1538    4.8515  -11.1775 H   0  0  0  0  0  0  0  0  0  0  0  0
   10.4168    6.7920  -10.8723 H   0  0  0  0  0  0  0  0  0  0  0  0
    9.1144    7.9182  -11.2118 H   0  0  0  0  0  0  0  0  0  0  0  0
   10.6558    8.7314   -9.4383 H   0  0  0  0  0  0  0  0  0  0  0  0
    9.0034    8.5898   -8.8581 H   0  0  0  0  0  0  0  0  0  0  0  0
   11.2245    6.5358   -8.4137 H   0  0  0  0  0  0  0  0  0  0  0  0
   10.4097    9.7732   -7.4444 H   0  0  0  0  0  0  0  0  0  0  0  0
   11.1818   10.8779   -5.3665 H   0  0  0  0  0  0  0  0  0  0  0  0
   12.2013   10.2673   -2.7202 H   0  0  0  0  0  0  0  0  0  0  0  0
   12.7380    8.2503   -1.3680 H   0  0  0  0  0  0  0  0  0  0  0  0
   12.2846    6.0601   -2.9152 H   0  0  0  0  0  0  0  0  0  0  0  0
   11.3095    5.9205   -5.7402 H   0  0  0  0  0  0  0  0  0  0  0  0
    9.5159    5.3722   -7.0467 H   0  0  0  0  0  0  0  0  0  0  0  0
    8.3208    6.5692   -7.4551 H   0  0  0  0  0  0  0  0  0  0  0  0
    8.0862    4.5485   -8.8911 H   0  0  0  0  0  0  0  0  0  0  0  0
    9.7530    4.6720   -9.4016 H   0  0  0  0  0  0  0  0  0  0  0  0
    7.6642    6.6909   -9.8677 H   0  0  0  0  0  0  0  0  0  0  0  0
  2  1  2  0
  3  2  1  0
  4  3  1  0
  5  4  1  0
  6  5  2  0
  7  6  1  0
  8  7  2  0
  9  8  1  0
 10  5  1  0
 10  9  2  0
 11  2  1  0
 11 10  1  0
 12 11  1  0
 13 12  1  0
 14 13  1  0
 15 14  1  0
 16 15  1  0
 17 16  1  0
 18 17  1  0
 19 18  1  0
 20 19  2  0
 21 20  1  0
 22 21  2  0
 23 22  1  0
 24 23  1  0
 25 24  2  0
 26 22  1  0
 26 25  1  0
 27 19  1  0
 27 26  2  0
 28 18  1  0
 29 15  1  0
 29 28  1  0
 30  3  1  0
 31  3  1  0
 32  4  1  0
 33  4  1  0
 34  6  1  0
 35  7  1  0
 36  8  1  0
 37  9  1  0
 38 12  1  0
 39 12  1  0
 40 13  1  0
 41 13  1  0
 42 14  1  0
 43 14  1  0
 44 16  1  0
 45 16  1  0
 46 17  1  0
 47 17  1  0
 18 48  1  6
 49 20  1  0
 50 21  1  0
 51 23  1  0
 52 24  1  0
 53 25  1  0
 54 27  1  0
 55 28  1  0
 56 28  1  0
 57 29  1  0
 58 29  1  0
 15 59  1  1
M  CHG  1  15   1
M  END
>  <b_m_subgroup_collapsed>  (7) 
0

>  <r_i_docking_score>  (7) 
-10.199130967249699

>  <s_m_subgroup_title>  (7) 
glide-dock_SP_D22_pv

>  <s_m_subgroupid>  (7) 
glide-dock_SP_D22_pv

>  <Molecule ChEMBL ID>  (7) 
CHEMBL2059305

>  <Standard Type>  (7) 
Ki

>  <Standard Value>  (7) 
42.0

>  <label>  (7) 
1

$$$$
CHEMBL4742856
     RDKit          3D

 58 62  0  0  1  0  0  0  0  0999 V2000
    5.6037   -1.4331  -14.6873 C   0  0  0  0  0  0  0  0  0  0  0  0
    5.7312   -0.0749  -14.2018 N   0  0  0  0  0  0  0  0  0  0  0  0
    4.7741    0.5864  -13.4501 C   0  0  0  0  0  0  0  0  0  0  0  0
    5.2084    1.8463  -13.1407 C   0  0  0  0  0  0  0  0  0  0  0  0
    6.4859    2.0076  -13.7725 C   0  0  0  0  0  0  0  0  0  0  0  0
    7.4538    3.0444  -13.8472 C   0  0  0  0  0  0  0  0  0  0  0  0
    7.1294    4.6452  -13.1055 S   0  0  0  0  0  0  0  0  0  0  0  0
    5.6857    4.9069  -13.1582 O   0  0  0  0  0  0  0  0  0  0  0  0
    8.0860    5.6031  -13.6791 O   0  0  0  0  0  0  0  0  0  0  0  0
    7.5446    4.4548  -11.4473 N   0  0  0  0  0  0  0  0  0  0  0  0
    8.8479    4.9170  -10.9596 C   0  0  2  0  0  0  0  0  0  0  0  0
    9.0949    4.4699   -9.5100 C   0  0  0  0  0  0  0  0  0  0  0  0
    9.4969    5.7237   -8.7506 C   0  0  0  0  0  0  0  0  0  0  0  0
    8.8860    6.8401   -9.4957 N   0  0  1  0  0  0  0  0  0  0  0  0
    9.4652    8.1772   -9.2498 C   0  0  0  0  0  0  0  0  0  0  0  0
    9.5307    8.5580   -7.7584 C   0  0  0  0  0  0  0  0  0  0  0  0
   10.9627    8.9465   -7.3778 C   0  0  0  0  0  0  0  0  0  0  0  0
   11.1237    9.3063   -5.9351 C   0  0  0  0  0  0  0  0  0  0  0  0
   10.9727   10.5638   -5.5263 N   0  0  0  0  0  0  0  0  0  0  0  0
   11.2855   10.5723   -4.1412 O   0  0  0  0  0  0  0  0  0  0  0  0
   11.6475    9.3120   -3.7164 C   0  0  0  0  0  0  0  0  0  0  0  0
   12.0861    8.8320   -2.4768 C   0  0  0  0  0  0  0  0  0  0  0  0
   12.3093    7.4465   -2.3685 C   0  0  0  0  0  0  0  0  0  0  0  0
   12.0862    6.5933   -3.4702 C   0  0  0  0  0  0  0  0  0  0  0  0
   11.6847    7.1098   -4.7212 C   0  0  0  0  0  0  0  0  0  0  0  0
   11.4787    8.5002   -4.8358 C   0  0  0  0  0  0  0  0  0  0  0  0
    8.9059    6.4538  -10.9185 C   0  0  0  0  0  0  0  0  0  0  0  0
    8.6850    2.8536  -14.5114 C   0  0  0  0  0  0  0  0  0  0  0  0
    8.9797    1.6191  -15.1175 C   0  0  0  0  0  0  0  0  0  0  0  0
    8.0393    0.5758  -15.0678 C   0  0  0  0  0  0  0  0  0  0  0  0
    6.8134    0.7690  -14.4028 C   0  0  0  0  0  0  0  0  0  0  0  0
    4.5518   -1.7032  -14.7843 H   0  0  0  0  0  0  0  0  0  0  0  0
    6.0780   -1.5280  -15.6645 H   0  0  0  0  0  0  0  0  0  0  0  0
    6.0838   -2.1169  -13.9885 H   0  0  0  0  0  0  0  0  0  0  0  0
    3.8397    0.1041  -13.2082 H   0  0  0  0  0  0  0  0  0  0  0  0
    4.6816    2.5910  -12.5636 H   0  0  0  0  0  0  0  0  0  0  0  0
    6.7575    4.6239  -10.8125 H   0  0  0  0  0  0  0  0  0  0  0  0
    9.6279    4.5265  -11.6154 H   0  0  0  0  0  0  0  0  0  0  0  0
    9.8775    3.7148   -9.4408 H   0  0  0  0  0  0  0  0  0  0  0  0
    8.1890    4.0569   -9.0618 H   0  0  0  0  0  0  0  0  0  0  0  0
   10.5825    5.8275   -8.7574 H   0  0  0  0  0  0  0  0  0  0  0  0
    9.1660    5.6751   -7.7134 H   0  0  0  0  0  0  0  0  0  0  0  0
    8.8679    8.9154   -9.7878 H   0  0  0  0  0  0  0  0  0  0  0  0
   10.4590    8.2150   -9.6988 H   0  0  0  0  0  0  0  0  0  0  0  0
    9.1855    7.7605   -7.1028 H   0  0  0  0  0  0  0  0  0  0  0  0
    8.8396    9.3734   -7.5672 H   0  0  0  0  0  0  0  0  0  0  0  0
   11.2874    9.7753   -8.0047 H   0  0  0  0  0  0  0  0  0  0  0  0
   11.6356    8.1201   -7.6103 H   0  0  0  0  0  0  0  0  0  0  0  0
   12.2303    9.4967   -1.6374 H   0  0  0  0  0  0  0  0  0  0  0  0
   12.6623    7.0228   -1.4470 H   0  0  0  0  0  0  0  0  0  0  0  0
   12.2785    5.5404   -3.3592 H   0  0  0  0  0  0  0  0  0  0  0  0
   11.5512    6.4537   -5.5691 H   0  0  0  0  0  0  0  0  0  0  0  0
    8.0877    6.9429  -11.4492 H   0  0  0  0  0  0  0  0  0  0  0  0
    9.8352    6.7831  -11.3868 H   0  0  0  0  0  0  0  0  0  0  0  0
    9.4114    3.6522  -14.5548 H   0  0  0  0  0  0  0  0  0  0  0  0
    9.9251    1.4740  -15.6206 H   0  0  0  0  0  0  0  0  0  0  0  0
    8.2582   -0.3757  -15.5306 H   0  0  0  0  0  0  0  0  0  0  0  0
    7.8990    6.8977   -9.2522 H   0  0  0  0  0  0  0  0  0  0  0  0
  2  1  1  0
  3  2  1  0
  4  3  2  0
  5  4  1  0
  6  5  2  0
  7  6  1  0
  8  7  2  0
  9  7  2  0
 10  7  1  0
 11 10  1  0
 12 11  1  0
 13 12  1  0
 14 13  1  0
 15 14  1  0
 16 15  1  0
 17 16  1  0
 18 17  1  0
 19 18  2  0
 20 19  1  0
 21 20  1  0
 22 21  2  0
 23 22  1  0
 24 23  2  0
 25 24  1  0
 26 18  1  0
 26 21  1  0
 26 25  2  0
 27 11  1  0
 27 14  1  0
 28  6  1  0
 29 28  2  0
 30 29  1  0
 31  2  1  0
 31  5  1  0
 31 30  2  0
 32  1  1  0
 33  1  1  0
 34  1  1  0
 35  3  1  0
 36  4  1  0
 37 10  1  0
 11 38  1  6
 39 12  1  0
 40 12  1  0
 41 13  1  0
 42 13  1  0
 43 15  1  0
 44 15  1  0
 45 16  1  0
 46 16  1  0
 47 17  1  0
 48 17  1  0
 49 22  1  0
 50 23  1  0
 51 24  1  0
 52 25  1  0
 53 27  1  0
 54 27  1  0
 55 28  1  0
 56 29  1  0
 57 30  1  0
 14 58  1  1
M  CHG  1  14   1
M  END
>  <b_m_subgroup_collapsed>  (8) 
0

>  <r_i_docking_score>  (8) 
-10.1022609944919

>  <s_m_subgroup_title>  (8) 
glide-dock_SP_D22_pv

>  <s_m_subgroupid>  (8) 
glide-dock_SP_D22_pv

>  <Molecule ChEMBL ID>  (8) 
CHEMBL4742856

>  <Standard Type>  (8) 
Ki

>  <Standard Value>  (8) 
9.12

>  <label>  (8) 
1

$$$$
CHEMBL3798017
     RDKit          3D

 57 60  0  0  1  0  0  0  0  0999 V2000
   12.0534    6.6305   -2.6762 C   0  0  0  0  0  0  0  0  0  0  0  0
   11.2878    6.5752   -3.8724 O   0  0  0  0  0  0  0  0  0  0  0  0
   11.3566    7.6514   -4.7348 C   0  0  0  0  0  0  0  0  0  0  0  0
   12.2437    8.7416   -4.5557 C   0  0  0  0  0  0  0  0  0  0  0  0
   12.2940    9.7722   -5.5091 C   0  0  0  0  0  0  0  0  0  0  0  0
   11.4100    9.7731   -6.5932 C   0  0  0  0  0  0  0  0  0  0  0  0
   10.4940    8.7318   -6.7565 C   0  0  0  0  0  0  0  0  0  0  0  0
   10.4856    7.6486   -5.8489 C   0  0  0  0  0  0  0  0  0  0  0  0
    9.6408    6.5724   -5.9715 O   0  0  0  0  0  0  0  0  0  0  0  0
    8.7109    6.5239   -7.0454 C   0  0  0  0  0  0  0  0  0  0  0  0
    9.4284    6.1020   -8.3378 C   0  0  0  0  0  0  0  0  0  0  0  0
    8.4860    6.0364   -9.4641 N   0  0  0  0  0  0  0  0  0  0  0  0
    9.1185    5.7417  -10.7566 C   0  0  0  0  0  0  0  0  0  0  0  0
    8.0728    5.6588  -11.8767 C   0  0  1  0  0  0  0  0  0  0  0  0
    7.6865    6.9728  -12.2469 O   0  0  0  0  0  0  0  0  0  0  0  0
    8.6751    4.9719  -13.1112 C   0  0  0  0  0  0  0  0  0  0  0  0
    7.6387    4.6212  -14.0092 O   0  0  0  0  0  0  0  0  0  0  0  0
    7.1030    3.3741  -13.8477 C   0  0  0  0  0  0  0  0  0  0  0  0
    5.8772    3.2281  -13.1679 C   0  0  0  0  0  0  0  0  0  0  0  0
    5.2860    1.9587  -13.0464 C   0  0  0  0  0  0  0  0  0  0  0  0
    5.9041    0.8322  -13.6167 C   0  0  0  0  0  0  0  0  0  0  0  0
    7.1210    0.9816  -14.3078 C   0  0  0  0  0  0  0  0  0  0  0  0
    7.9002    0.0370  -14.9612 N   0  0  0  0  0  0  0  0  0  0  0  0
    9.0237    0.6638  -15.4888 C   0  0  0  0  0  0  0  0  0  0  0  0
   10.0980    0.1285  -16.2225 C   0  0  0  0  0  0  0  0  0  0  0  0
   11.1353    0.9719  -16.6611 C   0  0  0  0  0  0  0  0  0  0  0  0
   11.0942    2.3470  -16.3690 C   0  0  0  0  0  0  0  0  0  0  0  0
   10.0126    2.8808  -15.6430 C   0  0  0  0  0  0  0  0  0  0  0  0
    8.9611    2.0540  -15.1847 C   0  0  0  0  0  0  0  0  0  0  0  0
    7.7463    2.2563  -14.4327 C   0  0  0  0  0  0  0  0  0  0  0  0
   11.8180    5.7723   -2.0504 H   0  0  0  0  0  0  0  0  0  0  0  0
   13.1215    6.6012   -2.8917 H   0  0  0  0  0  0  0  0  0  0  0  0
   11.8231    7.5248   -2.0944 H   0  0  0  0  0  0  0  0  0  0  0  0
   12.9267    8.7856   -3.7229 H   0  0  0  0  0  0  0  0  0  0  0  0
   13.0158   10.5687   -5.4382 H   0  0  0  0  0  0  0  0  0  0  0  0
   11.4319   10.5726   -7.3073 H   0  0  0  0  0  0  0  0  0  0  0  0
    9.8314    8.7870   -7.6042 H   0  0  0  0  0  0  0  0  0  0  0  0
    8.1673    7.4639   -7.1481 H   0  0  0  0  0  0  0  0  0  0  0  0
    7.9571    5.7757   -6.7975 H   0  0  0  0  0  0  0  0  0  0  0  0
    9.8933    5.1244   -8.2024 H   0  0  0  0  0  0  0  0  0  0  0  0
   10.2315    6.7936   -8.5869 H   0  0  0  0  0  0  0  0  0  0  0  0
    7.9577    6.9046   -9.5481 H   0  0  0  0  0  0  0  0  0  0  0  0
    9.6354    4.7856  -10.6564 H   0  0  0  0  0  0  0  0  0  0  0  0
    9.8783    6.4900  -10.9907 H   0  0  0  0  0  0  0  0  0  0  0  0
    7.2019    5.1034  -11.5263 H   0  0  0  0  0  0  0  0  0  0  0  0
    7.1414    7.3684  -11.5588 H   0  0  0  0  0  0  0  0  0  0  0  0
    9.3826    5.6328  -13.6124 H   0  0  0  0  0  0  0  0  0  0  0  0
    9.2364    4.0804  -12.8227 H   0  0  0  0  0  0  0  0  0  0  0  0
    5.3832    4.0923  -12.7492 H   0  0  0  0  0  0  0  0  0  0  0  0
    4.3439    1.8592  -12.5368 H   0  0  0  0  0  0  0  0  0  0  0  0
    5.4446   -0.1414  -13.5335 H   0  0  0  0  0  0  0  0  0  0  0  0
    7.6880   -0.9513  -15.0493 H   0  0  0  0  0  0  0  0  0  0  0  0
   10.1283   -0.9278  -16.4438 H   0  0  0  0  0  0  0  0  0  0  0  0
   11.9670    0.5628  -17.2165 H   0  0  0  0  0  0  0  0  0  0  0  0
   11.8916    2.9932  -16.7044 H   0  0  0  0  0  0  0  0  0  0  0  0
    9.9889    3.9392  -15.4321 H   0  0  0  0  0  0  0  0  0  0  0  0
    7.8065    5.3097   -9.2747 H   0  0  0  0  0  0  0  0  0  0  0  0
  2  1  1  0
  3  2  1  0
  4  3  2  0
  5  4  1  0
  6  5  2  0
  7  6  1  0
  8  3  1  0
  8  7  2  0
  9  8  1  0
 10  9  1  0
 11 10  1  0
 12 11  1  0
 13 12  1  0
 14 13  1  0
 15 14  1  0
 16 14  1  0
 17 16  1  0
 18 17  1  0
 19 18  1  0
 20 19  2  0
 21 20  1  0
 22 21  2  0
 23 22  1  0
 24 23  1  0
 25 24  2  0
 26 25  1  0
 27 26  2  0
 28 27  1  0
 29 24  1  0
 29 28  2  0
 30 18  2  0
 30 22  1  0
 30 29  1  0
 31  1  1  0
 32  1  1  0
 33  1  1  0
 34  4  1  0
 35  5  1  0
 36  6  1  0
 37  7  1  0
 38 10  1  0
 39 10  1  0
 40 11  1  0
 41 11  1  0
 42 12  1  0
 43 13  1  0
 44 13  1  0
 14 45  1  1
 46 15  1  0
 47 16  1  0
 48 16  1  0
 49 19  1  0
 50 20  1  0
 51 21  1  0
 52 23  1  0
 53 25  1  0
 54 26  1  0
 55 27  1  0
 56 28  1  0
 57 12  1  0
M  CHG  1  12   1
M  END
>  <b_m_subgroup_collapsed>  (9) 
0

>  <r_i_docking_score>  (9) 
-10.0901187674162

>  <s_m_subgroup_title>  (9) 
glide-dock_SP_D22_pv

>  <s_m_subgroupid>  (9) 
glide-dock_SP_D22_pv

>  <Molecule ChEMBL ID>  (9) 
CHEMBL3798017

>  <Standard Type>  (9) 
Ki

>  <Standard Value>  (9) 
26.0

>  <label>  (9) 
1

$$$$
CHEMBL2059312
     RDKit          3D

 57 61  0  0  1  0  0  0  0  0999 V2000
   11.6720    6.8764  -13.0484 O   0  0  0  0  0  0  0  0  0  0  0  0
   11.5597    5.7669  -13.5732 C   0  0  0  0  0  0  0  0  0  0  0  0
   12.7233    5.1841  -14.3818 C   0  0  0  0  0  0  0  0  0  0  0  0
   12.2472    4.3549  -15.5881 C   0  0  0  0  0  0  0  0  0  0  0  0
   11.0983    3.4273  -15.2302 C   0  0  0  0  0  0  0  0  0  0  0  0
   10.8858    2.2380  -15.9578 C   0  0  0  0  0  0  0  0  0  0  0  0
    9.7823    1.4177  -15.6589 C   0  0  0  0  0  0  0  0  0  0  0  0
    8.8792    1.7939  -14.6469 C   0  0  0  0  0  0  0  0  0  0  0  0
    9.0916    2.9789  -13.9142 C   0  0  0  0  0  0  0  0  0  0  0  0
   10.2120    3.7931  -14.1878 C   0  0  0  0  0  0  0  0  0  0  0  0
   10.4691    4.9794  -13.4402 N   0  0  0  0  0  0  0  0  0  0  0  0
    9.3764    5.5105  -12.7287 O   0  0  0  0  0  0  0  0  0  0  0  0
    9.4744    5.2433  -11.3294 C   0  0  0  0  0  0  0  0  0  0  0  0
    8.4862    6.1722  -10.6001 C   0  0  0  0  0  0  0  0  0  0  0  0
    9.0054    6.8467   -9.3776 N   0  0  2  0  0  0  0  0  0  0  0  0
   10.2122    7.6820   -9.6099 C   0  0  0  0  0  0  0  0  0  0  0  0
   10.5369    8.5438   -8.3852 C   0  0  0  0  0  0  0  0  0  0  0  0
   10.7238    7.7016   -7.0945 C   0  0  1  0  0  0  0  0  0  0  0  0
   11.0204    8.5095   -5.8831 N   0  0  0  0  0  0  0  0  0  0  0  0
   11.1471    9.8573   -5.7615 C   0  0  0  0  0  0  0  0  0  0  0  0
   11.2861   10.6793   -6.6469 O   0  0  0  0  0  0  0  0  0  0  0  0
   11.3011   10.1722   -4.4765 N   0  0  0  0  0  0  0  0  0  0  0  0
   11.6543    9.0417   -3.7895 C   0  0  0  0  0  0  0  0  0  0  0  0
   12.1715    8.9256   -2.4978 C   0  0  0  0  0  0  0  0  0  0  0  0
   12.4752    7.6239   -2.0729 C   0  0  0  0  0  0  0  0  0  0  0  0
   12.2167    6.5145   -2.9118 C   0  0  0  0  0  0  0  0  0  0  0  0
   11.6862    6.6673   -4.2168 C   0  0  0  0  0  0  0  0  0  0  0  0
   11.4380    7.9780   -4.6439 C   0  0  0  0  0  0  0  0  0  0  0  0
    9.4519    6.8368   -6.9181 C   0  0  0  0  0  0  0  0  0  0  0  0
    9.1375    5.9873   -8.1753 C   0  0  0  0  0  0  0  0  0  0  0  0
   13.3959    5.9787  -14.7038 H   0  0  0  0  0  0  0  0  0  0  0  0
   13.2863    4.5468  -13.7006 H   0  0  0  0  0  0  0  0  0  0  0  0
   13.0787    3.7740  -15.9908 H   0  0  0  0  0  0  0  0  0  0  0  0
   11.9151    5.0204  -16.3872 H   0  0  0  0  0  0  0  0  0  0  0  0
   11.5638    1.9557  -16.7498 H   0  0  0  0  0  0  0  0  0  0  0  0
    9.6202    0.5072  -16.2164 H   0  0  0  0  0  0  0  0  0  0  0  0
    8.0270    1.1686  -14.4249 H   0  0  0  0  0  0  0  0  0  0  0  0
    8.3906    3.2505  -13.1397 H   0  0  0  0  0  0  0  0  0  0  0  0
    9.2588    4.1967  -11.1164 H   0  0  0  0  0  0  0  0  0  0  0  0
   10.4853    5.4226  -10.9863 H   0  0  0  0  0  0  0  0  0  0  0  0
    8.1884    6.9642  -11.2895 H   0  0  0  0  0  0  0  0  0  0  0  0
    7.5699    5.6327  -10.3690 H   0  0  0  0  0  0  0  0  0  0  0  0
   11.0879    7.0705   -9.8240 H   0  0  0  0  0  0  0  0  0  0  0  0
   10.0504    8.3243  -10.4773 H   0  0  0  0  0  0  0  0  0  0  0  0
   11.4438    9.1093   -8.6076 H   0  0  0  0  0  0  0  0  0  0  0  0
    9.7309    9.2676   -8.2487 H   0  0  0  0  0  0  0  0  0  0  0  0
   11.5768    7.0385   -7.2472 H   0  0  0  0  0  0  0  0  0  0  0  0
   11.4659   11.1017   -4.1194 H   0  0  0  0  0  0  0  0  0  0  0  0
   12.3464    9.7834   -1.8668 H   0  0  0  0  0  0  0  0  0  0  0  0
   12.8856    7.4754   -1.0878 H   0  0  0  0  0  0  0  0  0  0  0  0
   12.4476    5.5267   -2.5485 H   0  0  0  0  0  0  0  0  0  0  0  0
   11.5277    5.8152   -4.8590 H   0  0  0  0  0  0  0  0  0  0  0  0
    9.5541    6.1757   -6.0592 H   0  0  0  0  0  0  0  0  0  0  0  0
    8.5978    7.4800   -6.6973 H   0  0  0  0  0  0  0  0  0  0  0  0
    8.2055    5.4393   -8.0181 H   0  0  0  0  0  0  0  0  0  0  0  0
    9.9204    5.2461   -8.3385 H   0  0  0  0  0  0  0  0  0  0  0  0
    8.2477    7.4861   -9.1603 H   0  0  0  0  0  0  0  0  0  0  0  0
  2  1  2  0
  3  2  1  0
  4  3  1  0
  5  4  1  0
  6  5  2  0
  7  6  1  0
  8  7  2  0
  9  8  1  0
 10  5  1  0
 10  9  2  0
 11  2  1  0
 11 10  1  0
 12 11  1  0
 13 12  1  0
 14 13  1  0
 15 14  1  0
 16 15  1  0
 17 16  1  0
 18 17  1  0
 19 18  1  0
 20 19  1  0
 21 20  2  0
 22 20  1  0
 23 22  1  0
 24 23  2  0
 25 24  1  0
 26 25  2  0
 27 26  1  0
 28 19  1  0
 28 23  1  0
 28 27  2  0
 29 18  1  0
 30 15  1  0
 30 29  1  0
 31  3  1  0
 32  3  1  0
 33  4  1  0
 34  4  1  0
 35  6  1  0
 36  7  1  0
 37  8  1  0
 38  9  1  0
 39 13  1  0
 40 13  1  0
 41 14  1  0
 42 14  1  0
 43 16  1  0
 44 16  1  0
 45 17  1  0
 46 17  1  0
 18 47  1  6
 48 22  1  0
 49 24  1  0
 50 25  1  0
 51 26  1  0
 52 27  1  0
 53 29  1  0
 54 29  1  0
 55 30  1  0
 56 30  1  0
 15 57  1  1
M  CHG  1  15   1
M  END
>  <b_m_subgroup_collapsed>  (10) 
0

>  <r_i_docking_score>  (10) 
-10.062990870191999

>  <s_m_subgroup_title>  (10) 
glide-dock_SP_D22_pv

>  <s_m_subgroupid>  (10) 
glide-dock_SP_D22_pv

>  <Molecule ChEMBL ID>  (10) 
CHEMBL2059312

>  <Standard Type>  (10) 
Ki

>  <Standard Value>  (10) 
55.0

>  <label>  (10) 
1

$$$$
CHEMBL494701
     RDKit          3D

 59 63  0  0  1  0  0  0  0  0999 V2000
   12.3122    6.0875  -14.2175 O   0  0  0  0  0  0  0  0  0  0  0  0
   11.3086    5.5217  -13.7935 C   0  0  0  0  0  0  0  0  0  0  0  0
   10.4876    6.1411  -12.6468 C   0  0  0  0  0  0  0  0  0  0  0  0
    9.5128    5.2083  -11.8526 C   0  0  1  0  0  0  0  0  0  0  0  0
    8.4604    5.9987  -11.0217 C   0  0  0  0  0  0  0  0  0  0  0  0
    8.8872    6.8127   -9.8344 N   0  0  2  0  0  0  0  0  0  0  0  0
    9.9979    7.7695  -10.0745 C   0  0  0  0  0  0  0  0  0  0  0  0
   10.1948    8.7452   -8.9114 C   0  0  0  0  0  0  0  0  0  0  0  0
   10.4920    7.9844   -7.6014 C   0  0  1  0  0  0  0  0  0  0  0  0
   10.8580    8.9634   -6.4519 C   0  0  0  0  0  0  0  0  0  0  0  0
   10.8860   10.1723   -6.6549 O   0  0  0  0  0  0  0  0  0  0  0  0
   11.2859    8.4833   -5.1237 C   0  0  0  0  0  0  0  0  0  0  0  0
   11.5700    7.1321   -4.8298 C   0  0  0  0  0  0  0  0  0  0  0  0
   12.0857    6.7974   -3.5656 C   0  0  0  0  0  0  0  0  0  0  0  0
   12.3323    7.8068   -2.6223 C   0  0  0  0  0  0  0  0  0  0  0  0
   12.8858    7.5049   -1.4469 F   0  0  0  0  0  0  0  0  0  0  0  0
   12.0340    9.1429   -2.8921 C   0  0  0  0  0  0  0  0  0  0  0  0
   11.4982    9.4765   -4.1362 C   0  0  0  0  0  0  0  0  0  0  0  0
    9.2868    7.0417   -7.3533 C   0  0  0  0  0  0  0  0  0  0  0  0
    9.0611    6.0736   -8.5526 C   0  0  0  0  0  0  0  0  0  0  0  0
    8.7812    4.2164  -12.8033 C   0  0  0  0  0  0  0  0  0  0  0  0
    9.6703    3.7259  -13.8916 C   0  0  0  0  0  0  0  0  0  0  0  0
    9.3413    2.5995  -14.5870 O   0  0  0  0  0  0  0  0  0  0  0  0
   10.3404    2.4122  -15.5097 C   0  0  0  0  0  0  0  0  0  0  0  0
   10.2395    1.2704  -16.4166 C   0  0  0  0  0  0  0  0  0  0  0  0
    9.0398    0.5340  -16.5407 C   0  0  0  0  0  0  0  0  0  0  0  0
    8.9481   -0.5420  -17.4469 C   0  0  0  0  0  0  0  0  0  0  0  0
   10.0601   -0.9099  -18.2254 C   0  0  0  0  0  0  0  0  0  0  0  0
   11.2633   -0.1915  -18.1039 C   0  0  0  0  0  0  0  0  0  0  0  0
   11.3480    0.8926  -17.2086 C   0  0  0  0  0  0  0  0  0  0  0  0
   11.2755    3.4065  -15.3989 C   0  0  0  0  0  0  0  0  0  0  0  0
   10.8192    4.2665  -14.3661 C   0  0  0  0  0  0  0  0  0  0  0  0
   11.2384    6.5755  -11.9969 H   0  0  0  0  0  0  0  0  0  0  0  0
    9.9160    6.9720  -13.0425 H   0  0  0  0  0  0  0  0  0  0  0  0
   10.0877    4.5975  -11.1605 H   0  0  0  0  0  0  0  0  0  0  0  0
    7.9410    6.6781  -11.6986 H   0  0  0  0  0  0  0  0  0  0  0  0
    7.6870    5.3115  -10.6740 H   0  0  0  0  0  0  0  0  0  0  0  0
   10.9300    7.2165  -10.1639 H   0  0  0  0  0  0  0  0  0  0  0  0
    9.8268    8.3247  -10.9978 H   0  0  0  0  0  0  0  0  0  0  0  0
   11.0178    9.4186   -9.1566 H   0  0  0  0  0  0  0  0  0  0  0  0
    9.3072    9.3705   -8.7981 H   0  0  0  0  0  0  0  0  0  0  0  0
   11.3789    7.3698   -7.7591 H   0  0  0  0  0  0  0  0  0  0  0  0
   11.4432    6.3508   -5.5639 H   0  0  0  0  0  0  0  0  0  0  0  0
   12.3256    5.7724   -3.3272 H   0  0  0  0  0  0  0  0  0  0  0  0
   12.2230    9.9069   -2.1522 H   0  0  0  0  0  0  0  0  0  0  0  0
   11.2855   10.5200   -4.3222 H   0  0  0  0  0  0  0  0  0  0  0  0
    9.4165    6.4572   -6.4440 H   0  0  0  0  0  0  0  0  0  0  0  0
    8.3853    7.6352   -7.1905 H   0  0  0  0  0  0  0  0  0  0  0  0
    8.1736    5.4683   -8.3632 H   0  0  0  0  0  0  0  0  0  0  0  0
    9.9020    5.3844   -8.6432 H   0  0  0  0  0  0  0  0  0  0  0  0
    7.9233    4.7088  -13.2631 H   0  0  0  0  0  0  0  0  0  0  0  0
    8.3866    3.3745  -12.2464 H   0  0  0  0  0  0  0  0  0  0  0  0
    8.1730    0.7942  -15.9499 H   0  0  0  0  0  0  0  0  0  0  0  0
    8.0217   -1.0914  -17.5354 H   0  0  0  0  0  0  0  0  0  0  0  0
    9.9890   -1.7403  -18.9120 H   0  0  0  0  0  0  0  0  0  0  0  0
   12.1222   -0.4684  -18.6975 H   0  0  0  0  0  0  0  0  0  0  0  0
   12.2821    1.4305  -17.1330 H   0  0  0  0  0  0  0  0  0  0  0  0
   12.1633    3.5193  -16.0028 H   0  0  0  0  0  0  0  0  0  0  0  0
    8.0398    7.3719   -9.6948 H   0  0  0  0  0  0  0  0  0  0  0  0
  2  1  2  0
  3  2  1  0
  4  3  1  0
  5  4  1  0
  6  5  1  0
  7  6  1  0
  8  7  1  0
  9  8  1  0
 10  9  1  0
 11 10  2  0
 12 10  1  0
 13 12  1  0
 14 13  2  0
 15 14  1  0
 16 15  1  0
 17 15  2  0
 18 12  2  0
 18 17  1  0
 19  9  1  0
 20  6  1  0
 20 19  1  0
 21  4  1  0
 22 21  1  0
 23 22  1  0
 24 23  1  0
 25 24  1  0
 26 25  2  0
 27 26  1  0
 28 27  2  0
 29 28  1  0
 30 25  1  0
 30 29  2  0
 31 24  2  0
 32  2  1  0
 32 22  2  0
 32 31  1  0
 33  3  1  0
 34  3  1  0
  4 35  1  1
 36  5  1  0
 37  5  1  0
 38  7  1  0
 39  7  1  0
 40  8  1  0
 41  8  1  0
  9 42  1  6
 43 13  1  0
 44 14  1  0
 45 17  1  0
 46 18  1  0
 47 19  1  0
 48 19  1  0
 49 20  1  0
 50 20  1  0
 51 21  1  0
 52 21  1  0
 53 26  1  0
 54 27  1  0
 55 28  1  0
 56 29  1  0
 57 30  1  0
 58 31  1  0
  6 59  1  1
M  CHG  1   6   1
M  END
>  <b_m_subgroup_collapsed>  (11) 
0

>  <r_i_docking_score>  (11) 
-10.002589722978

>  <s_m_subgroup_title>  (11) 
glide-dock_SP_D22_pv

>  <s_m_subgroupid>  (11) 
glide-dock_SP_D22_pv

>  <Molecule ChEMBL ID>  (11) 
CHEMBL494701

>  <Standard Type>  (11) 
Ki

>  <Standard Value>  (11) 
10000.0

>  <label>  (11) 
0

$$$$
CHEMBL575788
     RDKit          3D

 60 65  0  0  1  0  0  0  0  0999 V2000
   10.7592    4.2736  -13.7542 O   0  0  0  0  0  0  0  0  0  0  0  0
    9.5456    4.3977  -13.6069 C   0  0  0  0  0  0  0  0  0  0  0  0
    8.9527    5.7307  -13.1595 C   0  0  0  0  0  0  0  0  0  0  0  0
    7.8481    5.5726  -12.0959 C   0  0  2  0  0  0  0  0  0  0  0  0
    8.4021    5.0651  -10.7353 C   0  0  0  0  0  0  0  0  0  0  0  0
    8.6667    6.1494   -9.7471 N   0  0  2  0  0  0  0  0  0  0  0  0
    9.9120    6.9056  -10.0594 C   0  0  0  0  0  0  0  0  0  0  0  0
   10.2761    7.9444   -8.9878 C   0  0  0  0  0  0  0  0  0  0  0  0
   10.3363    7.3135   -7.5840 C   0  0  1  0  0  0  0  0  0  0  0  0
   10.7276    8.2934   -6.5077 C   0  0  0  0  0  0  0  0  0  0  0  0
   10.4866    9.5938   -6.6421 N   0  0  0  0  0  0  0  0  0  0  0  0
   10.9425   10.2440   -5.4619 O   0  0  0  0  0  0  0  0  0  0  0  0
   11.4388    9.3010   -4.5799 C   0  0  0  0  0  0  0  0  0  0  0  0
   11.9765    9.4171   -3.2916 C   0  0  0  0  0  0  0  0  0  0  0  0
   12.3563    8.2324   -2.6314 C   0  0  0  0  0  0  0  0  0  0  0  0
   12.8855    8.3029   -1.3904 F   0  0  0  0  0  0  0  0  0  0  0  0
   12.1878    6.9749   -3.2588 C   0  0  0  0  0  0  0  0  0  0  0  0
   11.6638    6.8879   -4.5690 C   0  0  0  0  0  0  0  0  0  0  0  0
   11.2860    8.0754   -5.2316 C   0  0  0  0  0  0  0  0  0  0  0  0
    8.9837    6.6614   -7.2972 C   0  0  0  0  0  0  0  0  0  0  0  0
    8.6711    5.6012   -8.3620 C   0  0  0  0  0  0  0  0  0  0  0  0
    6.7133    4.6745  -12.6582 C   0  0  0  0  0  0  0  0  0  0  0  0
    7.2090    3.4657  -13.4467 C   0  0  0  0  0  0  0  0  0  0  0  0
    6.3084    2.4898  -13.6775 N   0  0  0  0  0  0  0  0  0  0  0  0
    6.7339    1.3753  -14.2876 C   0  0  0  0  0  0  0  0  0  0  0  0
    5.7215    0.3512  -14.6115 C   0  0  0  0  0  0  0  0  0  0  0  0
    5.9289   -0.5320  -15.6973 C   0  0  0  0  0  0  0  0  0  0  0  0
    4.9149   -1.4177  -16.1014 C   0  0  0  0  0  0  0  0  0  0  0  0
    3.6852   -1.4276  -15.4241 C   0  0  0  0  0  0  0  0  0  0  0  0
    3.4778   -0.5920  -14.3121 C   0  0  0  0  0  0  0  0  0  0  0  0
    4.4977    0.2885  -13.9004 C   0  0  0  0  0  0  0  0  0  0  0  0
    7.9921    1.1516  -14.6816 N   0  0  0  0  0  0  0  0  0  0  0  0
    8.9039    2.1191  -14.4650 C   0  0  0  0  0  0  0  0  0  0  0  0
    8.5539    3.3352  -13.8514 C   0  0  0  0  0  0  0  0  0  0  0  0
    9.7529    6.3928  -12.8357 H   0  0  0  0  0  0  0  0  0  0  0  0
    8.5058    6.1723  -14.0483 H   0  0  0  0  0  0  0  0  0  0  0  0
    7.3974    6.5517  -11.9187 H   0  0  0  0  0  0  0  0  0  0  0  0
    7.6846    4.3785  -10.2934 H   0  0  0  0  0  0  0  0  0  0  0  0
    9.2981    4.4557  -10.8621 H   0  0  0  0  0  0  0  0  0  0  0  0
   10.7400    6.2067  -10.1752 H   0  0  0  0  0  0  0  0  0  0  0  0
    9.7935    7.4269  -11.0072 H   0  0  0  0  0  0  0  0  0  0  0  0
   11.2336    8.4046   -9.2352 H   0  0  0  0  0  0  0  0  0  0  0  0
    9.5346    8.7454   -9.0080 H   0  0  0  0  0  0  0  0  0  0  0  0
   11.0935    6.5281   -7.6042 H   0  0  0  0  0  0  0  0  0  0  0  0
   12.0838   10.3794   -2.8130 H   0  0  0  0  0  0  0  0  0  0  0  0
   12.4736    6.0734   -2.7358 H   0  0  0  0  0  0  0  0  0  0  0  0
   11.5443    5.9263   -5.0462 H   0  0  0  0  0  0  0  0  0  0  0  0
    8.9973    6.1852   -6.3159 H   0  0  0  0  0  0  0  0  0  0  0  0
    8.1971    7.4170   -7.2612 H   0  0  0  0  0  0  0  0  0  0  0  0
    7.6974    5.1669   -8.1389 H   0  0  0  0  0  0  0  0  0  0  0  0
    9.3982    4.7900   -8.2958 H   0  0  0  0  0  0  0  0  0  0  0  0
    6.1016    5.2636  -13.3421 H   0  0  0  0  0  0  0  0  0  0  0  0
    6.0384    4.3528  -11.8636 H   0  0  0  0  0  0  0  0  0  0  0  0
    6.8560   -0.5189  -16.2516 H   0  0  0  0  0  0  0  0  0  0  0  0
    5.0738   -2.0803  -16.9395 H   0  0  0  0  0  0  0  0  0  0  0  0
    2.9051   -2.1000  -15.7521 H   0  0  0  0  0  0  0  0  0  0  0  0
    2.5267   -0.6157  -13.7972 H   0  0  0  0  0  0  0  0  0  0  0  0
    4.3194    0.9550  -13.0702 H   0  0  0  0  0  0  0  0  0  0  0  0
    9.9133    1.9167  -14.7925 H   0  0  0  0  0  0  0  0  0  0  0  0
    7.8813    6.8012   -9.8030 H   0  0  0  0  0  0  0  0  0  0  0  0
  2  1  2  0
  3  2  1  0
  4  3  1  0
  5  4  1  0
  6  5  1  0
  7  6  1  0
  8  7  1  0
  9  8  1  0
 10  9  1  0
 11 10  2  0
 12 11  1  0
 13 12  1  0
 14 13  2  0
 15 14  1  0
 16 15  1  0
 17 15  2  0
 18 17  1  0
 19 10  1  0
 19 13  1  0
 19 18  2  0
 20  9  1  0
 21  6  1  0
 21 20  1  0
 22  4  1  0
 23 22  1  0
 24 23  2  0
 25 24  1  0
 26 25  1  0
 27 26  2  0
 28 27  1  0
 29 28  2  0
 30 29  1  0
 31 26  1  0
 31 30  2  0
 32 25  2  0
 33 32  1  0
 34  2  1  0
 34 23  1  0
 34 33  2  0
 35  3  1  0
 36  3  1  0
  4 37  1  1
 38  5  1  0
 39  5  1  0
 40  7  1  0
 41  7  1  0
 42  8  1  0
 43  8  1  0
  9 44  1  6
 45 14  1  0
 46 17  1  0
 47 18  1  0
 48 20  1  0
 49 20  1  0
 50 21  1  0
 51 21  1  0
 52 22  1  0
 53 22  1  0
 54 27  1  0
 55 28  1  0
 56 29  1  0
 57 30  1  0
 58 31  1  0
 59 33  1  0
  6 60  1  1
M  CHG  1   6   1
M  END
>  <b_m_subgroup_collapsed>  (12) 
0

>  <r_i_docking_score>  (12) 
-9.9819857930219698

>  <s_m_subgroup_title>  (12) 
glide-dock_SP_D22_pv

>  <s_m_subgroupid>  (12) 
glide-dock_SP_D22_pv

>  <Molecule ChEMBL ID>  (12) 
CHEMBL575788

>  <Standard Type>  (12) 
Ki

>  <Standard Value>  (12) 
33.88

>  <label>  (12) 
1

$$$$
CHEMBL4062602
     RDKit          3D

 55 59  0  0  1  0  0  0  0  0999 V2000
   11.2847    6.0608  -13.7318 O   0  0  0  0  0  0  0  0  0  0  0  0
   10.8713    5.0304  -14.2707 C   0  0  0  0  0  0  0  0  0  0  0  0
   11.7224    4.3694  -15.3606 C   0  0  0  0  0  0  0  0  0  0  0  0
   11.6892    2.9490  -15.2759 O   0  0  0  0  0  0  0  0  0  0  0  0
   10.4604    2.3767  -15.0666 C   0  0  0  0  0  0  0  0  0  0  0  0
   10.2744    1.0352  -15.4511 C   0  0  0  0  0  0  0  0  0  0  0  0
    9.0350    0.4048  -15.2447 C   0  0  0  0  0  0  0  0  0  0  0  0
    7.9817    1.1231  -14.6522 C   0  0  0  0  0  0  0  0  0  0  0  0
    8.1696    2.4587  -14.2467 C   0  0  0  0  0  0  0  0  0  0  0  0
    9.4205    3.1024  -14.4323 C   0  0  0  0  0  0  0  0  0  0  0  0
    9.6947    4.4347  -13.9578 N   0  0  0  0  0  0  0  0  0  0  0  0
    8.7776    5.1207  -13.0285 C   0  0  0  0  0  0  0  0  0  0  0  0
    9.1612    4.8377  -11.5660 C   0  0  0  0  0  0  0  0  0  0  0  0
    8.1015    5.2961  -10.5456 C   0  0  0  0  0  0  0  0  0  0  0  0
    8.5971    6.1723   -9.4488 N   0  0  2  0  0  0  0  0  0  0  0  0
    9.3057    7.4061   -9.8886 C   0  0  0  0  0  0  0  0  0  0  0  0
    9.6470    8.3178   -8.6930 C   0  0  0  0  0  0  0  0  0  0  0  0
   10.4919    7.5740   -7.6271 C   0  0  1  0  0  0  0  0  0  0  0  0
   10.8924    8.4498   -6.4448 C   0  0  0  0  0  0  0  0  0  0  0  0
   10.8856    9.7727   -6.5909 N   0  0  0  0  0  0  0  0  0  0  0  0
   11.2846   10.3645   -5.3646 O   0  0  0  0  0  0  0  0  0  0  0  0
   11.6102    9.3715   -4.4614 C   0  0  0  0  0  0  0  0  0  0  0  0
   12.0860    9.4441   -3.1444 C   0  0  0  0  0  0  0  0  0  0  0  0
   12.3803    8.2377   -2.4861 C   0  0  0  0  0  0  0  0  0  0  0  0
   12.8858    8.2684   -1.2334 F   0  0  0  0  0  0  0  0  0  0  0  0
   12.1721    7.0021   -3.1371 C   0  0  0  0  0  0  0  0  0  0  0  0
   11.6853    6.9578   -4.4638 C   0  0  0  0  0  0  0  0  0  0  0  0
   11.3808    8.1662   -5.1355 C   0  0  0  0  0  0  0  0  0  0  0  0
    9.6592    6.3525   -7.2021 C   0  0  0  0  0  0  0  0  0  0  0  0
    9.3325    5.4353   -8.3938 C   0  0  0  0  0  0  0  0  0  0  0  0
   12.7578    4.7024  -15.2728 H   0  0  0  0  0  0  0  0  0  0  0  0
   11.3615    4.6824  -16.3406 H   0  0  0  0  0  0  0  0  0  0  0  0
   11.0880    0.4889  -15.9056 H   0  0  0  0  0  0  0  0  0  0  0  0
    8.8916   -0.6258  -15.5377 H   0  0  0  0  0  0  0  0  0  0  0  0
    7.0270    0.6436  -14.4943 H   0  0  0  0  0  0  0  0  0  0  0  0
    7.3311    2.9463  -13.7777 H   0  0  0  0  0  0  0  0  0  0  0  0
    8.8049    6.1954  -13.1969 H   0  0  0  0  0  0  0  0  0  0  0  0
    7.7384    4.8668  -13.2143 H   0  0  0  0  0  0  0  0  0  0  0  0
    9.3153    3.7704  -11.4452 H   0  0  0  0  0  0  0  0  0  0  0  0
   10.1323    5.2692  -11.3599 H   0  0  0  0  0  0  0  0  0  0  0  0
    7.2649    5.7740  -11.0507 H   0  0  0  0  0  0  0  0  0  0  0  0
    7.6857    4.3953  -10.0979 H   0  0  0  0  0  0  0  0  0  0  0  0
   10.2341    7.1643  -10.4033 H   0  0  0  0  0  0  0  0  0  0  0  0
    8.6885    7.9492  -10.6053 H   0  0  0  0  0  0  0  0  0  0  0  0
   10.1889    9.1880   -9.0666 H   0  0  0  0  0  0  0  0  0  0  0  0
    8.7261    8.6958   -8.2425 H   0  0  0  0  0  0  0  0  0  0  0  0
   11.4067    7.2177   -8.1019 H   0  0  0  0  0  0  0  0  0  0  0  0
   12.2368   10.3927   -2.6505 H   0  0  0  0  0  0  0  0  0  0  0  0
   12.4047    6.0823   -2.6199 H   0  0  0  0  0  0  0  0  0  0  0  0
   11.5696    5.9973   -4.9358 H   0  0  0  0  0  0  0  0  0  0  0  0
   10.2045    5.7725   -6.4724 H   0  0  0  0  0  0  0  0  0  0  0  0
    8.7380    6.6763   -6.7131 H   0  0  0  0  0  0  0  0  0  0  0  0
    8.7269    4.5974   -8.0463 H   0  0  0  0  0  0  0  0  0  0  0  0
   10.2492    5.0128   -8.8081 H   0  0  0  0  0  0  0  0  0  0  0  0
    7.7470    6.5238   -9.0152 H   0  0  0  0  0  0  0  0  0  0  0  0
  2  1  2  0
  3  2  1  0
  4  3  1  0
  5  4  1  0
  6  5  2  0
  7  6  1  0
  8  7  2  0
  9  8  1  0
 10  5  1  0
 10  9  2  0
 11  2  1  0
 11 10  1  0
 12 11  1  0
 13 12  1  0
 14 13  1  0
 15 14  1  0
 16 15  1  0
 17 16  1  0
 18 17  1  0
 19 18  1  0
 20 19  2  0
 21 20  1  0
 22 21  1  0
 23 22  2  0
 24 23  1  0
 25 24  1  0
 26 24  2  0
 27 26  1  0
 28 19  1  0
 28 22  1  0
 28 27  2  0
 29 18  1  0
 30 15  1  0
 30 29  1  0
 31  3  1  0
 32  3  1  0
 33  6  1  0
 34  7  1  0
 35  8  1  0
 36  9  1  0
 37 12  1  0
 38 12  1  0
 39 13  1  0
 40 13  1  0
 41 14  1  0
 42 14  1  0
 43 16  1  0
 44 16  1  0
 45 17  1  0
 46 17  1  0
 18 47  1  6
 48 23  1  0
 49 26  1  0
 50 27  1  0
 51 29  1  0
 52 29  1  0
 53 30  1  0
 54 30  1  0
 15 55  1  1
M  CHG  1  15   1
M  END
>  <b_m_subgroup_collapsed>  (13) 
0

>  <r_i_docking_score>  (13) 
-9.9049038524332005

>  <s_m_subgroup_title>  (13) 
glide-dock_SP_D22_pv

>  <s_m_subgroupid>  (13) 
glide-dock_SP_D22_pv

>  <Molecule ChEMBL ID>  (13) 
CHEMBL4062602

>  <Standard Type>  (13) 
Ki

>  <Standard Value>  (13) 
3.236

>  <label>  (13) 
1

$$$$
CHEMBL3220220
     RDKit          3D

 60 65  0  0  1  0  0  0  0  0999 V2000
    9.9930    4.1874  -14.4327 O   0  0  0  0  0  0  0  0  0  0  0  0
    8.8949    4.4063  -13.9291 C   0  0  0  0  0  0  0  0  0  0  0  0
    8.5637    5.7676  -13.3060 C   0  0  0  0  0  0  0  0  0  0  0  0
    7.5955    5.6637  -12.0998 C   0  0  2  0  0  0  0  0  0  0  0  0
    8.3064    5.0510  -10.8688 C   0  0  0  0  0  0  0  0  0  0  0  0
    8.6772    6.0595   -9.8457 N   0  0  2  0  0  0  0  0  0  0  0  0
    9.7986    6.9353  -10.2860 C   0  0  0  0  0  0  0  0  0  0  0  0
   10.4897    7.6688   -9.1467 C   0  0  0  0  0  0  0  0  0  0  0  0
   10.2793    7.4406   -7.8329 C   0  0  0  0  0  0  0  0  0  0  0  0
   10.9031    8.3105   -6.8137 C   0  0  0  0  0  0  0  0  0  0  0  0
   11.2870    9.6007   -7.0471 C   0  0  0  0  0  0  0  0  0  0  0  0
   11.7205   10.1522   -5.8597 N   0  0  0  0  0  0  0  0  0  0  0  0
   11.7382    9.1999   -4.8616 C   0  0  0  0  0  0  0  0  0  0  0  0
   12.1320    9.2726   -3.5140 C   0  0  0  0  0  0  0  0  0  0  0  0
   12.1169    8.1112   -2.7321 C   0  0  0  0  0  0  0  0  0  0  0  0
   12.5200    8.1724   -1.4466 F   0  0  0  0  0  0  0  0  0  0  0  0
   11.7051    6.8913   -3.2932 C   0  0  0  0  0  0  0  0  0  0  0  0
   11.2860    6.8308   -4.6372 C   0  0  0  0  0  0  0  0  0  0  0  0
   11.2719    7.9852   -5.4576 C   0  0  0  0  0  0  0  0  0  0  0  0
    9.2220    6.4268   -7.4396 C   0  0  0  0  0  0  0  0  0  0  0  0
    8.9383    5.4062   -8.5427 C   0  0  0  0  0  0  0  0  0  0  0  0
    6.3010    4.8813  -12.4600 C   0  0  0  0  0  0  0  0  0  0  0  0
    6.6254    3.6356  -13.2268 C   0  0  0  0  0  0  0  0  0  0  0  0
    5.7511    2.5533  -13.3280 N   0  0  0  0  0  0  0  0  0  0  0  0
    6.2781    1.5634  -14.0624 C   0  0  0  0  0  0  0  0  0  0  0  0
    5.5996    0.4055  -14.4122 N   0  0  0  0  0  0  0  0  0  0  0  0
    4.2145    0.0890  -14.0890 C   0  0  0  0  0  0  0  0  0  0  0  0
    3.7517   -1.0127  -15.0371 C   0  0  0  0  0  0  0  0  0  0  0  0
    5.0400   -1.7346  -15.3884 C   0  0  0  0  0  0  0  0  0  0  0  0
    6.0835   -0.6248  -15.3254 C   0  0  0  0  0  0  0  0  0  0  0  0
    7.9117    1.8919  -14.6468 S   0  0  0  0  0  0  0  0  0  0  0  0
    7.8116    3.4434  -13.8749 C   0  0  0  0  0  0  0  0  0  0  0  0
    8.0878    6.3702  -14.0793 H   0  0  0  0  0  0  0  0  0  0  0  0
    9.4895    6.2740  -13.0312 H   0  0  0  0  0  0  0  0  0  0  0  0
    7.2785    6.6739  -11.8471 H   0  0  0  0  0  0  0  0  0  0  0  0
    9.1904    4.4796  -11.1534 H   0  0  0  0  0  0  0  0  0  0  0  0
    7.6587    4.3106  -10.4035 H   0  0  0  0  0  0  0  0  0  0  0  0
    9.4138    7.6711  -10.9920 H   0  0  0  0  0  0  0  0  0  0  0  0
   10.5513    6.3483  -10.8086 H   0  0  0  0  0  0  0  0  0  0  0  0
   11.2025    8.4202   -9.4580 H   0  0  0  0  0  0  0  0  0  0  0  0
   11.2814   10.1692   -7.9612 H   0  0  0  0  0  0  0  0  0  0  0  0
   12.0298   11.1091   -5.7755 H   0  0  0  0  0  0  0  0  0  0  0  0
   12.4730   10.1986   -3.0782 H   0  0  0  0  0  0  0  0  0  0  0  0
   11.7058    5.9963   -2.6858 H   0  0  0  0  0  0  0  0  0  0  0  0
   10.9847    5.8732   -5.0322 H   0  0  0  0  0  0  0  0  0  0  0  0
    9.5435    5.8591   -6.5728 H   0  0  0  0  0  0  0  0  0  0  0  0
    8.3142    6.9611   -7.1509 H   0  0  0  0  0  0  0  0  0  0  0  0
    9.7889    4.7304   -8.6461 H   0  0  0  0  0  0  0  0  0  0  0  0
    8.0860    4.7953   -8.2457 H   0  0  0  0  0  0  0  0  0  0  0  0
    5.7173    4.6551  -11.5682 H   0  0  0  0  0  0  0  0  0  0  0  0
    5.6641    5.5193  -13.0735 H   0  0  0  0  0  0  0  0  0  0  0  0
    4.1681   -0.2283  -13.0489 H   0  0  0  0  0  0  0  0  0  0  0  0
    3.5790    0.9721  -14.1773 H   0  0  0  0  0  0  0  0  0  0  0  0
    3.0017   -1.6634  -14.5908 H   0  0  0  0  0  0  0  0  0  0  0  0
    3.3197   -0.5741  -15.9382 H   0  0  0  0  0  0  0  0  0  0  0  0
    5.2862   -2.4893  -14.6445 H   0  0  0  0  0  0  0  0  0  0  0  0
    5.0020   -2.2283  -16.3600 H   0  0  0  0  0  0  0  0  0  0  0  0
    6.2251   -0.1814  -16.3105 H   0  0  0  0  0  0  0  0  0  0  0  0
    7.0414   -1.0156  -14.9884 H   0  0  0  0  0  0  0  0  0  0  0  0
    7.8640    6.6629   -9.7161 H   0  0  0  0  0  0  0  0  0  0  0  0
  2  1  2  0
  3  2  1  0
  4  3  1  0
  5  4  1  0
  6  5  1  0
  7  6  1  0
  8  7  1  0
  9  8  2  0
 10  9  1  0
 11 10  2  0
 12 11  1  0
 13 12  1  0
 14 13  2  0
 15 14  1  0
 16 15  1  0
 17 15  2  0
 18 17  1  0
 19 10  1  0
 19 13  1  0
 19 18  2  0
 20  9  1  0
 21  6  1  0
 21 20  1  0
 22  4  1  0
 23 22  1  0
 24 23  1  0
 25 24  2  0
 26 25  1  0
 27 26  1  0
 28 27  1  0
 29 28  1  0
 30 26  1  0
 30 29  1  0
 31 25  1  0
 32  2  1  0
 32 23  2  0
 32 31  1  0
 33  3  1  0
 34  3  1  0
  4 35  1  1
 36  5  1  0
 37  5  1  0
 38  7  1  0
 39  7  1  0
 40  8  1  0
 41 11  1  0
 42 12  1  0
 43 14  1  0
 44 17  1  0
 45 18  1  0
 46 20  1  0
 47 20  1  0
 48 21  1  0
 49 21  1  0
 50 22  1  0
 51 22  1  0
 52 27  1  0
 53 27  1  0
 54 28  1  0
 55 28  1  0
 56 29  1  0
 57 29  1  0
 58 30  1  0
 59 30  1  0
  6 60  1  1
M  CHG  1   6   1
M  END
>  <b_m_subgroup_collapsed>  (14) 
0

>  <r_i_docking_score>  (14) 
-9.8633005610397397

>  <s_m_subgroup_title>  (14) 
glide-dock_SP_D22_pv

>  <s_m_subgroupid>  (14) 
glide-dock_SP_D22_pv

>  <Molecule ChEMBL ID>  (14) 
CHEMBL3220220

>  <Standard Type>  (14) 
Ki

>  <Standard Value>  (14) 
54.95

>  <label>  (14) 
1

$$$$
CHEMBL497963
     RDKit          3D

 64 67  0  0  1  0  0  0  0  0999 V2000
   12.8352    8.7077   -1.1948 C   0  0  0  0  0  0  0  0  0  0  0  0
   12.3039    8.3212   -2.5424 C   0  0  0  0  0  0  0  0  0  0  0  0
   12.0860    6.9729   -2.8718 C   0  0  0  0  0  0  0  0  0  0  0  0
   11.6510    6.6809   -4.1730 C   0  0  0  0  0  0  0  0  0  0  0  0
   11.4769    7.7302   -5.0934 C   0  0  0  0  0  0  0  0  0  0  0  0
   11.1357    7.4589   -6.4393 C   0  0  0  0  0  0  0  0  0  0  0  0
   10.8640    6.1723   -6.8110 O   0  0  0  0  0  0  0  0  0  0  0  0
   10.4288    5.9119   -8.1377 C   0  0  0  0  0  0  0  0  0  0  0  0
    9.0012    6.4439   -8.4011 C   0  0  0  0  0  0  0  0  0  0  0  0
    8.4860    6.0942   -9.7422 N   0  0  2  0  0  0  0  0  0  0  0  0
    8.2843    4.6453   -9.9096 C   0  0  0  0  0  0  0  0  0  0  0  0
    7.3974    4.4134  -11.1262 C   0  0  0  0  0  0  0  0  0  0  0  0
    8.1060    4.8733  -12.3976 C   0  0  1  0  0  0  0  0  0  0  0  0
    7.2106    4.6354  -13.6273 C   0  0  0  0  0  0  0  0  0  0  0  0
    6.8396    3.1774  -13.8469 C   0  0  0  0  0  0  0  0  0  0  0  0
    5.6860    2.6255  -13.2519 C   0  0  0  0  0  0  0  0  0  0  0  0
    5.3703    1.2668  -13.4460 C   0  0  0  0  0  0  0  0  0  0  0  0
    6.2019    0.4551  -14.2397 C   0  0  0  0  0  0  0  0  0  0  0  0
    7.3462    1.0019  -14.8534 C   0  0  0  0  0  0  0  0  0  0  0  0
    8.1483    0.1723  -15.6409 N   0  0  0  0  0  0  0  0  0  0  0  0
    9.6408    0.5220  -16.4346 S   0  0  0  0  0  0  0  0  0  0  0  0
   10.7483    0.9418  -15.0403 C   0  0  0  0  0  0  0  0  0  0  0  0
   10.0860   -0.7441  -17.0357 O   0  0  0  0  0  0  0  0  0  0  0  0
    9.4042    1.7152  -17.2608 O   0  0  0  0  0  0  0  0  0  0  0  0
    7.6545    2.3659  -14.6580 C   0  0  0  0  0  0  0  0  0  0  0  0
    8.4741    6.3667  -12.2198 C   0  0  0  0  0  0  0  0  0  0  0  0
    9.2196    6.6656  -10.8989 C   0  0  0  0  0  0  0  0  0  0  0  0
   11.1199    8.5135   -7.3642 C   0  0  0  0  0  0  0  0  0  0  0  0
   11.3085    9.8073   -6.9175 C   0  0  0  0  0  0  0  0  0  0  0  0
   11.5565   10.0987   -5.5769 C   0  0  0  0  0  0  0  0  0  0  0  0
   11.7044    9.0595   -4.6491 C   0  0  0  0  0  0  0  0  0  0  0  0
   12.0861    9.3425   -3.3901 N   0  0  0  0  0  0  0  0  0  0  0  0
   13.1733    7.8317   -0.6469 H   0  0  0  0  0  0  0  0  0  0  0  0
   13.6860    9.3723   -1.2988 H   0  0  0  0  0  0  0  0  0  0  0  0
   12.0559    9.2301   -0.6469 H   0  0  0  0  0  0  0  0  0  0  0  0
   12.2541    6.1782   -2.1586 H   0  0  0  0  0  0  0  0  0  0  0  0
   11.4792    5.6643   -4.4716 H   0  0  0  0  0  0  0  0  0  0  0  0
   10.4436    4.8314   -8.2490 H   0  0  0  0  0  0  0  0  0  0  0  0
   11.1517    6.2869   -8.8609 H   0  0  0  0  0  0  0  0  0  0  0  0
    8.9228    7.5239   -8.2958 H   0  0  0  0  0  0  0  0  0  0  0  0
    8.3210    6.0401   -7.6493 H   0  0  0  0  0  0  0  0  0  0  0  0
    7.8454    4.2026   -9.0162 H   0  0  0  0  0  0  0  0  0  0  0  0
    9.2541    4.1723  -10.0539 H   0  0  0  0  0  0  0  0  0  0  0  0
    6.4833    4.9971  -11.0469 H   0  0  0  0  0  0  0  0  0  0  0  0
    7.0913    3.3723  -11.1613 H   0  0  0  0  0  0  0  0  0  0  0  0
    9.0241    4.2960  -12.5199 H   0  0  0  0  0  0  0  0  0  0  0  0
    7.7212    5.0006  -14.5173 H   0  0  0  0  0  0  0  0  0  0  0  0
    6.2904    5.2124  -13.5232 H   0  0  0  0  0  0  0  0  0  0  0  0
    5.0425    3.2411  -12.6399 H   0  0  0  0  0  0  0  0  0  0  0  0
    4.4861    0.8474  -12.9931 H   0  0  0  0  0  0  0  0  0  0  0  0
    5.9518   -0.5865  -14.3822 H   0  0  0  0  0  0  0  0  0  0  0  0
    7.8513   -0.7955  -15.7106 H   0  0  0  0  0  0  0  0  0  0  0  0
   11.6970    1.2700  -15.4523 H   0  0  0  0  0  0  0  0  0  0  0  0
   10.3310    1.7433  -14.4360 H   0  0  0  0  0  0  0  0  0  0  0  0
   10.8860    0.0612  -14.4165 H   0  0  0  0  0  0  0  0  0  0  0  0
    8.5163    2.8102  -15.1303 H   0  0  0  0  0  0  0  0  0  0  0  0
    9.0981    6.6867  -13.0469 H   0  0  0  0  0  0  0  0  0  0  0  0
    7.5676    6.9737  -12.2579 H   0  0  0  0  0  0  0  0  0  0  0  0
    9.3238    7.7437  -10.7699 H   0  0  0  0  0  0  0  0  0  0  0  0
   10.2254    6.2490  -10.9511 H   0  0  0  0  0  0  0  0  0  0  0  0
   10.9483    8.3843   -8.4208 H   0  0  0  0  0  0  0  0  0  0  0  0
   11.2860   10.5723   -7.6486 H   0  0  0  0  0  0  0  0  0  0  0  0
   11.6857   11.1247   -5.2872 H   0  0  0  0  0  0  0  0  0  0  0  0
    7.5628    6.5302   -9.7907 H   0  0  0  0  0  0  0  0  0  0  0  0
  2  1  1  0
  3  2  1  0
  4  3  2  0
  5  4  1  0
  6  5  2  0
  7  6  1  0
  8  7  1  0
  9  8  1  0
 10  9  1  0
 11 10  1  0
 12 11  1  0
 13 12  1  0
 14 13  1  0
 15 14  1  0
 16 15  2  0
 17 16  1  0
 18 17  2  0
 19 18  1  0
 20 19  1  0
 21 20  1  0
 22 21  1  0
 23 21  2  0
 24 21  2  0
 25 15  1  0
 25 19  2  0
 26 13  1  0
 27 10  1  0
 27 26  1  0
 28  6  1  0
 29 28  2  0
 30 29  1  0
 31  5  1  0
 31 30  2  0
 32  2  2  0
 32 31  1  0
 33  1  1  0
 34  1  1  0
 35  1  1  0
 36  3  1  0
 37  4  1  0
 38  8  1  0
 39  8  1  0
 40  9  1  0
 41  9  1  0
 42 11  1  0
 43 11  1  0
 44 12  1  0
 45 12  1  0
 13 46  1  6
 47 14  1  0
 48 14  1  0
 49 16  1  0
 50 17  1  0
 51 18  1  0
 52 20  1  0
 53 22  1  0
 54 22  1  0
 55 22  1  0
 56 25  1  0
 57 26  1  0
 58 26  1  0
 59 27  1  0
 60 27  1  0
 61 28  1  0
 62 29  1  0
 63 30  1  0
 10 64  1  1
M  CHG  1  10   1
M  END
>  <b_m_subgroup_collapsed>  (15) 
0

>  <r_i_docking_score>  (15) 
-9.8292571054804601

>  <s_m_subgroup_title>  (15) 
glide-dock_SP_D22_pv

>  <s_m_subgroupid>  (15) 
glide-dock_SP_D22_pv

>  <Molecule ChEMBL ID>  (15) 
CHEMBL497963

>  <Standard Type>  (15) 
Ki

>  <Standard Value>  (15) 
63.1

>  <label>  (15) 
1

$$$$
CHEMBL2059311
     RDKit          3D

 57 61  0  0  1  0  0  0  0  0999 V2000
   11.0534    9.3259   -8.2863 O   0  0  0  0  0  0  0  0  0  0  0  0
   11.2294    9.2354   -7.0704 C   0  0  0  0  0  0  0  0  0  0  0  0
   11.7432   10.4605   -6.3044 C   0  0  0  0  0  0  0  0  0  0  0  0
   11.2853   10.4673   -4.9635 O   0  0  0  0  0  0  0  0  0  0  0  0
   11.5589    9.3050   -4.2973 C   0  0  0  0  0  0  0  0  0  0  0  0
   11.9634    9.3662   -2.9527 C   0  0  0  0  0  0  0  0  0  0  0  0
   12.2291    8.1785   -2.2503 C   0  0  0  0  0  0  0  0  0  0  0  0
   12.0861    6.9394   -2.8975 C   0  0  0  0  0  0  0  0  0  0  0  0
   11.6859    6.8793   -4.2480 C   0  0  0  0  0  0  0  0  0  0  0  0
   11.4233    8.0656   -4.9751 C   0  0  0  0  0  0  0  0  0  0  0  0
   11.0577    8.0881   -6.3685 N   0  0  0  0  0  0  0  0  0  0  0  0
   10.6520    6.8792   -7.1132 C   0  0  0  0  0  0  0  0  0  0  0  0
    9.1745    6.9060   -7.5775 C   0  0  0  0  0  0  0  0  0  0  0  0
    8.8683    5.7419   -8.5447 C   0  0  0  0  0  0  0  0  0  0  0  0
    8.4862    6.1314   -9.9315 N   0  0  2  0  0  0  0  0  0  0  0  0
    8.2219    4.9131  -10.7402 C   0  0  0  0  0  0  0  0  0  0  0  0
    7.6167    5.2759  -12.0897 C   0  0  0  0  0  0  0  0  0  0  0  0
    8.6131    6.0947  -12.9376 C   0  0  2  0  0  0  0  0  0  0  0  0
    9.7541    5.2946  -13.4675 N   0  0  0  0  0  0  0  0  0  0  0  0
   11.0876    5.5880  -13.4471 C   0  0  0  0  0  0  0  0  0  0  0  0
   11.6327    6.5870  -12.9856 O   0  0  0  0  0  0  0  0  0  0  0  0
   11.7595    4.5922  -14.0449 N   0  0  0  0  0  0  0  0  0  0  0  0
   10.8705    3.6535  -14.5441 C   0  0  0  0  0  0  0  0  0  0  0  0
   11.1069    2.4847  -15.2835 C   0  0  0  0  0  0  0  0  0  0  0  0
    9.9829    1.7304  -15.6844 C   0  0  0  0  0  0  0  0  0  0  0  0
    8.6759    2.1758  -15.3739 C   0  0  0  0  0  0  0  0  0  0  0  0
    8.4723    3.3720  -14.6468 C   0  0  0  0  0  0  0  0  0  0  0  0
    9.6048    4.0908  -14.2100 C   0  0  0  0  0  0  0  0  0  0  0  0
    8.9711    7.3455  -12.0778 C   0  0  0  0  0  0  0  0  0  0  0  0
    9.4574    7.0057  -10.6443 C   0  0  0  0  0  0  0  0  0  0  0  0
   11.4106   11.3737   -6.7851 H   0  0  0  0  0  0  0  0  0  0  0  0
   12.8341   10.4624   -6.3155 H   0  0  0  0  0  0  0  0  0  0  0  0
   12.0764   10.3214   -2.4607 H   0  0  0  0  0  0  0  0  0  0  0  0
   12.5389    8.2224   -1.2157 H   0  0  0  0  0  0  0  0  0  0  0  0
   12.2854    6.0239   -2.3577 H   0  0  0  0  0  0  0  0  0  0  0  0
   11.6161    5.8994   -4.6889 H   0  0  0  0  0  0  0  0  0  0  0  0
   11.3037    6.7776   -7.9853 H   0  0  0  0  0  0  0  0  0  0  0  0
   10.8037    5.9602   -6.5526 H   0  0  0  0  0  0  0  0  0  0  0  0
    8.5354    6.8101   -6.6971 H   0  0  0  0  0  0  0  0  0  0  0  0
    8.8885    7.8631   -8.0148 H   0  0  0  0  0  0  0  0  0  0  0  0
    9.7142    5.0530   -8.5888 H   0  0  0  0  0  0  0  0  0  0  0  0
    8.0446    5.1646   -8.1243 H   0  0  0  0  0  0  0  0  0  0  0  0
    9.1523    4.3606  -10.8867 H   0  0  0  0  0  0  0  0  0  0  0  0
    7.5495    4.2217  -10.2451 H   0  0  0  0  0  0  0  0  0  0  0  0
    7.2723    4.3654  -12.5634 H   0  0  0  0  0  0  0  0  0  0  0  0
    6.7112    5.8634  -11.9247 H   0  0  0  0  0  0  0  0  0  0  0  0
    8.0858    6.4434  -13.8279 H   0  0  0  0  0  0  0  0  0  0  0  0
   12.7582    4.5583  -14.1896 H   0  0  0  0  0  0  0  0  0  0  0  0
   12.1053    2.1703  -15.5386 H   0  0  0  0  0  0  0  0  0  0  0  0
   10.1191    0.8179  -16.2459 H   0  0  0  0  0  0  0  0  0  0  0  0
    7.8218    1.6038  -15.7111 H   0  0  0  0  0  0  0  0  0  0  0  0
    7.4645    3.7100  -14.4795 H   0  0  0  0  0  0  0  0  0  0  0  0
    9.6766    8.0023  -12.5835 H   0  0  0  0  0  0  0  0  0  0  0  0
    8.0729    7.9551  -11.9833 H   0  0  0  0  0  0  0  0  0  0  0  0
    9.5946    7.9398  -10.1033 H   0  0  0  0  0  0  0  0  0  0  0  0
   10.4310    6.5174  -10.6666 H   0  0  0  0  0  0  0  0  0  0  0  0
    7.6167    6.6750   -9.8771 H   0  0  0  0  0  0  0  0  0  0  0  0
  2  1  2  0
  3  2  1  0
  4  3  1  0
  5  4  1  0
  6  5  2  0
  7  6  1  0
  8  7  2  0
  9  8  1  0
 10  5  1  0
 10  9  2  0
 11  2  1  0
 11 10  1  0
 12 11  1  0
 13 12  1  0
 14 13  1  0
 15 14  1  0
 16 15  1  0
 17 16  1  0
 18 17  1  0
 19 18  1  0
 20 19  1  0
 21 20  2  0
 22 20  1  0
 23 22  1  0
 24 23  2  0
 25 24  1  0
 26 25  2  0
 27 26  1  0
 28 19  1  0
 28 23  1  0
 28 27  2  0
 29 18  1  0
 30 15  1  0
 30 29  1  0
 31  3  1  0
 32  3  1  0
 33  6  1  0
 34  7  1  0
 35  8  1  0
 36  9  1  0
 37 12  1  0
 38 12  1  0
 39 13  1  0
 40 13  1  0
 41 14  1  0
 42 14  1  0
 43 16  1  0
 44 16  1  0
 45 17  1  0
 46 17  1  0
 18 47  1  6
 48 22  1  0
 49 24  1  0
 50 25  1  0
 51 26  1  0
 52 27  1  0
 53 29  1  0
 54 29  1  0
 55 30  1  0
 56 30  1  0
 15 57  1  1
M  CHG  1  15   1
M  END
>  <b_m_subgroup_collapsed>  (16) 
0

>  <r_i_docking_score>  (16) 
-9.82336556808567

>  <s_m_subgroup_title>  (16) 
glide-dock_SP_D22_pv

>  <s_m_subgroupid>  (16) 
glide-dock_SP_D22_pv

>  <Molecule ChEMBL ID>  (16) 
CHEMBL2059311

>  <Standard Type>  (16) 
Ki

>  <Standard Value>  (16) 
16.0

>  <label>  (16) 
1

$$$$
CHEMBL3220212
     RDKit          3D

 53 57  0  0  1  0  0  0  0  0999 V2000
   12.0802    9.7778   -2.9365 C   0  0  0  0  0  0  0  0  0  0  0  0
   11.7449    8.5833   -3.7700 C   0  0  0  0  0  0  0  0  0  0  0  0
   11.6864    7.3785   -3.2161 N   0  0  0  0  0  0  0  0  0  0  0  0
   11.3891    6.4735   -4.2508 O   0  0  0  0  0  0  0  0  0  0  0  0
   11.2859    7.1718   -5.4055 C   0  0  0  0  0  0  0  0  0  0  0  0
   11.5160    8.4798   -5.1661 C   0  0  0  0  0  0  0  0  0  0  0  0
   11.5425    9.4734   -6.2468 C   0  0  0  0  0  0  0  0  0  0  0  0
   11.6043   10.6867   -6.0773 O   0  0  0  0  0  0  0  0  0  0  0  0
   11.5732    8.8710   -7.6639 C   0  0  0  0  0  0  0  0  0  0  0  0
   10.8166    7.5155   -7.8434 C   0  0  2  0  0  0  0  0  0  0  0  0
    9.2934    7.7010   -8.1082 C   0  0  0  0  0  0  0  0  0  0  0  0
    8.8862    7.3618   -9.4978 N   0  0  2  0  0  0  0  0  0  0  0  0
    9.0720    5.9370   -9.8730 C   0  0  0  0  0  0  0  0  0  0  0  0
    8.3685    5.6418  -11.2025 C   0  0  0  0  0  0  0  0  0  0  0  0
    8.8447    6.5748  -12.3326 C   0  0  2  0  0  0  0  0  0  0  0  0
   10.1759    6.1682  -12.9175 C   0  0  0  0  0  0  0  0  0  0  0  0
   11.4029    6.7775  -12.7906 C   0  0  0  0  0  0  0  0  0  0  0  0
   12.3251    6.1137  -13.5786 N   0  0  0  0  0  0  0  0  0  0  0  0
   11.7267    5.0798  -14.2631 C   0  0  0  0  0  0  0  0  0  0  0  0
   12.2182    4.1618  -15.2054 C   0  0  0  0  0  0  0  0  0  0  0  0
   11.3537    3.1838  -15.7286 C   0  0  0  0  0  0  0  0  0  0  0  0
   11.8096    2.2870  -16.6338 F   0  0  0  0  0  0  0  0  0  0  0  0
   10.0120    3.1344  -15.3056 C   0  0  0  0  0  0  0  0  0  0  0  0
    9.5241    4.0734  -14.3758 C   0  0  0  0  0  0  0  0  0  0  0  0
   10.3691    5.0715  -13.8314 C   0  0  0  0  0  0  0  0  0  0  0  0
    8.7667    8.0532  -11.8932 C   0  0  0  0  0  0  0  0  0  0  0  0
    9.3952    8.3152  -10.5112 C   0  0  0  0  0  0  0  0  0  0  0  0
   11.0672    6.4918   -6.7064 C   0  0  0  0  0  0  0  0  0  0  0  0
   13.0457   10.1711   -3.2397 H   0  0  0  0  0  0  0  0  0  0  0  0
   11.3414   10.5696   -3.0620 H   0  0  0  0  0  0  0  0  0  0  0  0
   12.1358    9.5331   -1.8758 H   0  0  0  0  0  0  0  0  0  0  0  0
   12.6251    8.7216   -7.9102 H   0  0  0  0  0  0  0  0  0  0  0  0
   11.2055    9.6114   -8.3747 H   0  0  0  0  0  0  0  0  0  0  0  0
   11.2616    7.0614   -8.7252 H   0  0  0  0  0  0  0  0  0  0  0  0
    8.9894    8.7274   -7.8977 H   0  0  0  0  0  0  0  0  0  0  0  0
    8.6876    7.0971   -7.4301 H   0  0  0  0  0  0  0  0  0  0  0  0
    8.6543    5.2980   -9.0965 H   0  0  0  0  0  0  0  0  0  0  0  0
   10.1268    5.6805   -9.9608 H   0  0  0  0  0  0  0  0  0  0  0  0
    7.2939    5.7723  -11.0580 H   0  0  0  0  0  0  0  0  0  0  0  0
    8.5030    4.5960  -11.4812 H   0  0  0  0  0  0  0  0  0  0  0  0
    8.1139    6.4706  -13.1355 H   0  0  0  0  0  0  0  0  0  0  0  0
   11.7119    7.6419  -12.2241 H   0  0  0  0  0  0  0  0  0  0  0  0
   13.3135    6.3494  -13.6075 H   0  0  0  0  0  0  0  0  0  0  0  0
   13.2511    4.1941  -15.5231 H   0  0  0  0  0  0  0  0  0  0  0  0
    9.3533    2.3763  -15.7024 H   0  0  0  0  0  0  0  0  0  0  0  0
    8.4890    4.0316  -14.0722 H   0  0  0  0  0  0  0  0  0  0  0  0
    9.2097    8.7065  -12.6453 H   0  0  0  0  0  0  0  0  0  0  0  0
    7.7110    8.3397  -11.8522 H   0  0  0  0  0  0  0  0  0  0  0  0
    9.1489    9.3336  -10.2047 H   0  0  0  0  0  0  0  0  0  0  0  0
   10.4807    8.2630  -10.5557 H   0  0  0  0  0  0  0  0  0  0  0  0
   10.2527    5.7730   -6.6377 H   0  0  0  0  0  0  0  0  0  0  0  0
   11.9592    5.9122   -6.9505 H   0  0  0  0  0  0  0  0  0  0  0  0
    7.8710    7.4966   -9.5438 H   0  0  0  0  0  0  0  0  0  0  0  0
  2  1  1  0
  3  2  2  0
  4  3  1  0
  5  4  1  0
  6  2  1  0
  6  5  2  0
  7  6  1  0
  8  7  2  0
  9  7  1  0
 10  9  1  0
 11 10  1  0
 12 11  1  0
 13 12  1  0
 14 13  1  0
 15 14  1  0
 16 15  1  0
 17 16  2  0
 18 17  1  0
 19 18  1  0
 20 19  2  0
 21 20  1  0
 22 21  1  0
 23 21  2  0
 24 23  1  0
 25 16  1  0
 25 19  1  0
 25 24  2  0
 26 15  1  0
 27 12  1  0
 27 26  1  0
 28  5  1  0
 28 10  1  0
 29  1  1  0
 30  1  1  0
 31  1  1  0
 32  9  1  0
 33  9  1  0
 10 34  1  6
 35 11  1  0
 36 11  1  0
 37 13  1  0
 38 13  1  0
 39 14  1  0
 40 14  1  0
 15 41  1  6
 42 17  1  0
 43 18  1  0
 44 20  1  0
 45 23  1  0
 46 24  1  0
 47 26  1  0
 48 26  1  0
 49 27  1  0
 50 27  1  0
 51 28  1  0
 52 28  1  0
 12 53  1  1
M  CHG  1  12   1
M  END
>  <b_m_subgroup_collapsed>  (17) 
0

>  <r_i_docking_score>  (17) 
-9.7801465594321009

>  <s_m_subgroup_title>  (17) 
glide-dock_SP_D22_pv

>  <s_m_subgroupid>  (17) 
glide-dock_SP_D22_pv

>  <Molecule ChEMBL ID>  (17) 
CHEMBL3220212

>  <Standard Type>  (17) 
Ki

>  <Standard Value>  (17) 
63.1

>  <label>  (17) 
1

$$$$
CHEMBL2298817
     RDKit          3D

 53 56  0  0  1  0  0  0  0  0999 V2000
   12.3615    7.2351  -14.1385 C   0  0  0  0  0  0  0  0  0  0  0  0
   11.3684    6.5504  -13.3847 O   0  0  0  0  0  0  0  0  0  0  0  0
   10.9227    5.3269  -13.8474 C   0  0  0  0  0  0  0  0  0  0  0  0
   11.5002    4.6621  -14.9610 C   0  0  0  0  0  0  0  0  0  0  0  0
   11.0360    3.3964  -15.3656 C   0  0  0  0  0  0  0  0  0  0  0  0
    9.9818    2.7783  -14.6722 C   0  0  0  0  0  0  0  0  0  0  0  0
    9.3970    3.4310  -13.5738 C   0  0  0  0  0  0  0  0  0  0  0  0
    9.8588    4.6930  -13.1537 C   0  0  0  0  0  0  0  0  0  0  0  0
    9.2583    5.2879  -12.0345 N   0  0  0  0  0  0  0  0  0  0  0  0
    9.1496    4.5725  -10.7761 C   0  0  0  0  0  0  0  0  0  0  0  0
    9.4917    5.5024   -9.5967 C   0  0  0  0  0  0  0  0  0  0  0  0
    8.8860    6.8567   -9.7282 N   0  0  0  0  0  0  0  0  0  0  0  0
    9.1990    7.7672   -8.6074 C   0  0  0  0  0  0  0  0  0  0  0  0
   10.6621    8.2511   -8.6127 C   0  0  0  0  0  0  0  0  0  0  0  0
   10.9678    9.1800   -7.4434 C   0  0  0  0  0  0  0  0  0  0  0  0
   11.2807    8.5450   -6.1109 C   0  0  0  0  0  0  0  0  0  0  0  0
   11.1224    7.1620   -5.8689 C   0  0  0  0  0  0  0  0  0  0  0  0
   11.4099    6.6325   -4.6006 C   0  0  0  0  0  0  0  0  0  0  0  0
   11.8565    7.4616   -3.5580 C   0  0  0  0  0  0  0  0  0  0  0  0
   12.1556    7.1547   -2.2469 N   0  0  0  0  0  0  0  0  0  0  0  0
   12.4861    8.3476   -1.7663 C   0  0  0  0  0  0  0  0  0  0  0  0
   12.4643    9.3723   -2.6251 N   0  0  0  0  0  0  0  0  0  0  0  0
   12.0226    8.8510   -3.8254 C   0  0  0  0  0  0  0  0  0  0  0  0
   11.7404    9.3936   -5.0850 C   0  0  0  0  0  0  0  0  0  0  0  0
    9.0417    7.4829  -11.0672 C   0  0  0  0  0  0  0  0  0  0  0  0
    8.5297    6.5349  -12.1471 C   0  0  0  0  0  0  0  0  0  0  0  0
   12.6100    8.1722  -13.6422 H   0  0  0  0  0  0  0  0  0  0  0  0
   13.2849    6.6610  -14.2238 H   0  0  0  0  0  0  0  0  0  0  0  0
   11.9995    7.4768  -15.1387 H   0  0  0  0  0  0  0  0  0  0  0  0
   12.3142    5.0960  -15.5208 H   0  0  0  0  0  0  0  0  0  0  0  0
   11.4914    2.8990  -16.2095 H   0  0  0  0  0  0  0  0  0  0  0  0
    9.6211    1.8078  -14.9807 H   0  0  0  0  0  0  0  0  0  0  0  0
    8.5769    2.9723  -13.0473 H   0  0  0  0  0  0  0  0  0  0  0  0
    8.1366    4.1782  -10.6774 H   0  0  0  0  0  0  0  0  0  0  0  0
    9.8374    3.7287  -10.7752 H   0  0  0  0  0  0  0  0  0  0  0  0
    9.1797    5.0415   -8.6586 H   0  0  0  0  0  0  0  0  0  0  0  0
   10.5712    5.6073   -9.5462 H   0  0  0  0  0  0  0  0  0  0  0  0
    8.5293    8.6267   -8.6705 H   0  0  0  0  0  0  0  0  0  0  0  0
    8.9440    7.2715   -7.6708 H   0  0  0  0  0  0  0  0  0  0  0  0
   11.3871    7.4391   -8.6465 H   0  0  0  0  0  0  0  0  0  0  0  0
   10.8307    8.8343   -9.5174 H   0  0  0  0  0  0  0  0  0  0  0  0
   11.8357    9.7723   -7.7084 H   0  0  0  0  0  0  0  0  0  0  0  0
   10.1255    9.8442   -7.2820 H   0  0  0  0  0  0  0  0  0  0  0  0
   10.7811    6.4840   -6.6352 H   0  0  0  0  0  0  0  0  0  0  0  0
   11.2776    5.5854   -4.4078 H   0  0  0  0  0  0  0  0  0  0  0  0
   12.8016    8.4751   -0.7433 H   0  0  0  0  0  0  0  0  0  0  0  0
   12.7407   10.3198   -2.3894 H   0  0  0  0  0  0  0  0  0  0  0  0
   11.8641   10.4511   -5.2643 H   0  0  0  0  0  0  0  0  0  0  0  0
    8.4864    8.4215  -11.1068 H   0  0  0  0  0  0  0  0  0  0  0  0
   10.0879    7.7142  -11.2672 H   0  0  0  0  0  0  0  0  0  0  0  0
    8.6264    6.9723  -13.1304 H   0  0  0  0  0  0  0  0  0  0  0  0
    7.4660    6.3401  -12.0010 H   0  0  0  0  0  0  0  0  0  0  0  0
    7.8767    6.7372   -9.6709 H   0  0  0  0  0  0  0  0  0  0  0  0
  2  1  1  0
  3  2  1  0
  4  3  2  0
  5  4  1  0
  6  5  2  0
  7  6  1  0
  8  3  1  0
  8  7  2  0
  9  8  1  0
 10  9  1  0
 11 10  1  0
 12 11  1  0
 13 12  1  0
 14 13  1  0
 15 14  1  0
 16 15  1  0
 17 16  2  0
 18 17  1  0
 19 18  2  0
 20 19  1  0
 21 20  2  0
 22 21  1  0
 23 19  1  0
 23 22  1  0
 24 16  1  0
 24 23  2  0
 25 12  1  0
 26  9  1  0
 26 25  1  0
 27  1  1  0
 28  1  1  0
 29  1  1  0
 30  4  1  0
 31  5  1  0
 32  6  1  0
 33  7  1  0
 34 10  1  0
 35 10  1  0
 36 11  1  0
 37 11  1  0
 38 13  1  0
 39 13  1  0
 40 14  1  0
 41 14  1  0
 42 15  1  0
 43 15  1  0
 44 17  1  0
 45 18  1  0
 46 21  1  0
 47 22  1  0
 48 24  1  0
 49 25  1  0
 50 25  1  0
 51 26  1  0
 52 26  1  0
 53 12  1  0
M  CHG  1  12   1
M  END
>  <b_m_subgroup_collapsed>  (18) 
0

>  <r_i_docking_score>  (18) 
-9.7287741183850596

>  <s_m_subgroup_title>  (18) 
glide-dock_SP_D22_pv

>  <s_m_subgroupid>  (18) 
glide-dock_SP_D22_pv

>  <Molecule ChEMBL ID>  (18) 
CHEMBL2298817

>  <Standard Type>  (18) 
Ki

>  <Standard Value>  (18) 
97.0

>  <label>  (18) 
1

$$$$
CHEMBL5790487
     RDKit          3D

 57 61  0  0  1  0  0  0  0  0999 V2000
    5.3677   -0.3915  -14.7214 C   0  0  0  0  0  0  0  0  0  0  0  0
    5.0927    0.6016  -13.7428 O   0  0  0  0  0  0  0  0  0  0  0  0
    5.9413    1.6861  -13.6624 C   0  0  0  0  0  0  0  0  0  0  0  0
    5.6673    2.6427  -12.6534 C   0  0  0  0  0  0  0  0  0  0  0  0
    6.4854    3.7729  -12.4423 C   0  0  0  0  0  0  0  0  0  0  0  0
    7.6465    3.9155  -13.2302 C   0  0  0  0  0  0  0  0  0  0  0  0
    8.7474    4.7964  -13.1358 C   0  0  0  0  0  0  0  0  0  0  0  0
    9.1662    5.7533  -12.0490 C   0  0  1  0  0  0  0  0  0  0  0  0
    8.4466    7.1088  -12.0689 C   0  0  0  0  0  0  0  0  0  0  0  0
    9.0526    8.0325  -10.9862 C   0  0  0  0  0  0  0  0  0  0  0  0
    8.8862    7.4070   -9.6505 N   0  0  2  0  0  0  0  0  0  0  0  0
    9.1868    8.2684   -8.4780 C   0  0  0  0  0  0  0  0  0  0  0  0
   10.6910    8.5821   -8.2867 C   0  0  0  0  0  0  0  0  0  0  0  0
   11.1031    8.3120   -6.9024 N   0  0  0  0  0  0  0  0  0  0  0  0
   11.4688    6.9034   -6.6981 C   0  0  0  0  0  0  0  0  0  0  0  0
   11.3186    6.4208   -5.2589 C   0  0  0  0  0  0  0  0  0  0  0  0
   11.7166    7.4498   -4.2465 C   0  0  0  0  0  0  0  0  0  0  0  0
   12.1603    7.0454   -2.9740 C   0  0  0  0  0  0  0  0  0  0  0  0
   12.4835    8.0357   -2.0394 C   0  0  0  0  0  0  0  0  0  0  0  0
   12.2900    9.3725   -2.4096 C   0  0  0  0  0  0  0  0  0  0  0  0
   11.8756    9.7715   -3.6314 N   0  0  0  0  0  0  0  0  0  0  0  0
   11.6198    8.8224   -4.5594 C   0  0  0  0  0  0  0  0  0  0  0  0
   11.1705    9.2635   -5.9356 C   0  0  0  0  0  0  0  0  0  0  0  0
   10.8917   10.4411   -6.1470 O   0  0  0  0  0  0  0  0  0  0  0  0
    9.4772    6.0452   -9.5498 C   0  0  0  0  0  0  0  0  0  0  0  0
    8.9985    5.1148  -10.6605 C   0  0  0  0  0  0  0  0  0  0  0  0
    9.5909    4.5314  -14.1329 N   0  0  0  0  0  0  0  0  0  0  0  0
    9.0701    3.4136  -14.8406 O   0  0  0  0  0  0  0  0  0  0  0  0
    7.8867    2.9966  -14.2516 C   0  0  0  0  0  0  0  0  0  0  0  0
    7.0618    1.8908  -14.5098 C   0  0  0  0  0  0  0  0  0  0  0  0
    4.6212   -1.1831  -14.6508 H   0  0  0  0  0  0  0  0  0  0  0  0
    5.3206    0.0209  -15.7307 H   0  0  0  0  0  0  0  0  0  0  0  0
    6.3458   -0.8484  -14.5642 H   0  0  0  0  0  0  0  0  0  0  0  0
    4.8433    2.4779  -11.9861 H   0  0  0  0  0  0  0  0  0  0  0  0
    6.2440    4.4644  -11.6505 H   0  0  0  0  0  0  0  0  0  0  0  0
   10.2309    5.9555  -12.1808 H   0  0  0  0  0  0  0  0  0  0  0  0
    8.4861    7.5794  -13.0469 H   0  0  0  0  0  0  0  0  0  0  0  0
    7.3845    6.9519  -11.8828 H   0  0  0  0  0  0  0  0  0  0  0  0
    8.5340    8.9923  -11.0009 H   0  0  0  0  0  0  0  0  0  0  0  0
   10.1062    8.2304  -11.1859 H   0  0  0  0  0  0  0  0  0  0  0  0
    8.7731    7.7771   -7.5954 H   0  0  0  0  0  0  0  0  0  0  0  0
    8.6270    9.2011   -8.5673 H   0  0  0  0  0  0  0  0  0  0  0  0
   10.8811    9.6234   -8.5542 H   0  0  0  0  0  0  0  0  0  0  0  0
   11.3319    8.0191   -8.9655 H   0  0  0  0  0  0  0  0  0  0  0  0
   12.4855    6.7479   -7.0474 H   0  0  0  0  0  0  0  0  0  0  0  0
   10.8709    6.2422   -7.3149 H   0  0  0  0  0  0  0  0  0  0  0  0
   11.9326    5.5377   -5.1183 H   0  0  0  0  0  0  0  0  0  0  0  0
   10.2767    6.1722   -5.0603 H   0  0  0  0  0  0  0  0  0  0  0  0
   12.2510    5.9996   -2.7179 H   0  0  0  0  0  0  0  0  0  0  0  0
   12.8367    7.7884   -1.0499 H   0  0  0  0  0  0  0  0  0  0  0  0
   12.4815   10.1549   -1.6934 H   0  0  0  0  0  0  0  0  0  0  0  0
   10.5634    6.0945   -9.5917 H   0  0  0  0  0  0  0  0  0  0  0  0
    9.1995    5.6023   -8.5927 H   0  0  0  0  0  0  0  0  0  0  0  0
    9.5510    4.1758  -10.6120 H   0  0  0  0  0  0  0  0  0  0  0  0
    7.9581    4.8710  -10.4600 H   0  0  0  0  0  0  0  0  0  0  0  0
    7.3269    1.2087  -15.3023 H   0  0  0  0  0  0  0  0  0  0  0  0
    7.8685    7.3018   -9.6225 H   0  0  0  0  0  0  0  0  0  0  0  0
  2  1  1  0
  3  2  1  0
  4  3  2  0
  5  4  1  0
  6  5  2  0
  7  6  1  0
  8  7  1  0
  9  8  1  0
 10  9  1  0
 11 10  1  0
 12 11  1  0
 13 12  1  0
 14 13  1  0
 15 14  1  0
 16 15  1  0
 17 16  1  0
 18 17  1  0
 19 18  2  0
 20 19  1  0
 21 20  2  0
 22 17  2  0
 22 21  1  0
 23 14  1  0
 23 22  1  0
 24 23  2  0
 25 11  1  0
 26  8  1  0
 26 25  1  0
 27  7  2  0
 28 27  1  0
 29  6  1  0
 29 28  1  0
 30  3  1  0
 30 29  2  0
 31  1  1  0
 32  1  1  0
 33  1  1  0
 34  4  1  0
 35  5  1  0
  8 36  1  6
 37  9  1  0
 38  9  1  0
 39 10  1  0
 40 10  1  0
 41 12  1  0
 42 12  1  0
 43 13  1  0
 44 13  1  0
 45 15  1  0
 46 15  1  0
 47 16  1  0
 48 16  1  0
 49 18  1  0
 50 19  1  0
 51 20  1  0
 52 25  1  0
 53 25  1  0
 54 26  1  0
 55 26  1  0
 56 30  1  0
 11 57  1  1
M  CHG  1  11   1
M  END
>  <b_m_subgroup_collapsed>  (19) 
0

>  <r_i_docking_score>  (19) 
-9.7192173884187891

>  <s_m_subgroup_title>  (19) 
glide-dock_SP_D22_pv

>  <s_m_subgroupid>  (19) 
glide-dock_SP_D22_pv

>  <Molecule ChEMBL ID>  (19) 
CHEMBL5790487

>  <Standard Type>  (19) 
Ki

>  <Standard Value>  (19) 
10000.0

>  <label>  (19) 
0

$$$$
CHEMBL5931021
     RDKit          3D

 61 64  0  0  1  0  0  0  0  0999 V2000
    4.5992   -2.1139  -16.0773 C   0  0  0  0  0  0  0  0  0  0  0  0
    5.4209   -0.9431  -15.7604 N   0  0  0  0  0  0  0  0  0  0  0  0
    6.4284   -0.5823  -16.7665 C   0  0  0  0  0  0  0  0  0  0  0  0
    7.6640    0.1047  -16.1618 C   0  0  0  0  0  0  0  0  0  0  0  0
    7.2645    1.1517  -15.1469 C   0  0  0  0  0  0  0  0  0  0  0  0
    8.0441    2.3111  -14.9809 C   0  0  0  0  0  0  0  0  0  0  0  0
    7.6399    3.3070  -14.0745 C   0  0  0  0  0  0  0  0  0  0  0  0
    6.4703    3.1404  -13.2927 C   0  0  0  0  0  0  0  0  0  0  0  0
    6.0248    4.0528  -12.3551 O   0  0  0  0  0  0  0  0  0  0  0  0
    6.8612    5.1535  -12.0042 C   0  0  0  0  0  0  0  0  0  0  0  0
    8.0551    4.6967  -11.1382 C   0  0  0  0  0  0  0  0  0  0  0  0
    9.1130    5.7888  -10.8890 C   0  0  0  0  0  0  0  0  0  0  0  0
    8.8858    6.5932   -9.6622 N   0  0  2  0  0  0  0  0  0  0  0  0
    9.4877    7.9472   -9.7544 C   0  0  0  0  0  0  0  0  0  0  0  0
    9.1435    8.8134   -8.5237 C   0  0  0  0  0  0  0  0  0  0  0  0
    9.4585    8.1233   -7.1784 C   0  0  2  0  0  0  0  0  0  0  0  0
   10.9529    8.1122   -6.8399 C   0  0  0  0  0  0  0  0  0  0  0  0
   11.8029    7.9713   -7.7195 O   0  0  0  0  0  0  0  0  0  0  0  0
   11.2867    8.2239   -5.4089 C   0  0  0  0  0  0  0  0  0  0  0  0
   11.2872    9.4887   -4.7859 C   0  0  0  0  0  0  0  0  0  0  0  0
   11.6861    9.6031   -3.4427 C   0  0  0  0  0  0  0  0  0  0  0  0
   12.0941    8.4623   -2.7254 C   0  0  0  0  0  0  0  0  0  0  0  0
   12.5039    8.5786   -1.4452 F   0  0  0  0  0  0  0  0  0  0  0  0
   12.0901    7.1973   -3.3428 C   0  0  0  0  0  0  0  0  0  0  0  0
   11.6860    7.0783   -4.6857 C   0  0  0  0  0  0  0  0  0  0  0  0
    8.8837    6.6947   -7.1538 C   0  0  0  0  0  0  0  0  0  0  0  0
    9.2642    5.8829   -8.4088 C   0  0  0  0  0  0  0  0  0  0  0  0
    5.7107    1.9604  -13.4472 C   0  0  0  0  0  0  0  0  0  0  0  0
    6.0851    0.9726  -14.3908 C   0  0  0  0  0  0  0  0  0  0  0  0
    5.2002   -0.2281  -14.6325 C   0  0  0  0  0  0  0  0  0  0  0  0
    4.2882   -0.4944  -13.8468 O   0  0  0  0  0  0  0  0  0  0  0  0
    3.5368   -1.9157  -15.9133 H   0  0  0  0  0  0  0  0  0  0  0  0
    4.7040   -2.4280  -17.1161 H   0  0  0  0  0  0  0  0  0  0  0  0
    4.8872   -2.9573  -15.4478 H   0  0  0  0  0  0  0  0  0  0  0  0
    6.7455   -1.4542  -17.3401 H   0  0  0  0  0  0  0  0  0  0  0  0
    5.9500    0.0967  -17.4720 H   0  0  0  0  0  0  0  0  0  0  0  0
    8.2745    0.5471  -16.9498 H   0  0  0  0  0  0  0  0  0  0  0  0
    8.2904   -0.6263  -15.6508 H   0  0  0  0  0  0  0  0  0  0  0  0
    8.9425    2.4511  -15.5633 H   0  0  0  0  0  0  0  0  0  0  0  0
    8.2578    4.1877  -13.9953 H   0  0  0  0  0  0  0  0  0  0  0  0
    6.2437    5.8503  -11.4413 H   0  0  0  0  0  0  0  0  0  0  0  0
    7.1748    5.7043  -12.8909 H   0  0  0  0  0  0  0  0  0  0  0  0
    8.5691    3.8848  -11.6522 H   0  0  0  0  0  0  0  0  0  0  0  0
    7.6882    4.2551  -10.2144 H   0  0  0  0  0  0  0  0  0  0  0  0
    9.1697    6.4337  -11.7663 H   0  0  0  0  0  0  0  0  0  0  0  0
   10.0878    5.3159  -10.8099 H   0  0  0  0  0  0  0  0  0  0  0  0
    9.1042    8.4492  -10.6439 H   0  0  0  0  0  0  0  0  0  0  0  0
   10.5665    7.8619   -9.8921 H   0  0  0  0  0  0  0  0  0  0  0  0
    8.0861    9.0659   -8.5403 H   0  0  0  0  0  0  0  0  0  0  0  0
    9.6607    9.7706   -8.5938 H   0  0  0  0  0  0  0  0  0  0  0  0
    8.9694    8.6963   -6.3898 H   0  0  0  0  0  0  0  0  0  0  0  0
   10.9975   10.3727   -5.3372 H   0  0  0  0  0  0  0  0  0  0  0  0
   11.6936   10.5697   -2.9612 H   0  0  0  0  0  0  0  0  0  0  0  0
   12.4018    6.3230   -2.7919 H   0  0  0  0  0  0  0  0  0  0  0  0
   11.7021    6.1087   -5.1636 H   0  0  0  0  0  0  0  0  0  0  0  0
    9.2225    6.1719   -6.2598 H   0  0  0  0  0  0  0  0  0  0  0  0
    7.8026    6.7317   -7.0468 H   0  0  0  0  0  0  0  0  0  0  0  0
    8.7666    4.9149   -8.3595 H   0  0  0  0  0  0  0  0  0  0  0  0
   10.3362    5.6764   -8.4160 H   0  0  0  0  0  0  0  0  0  0  0  0
    4.8127    1.8367  -12.8584 H   0  0  0  0  0  0  0  0  0  0  0  0
    7.8829    6.7783   -9.6287 H   0  0  0  0  0  0  0  0  0  0  0  0
  2  1  1  0
  3  2  1  0
  4  3  1  0
  5  4  1  0
  6  5  1  0
  7  6  2  0
  8  7  1  0
  9  8  1  0
 10  9  1  0
 11 10  1  0
 12 11  1  0
 13 12  1  0
 14 13  1  0
 15 14  1  0
 16 15  1  0
 17 16  1  0
 18 17  2  0
 19 17  1  0
 20 19  1  0
 21 20  2  0
 22 21  1  0
 23 22  1  0
 24 22  2  0
 25 19  2  0
 25 24  1  0
 26 16  1  0
 27 13  1  0
 27 26  1  0
 28  8  2  0
 29  5  2  0
 29 28  1  0
 30  2  1  0
 30 29  1  0
 31 30  2  0
 32  1  1  0
 33  1  1  0
 34  1  1  0
 35  3  1  0
 36  3  1  0
 37  4  1  0
 38  4  1  0
 39  6  1  0
 40  7  1  0
 41 10  1  0
 42 10  1  0
 43 11  1  0
 44 11  1  0
 45 12  1  0
 46 12  1  0
 47 14  1  0
 48 14  1  0
 49 15  1  0
 50 15  1  0
 16 51  1  1
 52 20  1  0
 53 21  1  0
 54 24  1  0
 55 25  1  0
 56 26  1  0
 57 26  1  0
 58 27  1  0
 59 27  1  0
 60 28  1  0
 13 61  1  1
M  CHG  1  13   1
M  END
>  <b_m_subgroup_collapsed>  (20) 
0

>  <r_i_docking_score>  (20) 
-9.7106540967174393

>  <s_m_subgroup_title>  (20) 
glide-dock_SP_D22_pv

>  <s_m_subgroupid>  (20) 
glide-dock_SP_D22_pv

>  <Molecule ChEMBL ID>  (20) 
CHEMBL5931021

>  <Standard Type>  (20) 
Ki

>  <Standard Value>  (20) 
32.8

>  <label>  (20) 
1

$$$$
CHEMBL85
     RDKit          3D

 58 62  0  0  1  0  0  0  0  0999 V2000
    5.3527    3.6746  -12.6530 C   0  0  0  0  0  0  0  0  0  0  0  0
    6.7374    3.6076  -13.2660 C   0  0  0  0  0  0  0  0  0  0  0  0
    6.9166    2.6076  -14.2293 N   0  0  0  0  0  0  0  0  0  0  0  0
    8.0928    2.4216  -14.7320 C   0  0  0  0  0  0  0  0  0  0  0  0
    9.1988    3.2391  -14.4147 N   0  0  0  0  0  0  0  0  0  0  0  0
    9.0932    4.2433  -13.4988 C   0  0  0  0  0  0  0  0  0  0  0  0
   10.0492    4.9686  -13.2137 O   0  0  0  0  0  0  0  0  0  0  0  0
    7.7704    4.4002  -12.8627 C   0  0  0  0  0  0  0  0  0  0  0  0
    7.6614    5.4500  -11.7575 C   0  0  0  0  0  0  0  0  0  0  0  0
    8.3638    4.9897  -10.4603 C   0  0  0  0  0  0  0  0  0  0  0  0
    8.6106    6.1091   -9.5050 N   0  0  2  0  0  0  0  0  0  0  0  0
    9.8508    6.8608   -9.8591 C   0  0  0  0  0  0  0  0  0  0  0  0
   10.2326    7.9441   -8.8293 C   0  0  0  0  0  0  0  0  0  0  0  0
   10.3204    7.3535   -7.4075 C   0  0  1  0  0  0  0  0  0  0  0  0
   10.7891    8.3345   -6.3551 C   0  0  0  0  0  0  0  0  0  0  0  0
   10.6498    9.6488   -6.5129 N   0  0  0  0  0  0  0  0  0  0  0  0
   11.1337   10.2814   -5.3337 O   0  0  0  0  0  0  0  0  0  0  0  0
   11.5578    9.3212   -4.4324 C   0  0  0  0  0  0  0  0  0  0  0  0
   12.0852    9.4183   -3.1353 C   0  0  0  0  0  0  0  0  0  0  0  0
   12.3875    8.2223   -2.4613 C   0  0  0  0  0  0  0  0  0  0  0  0
   12.8857    8.2730   -1.2073 F   0  0  0  0  0  0  0  0  0  0  0  0
   12.1645    6.9721   -3.0844 C   0  0  0  0  0  0  0  0  0  0  0  0
   11.6473    6.9003   -4.3990 C   0  0  0  0  0  0  0  0  0  0  0  0
   11.3361    8.0996   -5.0738 C   0  0  0  0  0  0  0  0  0  0  0  0
    8.9569    6.7360   -7.0804 C   0  0  0  0  0  0  0  0  0  0  0  0
    8.6377    5.6242   -8.0980 C   0  0  0  0  0  0  0  0  0  0  0  0
   10.4557    3.0002  -15.1508 C   0  0  0  0  0  0  0  0  0  0  0  0
   10.8784    1.5262  -15.0716 C   0  0  0  0  0  0  0  0  0  0  0  0
    9.7145    0.5528  -15.3226 C   0  0  0  0  0  0  0  0  0  0  0  0
    8.4033    1.2720  -15.6870 C   0  0  0  0  0  0  0  0  0  0  0  0
    4.8864    4.6309  -12.8818 H   0  0  0  0  0  0  0  0  0  0  0  0
    4.7063    2.8906  -13.0482 H   0  0  0  0  0  0  0  0  0  0  0  0
    5.4019    3.5440  -11.5708 H   0  0  0  0  0  0  0  0  0  0  0  0
    6.6201    5.6937  -11.5415 H   0  0  0  0  0  0  0  0  0  0  0  0
    8.0967    6.3791  -12.1258 H   0  0  0  0  0  0  0  0  0  0  0  0
    9.3175    4.5106  -10.6805 H   0  0  0  0  0  0  0  0  0  0  0  0
    7.7663    4.1866  -10.0132 H   0  0  0  0  0  0  0  0  0  0  0  0
    9.7312    7.3229  -10.8386 H   0  0  0  0  0  0  0  0  0  0  0  0
   10.6868    6.1682   -9.9426 H   0  0  0  0  0  0  0  0  0  0  0  0
    9.4935    8.7489   -8.8579 H   0  0  0  0  0  0  0  0  0  0  0  0
   11.1869    8.3939   -9.1130 H   0  0  0  0  0  0  0  0  0  0  0  0
   11.0538    6.5469   -7.4370 H   0  0  0  0  0  0  0  0  0  0  0  0
   12.2324   10.3716   -2.6520 H   0  0  0  0  0  0  0  0  0  0  0  0
   12.3952    6.0603   -2.5524 H   0  0  0  0  0  0  0  0  0  0  0  0
   11.4862    5.9433   -4.8694 H   0  0  0  0  0  0  0  0  0  0  0  0
    8.9789    6.3126   -6.0767 H   0  0  0  0  0  0  0  0  0  0  0  0
    8.1764    7.4975   -7.0727 H   0  0  0  0  0  0  0  0  0  0  0  0
    7.6854    5.1764   -7.8449 H   0  0  0  0  0  0  0  0  0  0  0  0
    9.3747    4.8295   -8.0087 H   0  0  0  0  0  0  0  0  0  0  0  0
   10.3013    3.2821  -16.1911 H   0  0  0  0  0  0  0  0  0  0  0  0
   11.2835    3.6203  -14.8058 H   0  0  0  0  0  0  0  0  0  0  0  0
   11.6864    1.3435  -15.7802 H   0  0  0  0  0  0  0  0  0  0  0  0
   11.2859    1.3375  -14.0781 H   0  0  0  0  0  0  0  0  0  0  0  0
    9.9806   -0.1588  -16.1057 H   0  0  0  0  0  0  0  0  0  0  0  0
    9.5556   -0.0444  -14.4242 H   0  0  0  0  0  0  0  0  0  0  0  0
    7.5835    0.5545  -15.6815 H   0  0  0  0  0  0  0  0  0  0  0  0
    8.4587    1.6677  -16.7013 H   0  0  0  0  0  0  0  0  0  0  0  0
    7.8217    6.7517   -9.5852 H   0  0  0  0  0  0  0  0  0  0  0  0
  2  1  1  0
  3  2  1  0
  4  3  2  0
  5  4  1  0
  6  5  1  0
  7  6  2  0
  8  2  2  0
  8  6  1  0
  9  8  1  0
 10  9  1  0
 11 10  1  0
 12 11  1  0
 13 12  1  0
 14 13  1  0
 15 14  1  0
 16 15  2  0
 17 16  1  0
 18 17  1  0
 19 18  2  0
 20 19  1  0
 21 20  1  0
 22 20  2  0
 23 22  1  0
 24 15  1  0
 24 18  1  0
 24 23  2  0
 25 14  1  0
 26 11  1  0
 26 25  1  0
 27  5  1  0
 28 27  1  0
 29 28  1  0
 30  4  1  0
 30 29  1  0
 31  1  1  0
 32  1  1  0
 33  1  1  0
 34  9  1  0
 35  9  1  0
 36 10  1  0
 37 10  1  0
 38 12  1  0
 39 12  1  0
 40 13  1  0
 41 13  1  0
 14 42  1  6
 43 19  1  0
 44 22  1  0
 45 23  1  0
 46 25  1  0
 47 25  1  0
 48 26  1  0
 49 26  1  0
 50 27  1  0
 51 27  1  0
 52 28  1  0
 53 28  1  0
 54 29  1  0
 55 29  1  0
 56 30  1  0
 57 30  1  0
 11 58  1  1
M  CHG  1  11   1
M  END
>  <b_m_subgroup_collapsed>  (21) 
0

>  <r_i_docking_score>  (21) 
-9.6979513335167198

>  <s_m_subgroup_title>  (21) 
glide-dock_SP_D22_pv

>  <s_m_subgroupid>  (21) 
glide-dock_SP_D22_pv

>  <Molecule ChEMBL ID>  (21) 
CHEMBL85

>  <Standard Type>  (21) 
Ki

>  <Standard Value>  (21) 
0.44

>  <label>  (21) 
1

$$$$
CHEMBL422618
     RDKit          3D

 62 66  0  0  1  0  0  0  0  0999 V2000
    5.2957   -2.3389  -16.2065 C   0  0  0  0  0  0  0  0  0  0  0  0
    5.1189   -1.1453  -15.2890 C   0  0  0  0  0  0  0  0  0  0  0  0
    3.8641   -0.9164  -14.7103 C   0  0  0  0  0  0  0  0  0  0  0  0
    3.6980    0.1722  -13.8473 C   0  0  0  0  0  0  0  0  0  0  0  0
    4.7668    1.0455  -13.5587 C   0  0  0  0  0  0  0  0  0  0  0  0
    6.0180    0.9260  -14.2188 C   0  0  0  0  0  0  0  0  0  0  0  0
    7.2412    1.6988  -14.3588 C   0  0  0  0  0  0  0  0  0  0  0  0
    7.5929    3.0586  -13.8469 C   0  0  0  0  0  0  0  0  0  0  0  0
    6.7947    3.7725  -13.0214 C   0  0  0  0  0  0  0  0  0  0  0  0
    7.1433    5.1264  -12.4059 C   0  0  0  0  0  0  0  0  0  0  0  0
    8.5827    5.4751  -12.5603 N   0  0  2  0  0  0  0  0  0  0  0  0
    8.8922    6.8712  -12.1482 C   0  0  0  0  0  0  0  0  0  0  0  0
    9.1658    7.0213  -10.6455 C   0  0  0  0  0  0  0  0  0  0  0  0
    9.3119    8.5052  -10.2499 C   0  0  0  0  0  0  0  0  0  0  0  0
    9.5406    8.7067   -8.7459 C   0  0  0  0  0  0  0  0  0  0  0  0
   11.0368    8.7713   -8.3938 C   0  0  0  0  0  0  0  0  0  0  0  0
   11.2629    8.5676   -6.9626 N   0  0  0  0  0  0  0  0  0  0  0  0
   11.5157    9.5483   -6.0563 C   0  0  0  0  0  0  0  0  0  0  0  0
   11.6072   10.7588   -6.2451 O   0  0  0  0  0  0  0  0  0  0  0  0
   11.6851    8.8672   -4.7477 C   0  0  0  0  0  0  0  0  0  0  0  0
   11.9583    9.3783   -3.4667 C   0  0  0  0  0  0  0  0  0  0  0  0
   12.0954    8.4452   -2.4125 C   0  0  0  0  0  0  0  0  0  0  0  0
   11.9761    7.0519   -2.6564 C   0  0  0  0  0  0  0  0  0  0  0  0
   11.6861    6.5740   -3.9535 C   0  0  0  0  0  0  0  0  0  0  0  0
   11.5365    7.5225   -4.9714 C   0  0  0  0  0  0  0  0  0  0  0  0
   11.2584    7.3300   -6.4127 C   0  0  0  0  0  0  0  0  0  0  0  0
   11.0895    6.2492   -6.9752 O   0  0  0  0  0  0  0  0  0  0  0  0
    9.0608    5.1674  -13.9288 C   0  0  0  0  0  0  0  0  0  0  0  0
    8.9388    3.6626  -14.2362 C   0  0  0  0  0  0  0  0  0  0  0  0
    8.1241    0.9351  -15.0811 C   0  0  0  0  0  0  0  0  0  0  0  0
    7.4786   -0.2231  -15.4757 N   0  0  0  0  0  0  0  0  0  0  0  0
    6.1716   -0.2378  -15.0402 C   0  0  0  0  0  0  0  0  0  0  0  0
    4.3476   -2.6282  -16.6589 H   0  0  0  0  0  0  0  0  0  0  0  0
    5.9932   -2.1108  -17.0119 H   0  0  0  0  0  0  0  0  0  0  0  0
    5.6853   -3.1908  -15.6465 H   0  0  0  0  0  0  0  0  0  0  0  0
    3.0336   -1.5725  -14.9297 H   0  0  0  0  0  0  0  0  0  0  0  0
    2.7163    0.3559  -13.4468 H   0  0  0  0  0  0  0  0  0  0  0  0
    4.5549    1.8705  -12.9036 H   0  0  0  0  0  0  0  0  0  0  0  0
    5.8365    3.3995  -12.7125 H   0  0  0  0  0  0  0  0  0  0  0  0
    6.5106    5.8814  -12.8716 H   0  0  0  0  0  0  0  0  0  0  0  0
    6.8890    5.1108  -11.3466 H   0  0  0  0  0  0  0  0  0  0  0  0
    9.7963    7.2183  -12.6470 H   0  0  0  0  0  0  0  0  0  0  0  0
    8.0894    7.5402  -12.4664 H   0  0  0  0  0  0  0  0  0  0  0  0
    8.3587    6.5711  -10.0672 H   0  0  0  0  0  0  0  0  0  0  0  0
   10.0705    6.4737  -10.3772 H   0  0  0  0  0  0  0  0  0  0  0  0
   10.1158    8.9724  -10.8206 H   0  0  0  0  0  0  0  0  0  0  0  0
    8.4056    9.0358  -10.5371 H   0  0  0  0  0  0  0  0  0  0  0  0
    9.0605    9.6296   -8.4216 H   0  0  0  0  0  0  0  0  0  0  0  0
    9.0343    7.9132   -8.1932 H   0  0  0  0  0  0  0  0  0  0  0  0
   11.5858    8.0053   -8.9460 H   0  0  0  0  0  0  0  0  0  0  0  0
   11.4489    9.7245   -8.7256 H   0  0  0  0  0  0  0  0  0  0  0  0
   12.0598   10.4369   -3.2813 H   0  0  0  0  0  0  0  0  0  0  0  0
   12.3045    8.7995   -1.4131 H   0  0  0  0  0  0  0  0  0  0  0  0
   12.0978    6.3461   -1.8473 H   0  0  0  0  0  0  0  0  0  0  0  0
   11.5823    5.5285   -4.1716 H   0  0  0  0  0  0  0  0  0  0  0  0
   10.1037    5.4650  -14.0432 H   0  0  0  0  0  0  0  0  0  0  0  0
    8.4858    5.7572  -14.6470 H   0  0  0  0  0  0  0  0  0  0  0  0
    9.7245    3.1032  -13.7259 H   0  0  0  0  0  0  0  0  0  0  0  0
    9.0979    3.5273  -15.3060 H   0  0  0  0  0  0  0  0  0  0  0  0
    9.1496    1.1165  -15.3627 H   0  0  0  0  0  0  0  0  0  0  0  0
    7.9228   -0.9847  -15.9749 H   0  0  0  0  0  0  0  0  0  0  0  0
    9.1011    4.8677  -11.9424 H   0  0  0  0  0  0  0  0  0  0  0  0
  2  1  1  0
  3  2  1  0
  4  3  2  0
  5  4  1  0
  6  5  2  0
  7  6  1  0
  8  7  1  0
  9  8  2  0
 10  9  1  0
 11 10  1  0
 12 11  1  0
 13 12  1  0
 14 13  1  0
 15 14  1  0
 16 15  1  0
 17 16  1  0
 18 17  1  0
 19 18  2  0
 20 18  1  0
 21 20  2  0
 22 21  1  0
 23 22  2  0
 24 23  1  0
 25 20  1  0
 25 24  2  0
 26 17  1  0
 26 25  1  0
 27 26  2  0
 28 11  1  0
 29  8  1  0
 29 28  1  0
 30  7  2  0
 31 30  1  0
 32  2  2  0
 32  6  1  0
 32 31  1  0
 33  1  1  0
 34  1  1  0
 35  1  1  0
 36  3  1  0
 37  4  1  0
 38  5  1  0
 39  9  1  0
 40 10  1  0
 41 10  1  0
 42 12  1  0
 43 12  1  0
 44 13  1  0
 45 13  1  0
 46 14  1  0
 47 14  1  0
 48 15  1  0
 49 15  1  0
 50 16  1  0
 51 16  1  0
 52 21  1  0
 53 22  1  0
 54 23  1  0
 55 24  1  0
 56 28  1  0
 57 28  1  0
 58 29  1  0
 59 29  1  0
 60 30  1  0
 61 31  1  0
 11 62  1  1
M  CHG  1  11   1
M  END
>  <b_m_subgroup_collapsed>  (22) 
0

>  <r_i_docking_score>  (22) 
-9.6863952101606294

>  <s_m_subgroup_title>  (22) 
glide-dock_SP_D22_pv

>  <s_m_subgroupid>  (22) 
glide-dock_SP_D22_pv

>  <Molecule ChEMBL ID>  (22) 
CHEMBL422618

>  <Standard Type>  (22) 
Ki

>  <Standard Value>  (22) 
40.0

>  <label>  (22) 
1

$$$$
CHEMBL3883955
     RDKit          3D

 59 63  0  0  1  0  0  0  0  0999 V2000
    9.6592   -0.2006  -16.1888 O   0  0  0  0  0  0  0  0  0  0  0  0
    9.4534    0.8604  -15.5982 C   0  0  0  0  0  0  0  0  0  0  0  0
   10.5335    1.7646  -15.2074 C   0  0  0  0  0  0  0  0  0  0  0  0
   10.3043    2.8840  -14.4890 C   0  0  0  0  0  0  0  0  0  0  0  0
    8.9493    3.1862  -14.0852 C   0  0  0  0  0  0  0  0  0  0  0  0
    8.7351    4.2963  -13.2881 O   0  0  0  0  0  0  0  0  0  0  0  0
    7.4177    4.4844  -12.7711 C   0  0  0  0  0  0  0  0  0  0  0  0
    7.4816    5.5447  -11.6657 C   0  0  0  0  0  0  0  0  0  0  0  0
    8.2669    5.0676  -10.4316 C   0  0  0  0  0  0  0  0  0  0  0  0
    8.5616    6.1722   -9.4768 N   0  0  2  0  0  0  0  0  0  0  0  0
    9.8540    6.8411   -9.8061 C   0  0  0  0  0  0  0  0  0  0  0  0
   10.2504    7.9287   -8.7940 C   0  0  0  0  0  0  0  0  0  0  0  0
   10.2744    7.3605   -7.3623 C   0  0  1  0  0  0  0  0  0  0  0  0
   10.7269    8.3534   -6.3204 C   0  0  0  0  0  0  0  0  0  0  0  0
   10.4894    9.6534   -6.4649 N   0  0  0  0  0  0  0  0  0  0  0  0
   10.9625   10.3160   -5.2993 O   0  0  0  0  0  0  0  0  0  0  0  0
   11.4635    9.3819   -4.4111 C   0  0  0  0  0  0  0  0  0  0  0  0
   11.9964    9.5141   -3.1227 C   0  0  0  0  0  0  0  0  0  0  0  0
   12.3762    8.3379   -2.4477 C   0  0  0  0  0  0  0  0  0  0  0  0
   12.8852    8.4210   -1.1996 F   0  0  0  0  0  0  0  0  0  0  0  0
   12.2152    7.0745   -3.0638 C   0  0  0  0  0  0  0  0  0  0  0  0
   11.6857    6.9715   -4.3705 C   0  0  0  0  0  0  0  0  0  0  0  0
   11.3069    8.1493   -5.0501 C   0  0  0  0  0  0  0  0  0  0  0  0
    8.8834    6.8049   -7.0488 C   0  0  0  0  0  0  0  0  0  0  0  0
    8.4976    5.7115   -8.0600 C   0  0  0  0  0  0  0  0  0  0  0  0
    7.9733    2.4266  -14.4692 N   0  0  0  0  0  0  0  0  0  0  0  0
    8.2039    1.2910  -15.2301 N   0  0  0  0  0  0  0  0  0  0  0  0
    7.0744    0.5167  -15.6005 C   0  0  0  0  0  0  0  0  0  0  0  0
    6.4009   -0.2537  -14.6267 C   0  0  0  0  0  0  0  0  0  0  0  0
    6.8295   -0.2658  -13.3415 F   0  0  0  0  0  0  0  0  0  0  0  0
    5.2801   -1.0268  -14.9916 C   0  0  0  0  0  0  0  0  0  0  0  0
    4.8164   -1.0216  -16.3207 C   0  0  0  0  0  0  0  0  0  0  0  0
    5.4676   -0.2284  -17.2868 C   0  0  0  0  0  0  0  0  0  0  0  0
    6.5906    0.5434  -16.9296 C   0  0  0  0  0  0  0  0  0  0  0  0
    7.1911    1.3252  -17.8618 F   0  0  0  0  0  0  0  0  0  0  0  0
   11.5441    1.5236  -15.5022 H   0  0  0  0  0  0  0  0  0  0  0  0
   11.1108    3.5385  -14.1956 H   0  0  0  0  0  0  0  0  0  0  0  0
    6.7508    4.8164  -13.5685 H   0  0  0  0  0  0  0  0  0  0  0  0
    6.9972    3.5688  -12.3517 H   0  0  0  0  0  0  0  0  0  0  0  0
    7.9072    6.4635  -12.0714 H   0  0  0  0  0  0  0  0  0  0  0  0
    6.4609    5.7722  -11.3618 H   0  0  0  0  0  0  0  0  0  0  0  0
    7.6861    4.2840   -9.9449 H   0  0  0  0  0  0  0  0  0  0  0  0
    9.1971    4.5836  -10.7322 H   0  0  0  0  0  0  0  0  0  0  0  0
   10.6474    6.0945   -9.8344 H   0  0  0  0  0  0  0  0  0  0  0  0
    9.7993    7.2723  -10.8046 H   0  0  0  0  0  0  0  0  0  0  0  0
   11.2310    8.3291   -9.0540 H   0  0  0  0  0  0  0  0  0  0  0  0
    9.5442    8.7588   -8.8614 H   0  0  0  0  0  0  0  0  0  0  0  0
   10.9814    6.5284   -7.3469 H   0  0  0  0  0  0  0  0  0  0  0  0
   12.0903   10.4816   -2.6511 H   0  0  0  0  0  0  0  0  0  0  0  0
   12.5008    6.1788   -2.5322 H   0  0  0  0  0  0  0  0  0  0  0  0
   11.5582    6.0026   -4.8306 H   0  0  0  0  0  0  0  0  0  0  0  0
    8.8838    6.3798   -6.0448 H   0  0  0  0  0  0  0  0  0  0  0  0
    8.1405    7.6053   -7.0443 H   0  0  0  0  0  0  0  0  0  0  0  0
    7.4876    5.3726   -7.8462 H   0  0  0  0  0  0  0  0  0  0  0  0
    9.1535    4.8524   -7.9082 H   0  0  0  0  0  0  0  0  0  0  0  0
    4.7792   -1.6321  -14.2524 H   0  0  0  0  0  0  0  0  0  0  0  0
    3.9610   -1.6223  -16.5976 H   0  0  0  0  0  0  0  0  0  0  0  0
    5.1035   -0.2143  -18.3034 H   0  0  0  0  0  0  0  0  0  0  0  0
    7.8104    6.8562   -9.5900 H   0  0  0  0  0  0  0  0  0  0  0  0
  2  1  2  0
  3  2  1  0
  4  3  2  0
  5  4  1  0
  6  5  1  0
  7  6  1  0
  8  7  1  0
  9  8  1  0
 10  9  1  0
 11 10  1  0
 12 11  1  0
 13 12  1  0
 14 13  1  0
 15 14  2  0
 16 15  1  0
 17 16  1  0
 18 17  2  0
 19 18  1  0
 20 19  1  0
 21 19  2  0
 22 21  1  0
 23 14  1  0
 23 17  1  0
 23 22  2  0
 24 13  1  0
 25 10  1  0
 25 24  1  0
 26  5  2  0
 27  2  1  0
 27 26  1  0
 28 27  1  0
 29 28  2  0
 30 29  1  0
 31 29  1  0
 32 31  2  0
 33 32  1  0
 34 28  1  0
 34 33  2  0
 35 34  1  0
 36  3  1  0
 37  4  1  0
 38  7  1  0
 39  7  1  0
 40  8  1  0
 41  8  1  0
 42  9  1  0
 43  9  1  0
 44 11  1  0
 45 11  1  0
 46 12  1  0
 47 12  1  0
 13 48  1  6
 49 18  1  0
 50 21  1  0
 51 22  1  0
 52 24  1  0
 53 24  1  0
 54 25  1  0
 55 25  1  0
 56 31  1  0
 57 32  1  0
 58 33  1  0
 10 59  1  1
M  CHG  1  10   1
M  END
>  <b_m_subgroup_collapsed>  (23) 
0

>  <r_i_docking_score>  (23) 
-9.6668727389992704

>  <s_m_subgroup_title>  (23) 
glide-dock_SP_D22_pv

>  <s_m_subgroupid>  (23) 
glide-dock_SP_D22_pv

>  <Molecule ChEMBL ID>  (23) 
CHEMBL3883955

>  <Standard Type>  (23) 
Ki

>  <Standard Value>  (23) 
5.0

>  <label>  (23) 
1

$$$$
CHEMBL4279397
     RDKit          3D

 61 64  0  0  1  0  0  0  0  0999 V2000
   13.2814    4.5749  -15.0137 C   0  0  0  0  0  0  0  0  0  0  0  0
   12.0417    5.4763  -15.0313 C   0  0  2  0  0  0  0  0  0  0  0  0
   11.8309    6.0733  -16.4354 C   0  0  0  0  0  0  0  0  0  0  0  0
   10.9418    5.5077  -17.3858 C   0  0  0  0  0  0  0  0  0  0  0  0
   10.8153    6.0587  -18.6757 C   0  0  0  0  0  0  0  0  0  0  0  0
   11.5906    7.1700  -19.0495 C   0  0  0  0  0  0  0  0  0  0  0  0
   11.4714    7.6992  -20.2899 F   0  0  0  0  0  0  0  0  0  0  0  0
   12.4935    7.7263  -18.1287 C   0  0  0  0  0  0  0  0  0  0  0  0
   12.6118    7.1851  -16.8327 C   0  0  0  0  0  0  0  0  0  0  0  0
   12.1731    6.4916  -14.0043 N   0  0  0  0  0  0  0  0  0  0  0  0
   11.2453    6.4082  -13.0479 C   0  0  0  0  0  0  0  0  0  0  0  0
   11.2084    7.1432  -12.0659 O   0  0  0  0  0  0  0  0  0  0  0  0
   10.3987    5.4015  -13.3562 N   0  0  0  0  0  0  0  0  0  0  0  0
    9.1761    4.9513  -12.6554 C   0  0  0  0  0  0  0  0  0  0  0  0
    8.5661    5.9094  -11.6039 C   0  0  1  0  0  0  0  0  0  0  0  0
    7.1650    5.7721  -11.6518 O   0  0  0  0  0  0  0  0  0  0  0  0
    9.0612    5.5715  -10.1746 C   0  0  0  0  0  0  0  0  0  0  0  0
    8.8859    6.6604   -9.1798 N   0  0  0  0  0  0  0  0  0  0  0  0
    9.0632    6.1735   -7.7800 C   0  0  0  0  0  0  0  0  0  0  0  0
    9.0107    7.3055   -6.7261 C   0  0  0  0  0  0  0  0  0  0  0  0
    9.9114    8.3933   -7.1103 N   0  0  0  0  0  0  0  0  0  0  0  0
   10.9815    8.8946   -6.4408 C   0  0  0  0  0  0  0  0  0  0  0  0
   11.6867    9.7727   -6.9286 O   0  0  0  0  0  0  0  0  0  0  0  0
   11.3188    8.4692   -5.0387 C   0  0  0  0  0  0  0  0  0  0  0  0
   11.6009    9.4787   -4.0893 C   0  0  0  0  0  0  0  0  0  0  0  0
   12.0779    9.1559   -2.8048 C   0  0  0  0  0  0  0  0  0  0  0  0
   12.2585    7.8124   -2.4457 C   0  0  0  0  0  0  0  0  0  0  0  0
   11.9960    6.7999   -3.3848 C   0  0  0  0  0  0  0  0  0  0  0  0
   11.5443    7.1197   -4.6810 C   0  0  0  0  0  0  0  0  0  0  0  0
    9.5307    8.9316   -8.4190 C   0  0  0  0  0  0  0  0  0  0  0  0
    9.7111    7.8547   -9.4796 C   0  0  0  0  0  0  0  0  0  0  0  0
   10.8217    4.7577  -14.4528 C   0  0  0  0  0  0  0  0  0  0  0  0
   10.3441    3.7196  -14.9120 O   0  0  0  0  0  0  0  0  0  0  0  0
   13.1755    3.7436  -15.7129 H   0  0  0  0  0  0  0  0  0  0  0  0
   14.1693    5.1379  -15.3012 H   0  0  0  0  0  0  0  0  0  0  0  0
   13.4569    4.1719  -14.0166 H   0  0  0  0  0  0  0  0  0  0  0  0
   10.3428    4.6407  -17.1555 H   0  0  0  0  0  0  0  0  0  0  0  0
   10.1279    5.6216  -19.3834 H   0  0  0  0  0  0  0  0  0  0  0  0
   13.0922    8.5776  -18.4141 H   0  0  0  0  0  0  0  0  0  0  0  0
   13.3210    7.6275  -16.1474 H   0  0  0  0  0  0  0  0  0  0  0  0
   12.9464    7.1395  -13.9745 H   0  0  0  0  0  0  0  0  0  0  0  0
    9.3540    3.9673  -12.2140 H   0  0  0  0  0  0  0  0  0  0  0  0
    8.4256    4.7841  -13.4328 H   0  0  0  0  0  0  0  0  0  0  0  0
    8.7419    6.9394  -11.9021 H   0  0  0  0  0  0  0  0  0  0  0  0
    6.7687    6.4809  -11.1418 H   0  0  0  0  0  0  0  0  0  0  0  0
    8.5489    4.6716   -9.8278 H   0  0  0  0  0  0  0  0  0  0  0  0
   10.1186    5.3147  -10.2037 H   0  0  0  0  0  0  0  0  0  0  0  0
    8.2935    5.4335   -7.5568 H   0  0  0  0  0  0  0  0  0  0  0  0
   10.0251    5.6643   -7.7038 H   0  0  0  0  0  0  0  0  0  0  0  0
    7.9989    7.7059   -6.6580 H   0  0  0  0  0  0  0  0  0  0  0  0
    9.2277    6.8963   -5.7445 H   0  0  0  0  0  0  0  0  0  0  0  0
   11.4690   10.5183   -4.3544 H   0  0  0  0  0  0  0  0  0  0  0  0
   12.2919    9.9383   -2.0922 H   0  0  0  0  0  0  0  0  0  0  0  0
   12.6095    7.5612   -1.4558 H   0  0  0  0  0  0  0  0  0  0  0  0
   12.1581    5.7724   -3.1079 H   0  0  0  0  0  0  0  0  0  0  0  0
   11.4008    6.3238   -5.3961 H   0  0  0  0  0  0  0  0  0  0  0  0
    8.4989    9.2872   -8.3948 H   0  0  0  0  0  0  0  0  0  0  0  0
   10.1390    9.7720   -8.7396 H   0  0  0  0  0  0  0  0  0  0  0  0
   10.7637    7.5732   -9.5357 H   0  0  0  0  0  0  0  0  0  0  0  0
    9.4404    8.2911  -10.4393 H   0  0  0  0  0  0  0  0  0  0  0  0
    7.9187    6.9715   -9.2554 H   0  0  0  0  0  0  0  0  0  0  0  0
  2  1  1  6
  3  2  1  0
  4  3  1  0
  5  4  2  0
  6  5  1  0
  7  6  1  0
  8  6  2  0
  9  3  2  0
  9  8  1  0
 10  2  1  0
 11 10  1  0
 12 11  2  0
 13 11  1  0
 14 13  1  0
 15 14  1  0
 16 15  1  0
 17 15  1  0
 18 17  1  0
 19 18  1  0
 20 19  1  0
 21 20  1  0
 22 21  1  0
 23 22  2  0
 24 22  1  0
 25 24  2  0
 26 25  1  0
 27 26  2  0
 28 27  1  0
 29 24  1  0
 29 28  2  0
 30 21  1  0
 31 18  1  0
 31 30  1  0
 32  2  1  0
 32 13  1  0
 33 32  2  0
 34  1  1  0
 35  1  1  0
 36  1  1  0
 37  4  1  0
 38  5  1  0
 39  8  1  0
 40  9  1  0
 41 10  1  0
 42 14  1  0
 43 14  1  0
 15 44  1  6
 45 16  1  0
 46 17  1  0
 47 17  1  0
 48 19  1  0
 49 19  1  0
 50 20  1  0
 51 20  1  0
 52 25  1  0
 53 26  1  0
 54 27  1  0
 55 28  1  0
 56 29  1  0
 57 30  1  0
 58 30  1  0
 59 31  1  0
 60 31  1  0
 61 18  1  0
M  CHG  1  18   1
M  END
>  <b_m_subgroup_collapsed>  (24) 
0

>  <r_i_docking_score>  (24) 
-9.6587774193162996

>  <s_m_subgroup_title>  (24) 
glide-dock_SP_D22_pv

>  <s_m_subgroupid>  (24) 
glide-dock_SP_D22_pv

>  <Molecule ChEMBL ID>  (24) 
CHEMBL4279397

>  <Standard Type>  (24) 
Ki

>  <Standard Value>  (24) 
10080.0

>  <label>  (24) 
0

$$$$
CHEMBL1256786
     RDKit          3D

 50 51  0  0  1  0  0  0  0  0999 V2000
   12.8893    8.9701   -1.5954 C   0  0  0  0  0  0  0  0  0  0  0  0
   12.3356    7.8212   -2.2061 O   0  0  0  0  0  0  0  0  0  0  0  0
   11.9130    7.9430   -3.5088 C   0  0  0  0  0  0  0  0  0  0  0  0
   11.6854    9.1760   -4.1710 C   0  0  0  0  0  0  0  0  0  0  0  0
   11.2380    9.1934   -5.5091 C   0  0  0  0  0  0  0  0  0  0  0  0
   11.0346    7.9832   -6.2076 C   0  0  0  0  0  0  0  0  0  0  0  0
   10.6262    7.9838   -7.6721 C   0  0  0  0  0  0  0  0  0  0  0  0
    9.1631    7.5588   -7.9678 C   0  0  2  0  0  0  0  0  0  0  0  0
    8.7651    6.1710   -7.4246 C   0  0  0  0  0  0  0  0  0  0  0  0
    8.8861    7.6761   -9.4198 N   0  0  0  0  0  0  0  0  0  0  0  0
    9.4237    6.6106  -10.2956 C   0  0  0  0  0  0  0  0  0  0  0  0
    9.3971    7.0419  -11.7720 C   0  0  2  0  0  0  0  0  0  0  0  0
    8.0683    7.1392  -12.2468 O   0  0  0  0  0  0  0  0  0  0  0  0
   10.1815    6.0833  -12.6479 C   0  0  0  0  0  0  0  0  0  0  0  0
   11.3387    6.5234  -13.3236 C   0  0  0  0  0  0  0  0  0  0  0  0
   11.9808    5.6794  -14.2472 C   0  0  0  0  0  0  0  0  0  0  0  0
   11.4826    4.3861  -14.4920 C   0  0  0  0  0  0  0  0  0  0  0  0
   12.0986    3.6231  -15.4375 O   0  0  0  0  0  0  0  0  0  0  0  0
   10.3638    3.9078  -13.7627 C   0  0  0  0  0  0  0  0  0  0  0  0
    9.8917    2.5718  -13.8475 N   0  0  0  0  0  0  0  0  0  0  0  0
    9.6116    1.8672  -14.9553 C   0  0  0  0  0  0  0  0  0  0  0  0
    9.8010    2.2606  -16.1051 O   0  0  0  0  0  0  0  0  0  0  0  0
    9.7229    4.7624  -12.8432 C   0  0  0  0  0  0  0  0  0  0  0  0
   11.2848    6.7634   -5.5518 C   0  0  0  0  0  0  0  0  0  0  0  0
   11.6861    6.7453   -4.2072 C   0  0  0  0  0  0  0  0  0  0  0  0
   13.3445    8.6922   -0.6474 H   0  0  0  0  0  0  0  0  0  0  0  0
   13.6845    9.3723   -2.2194 H   0  0  0  0  0  0  0  0  0  0  0  0
   12.1357    9.7353   -1.4066 H   0  0  0  0  0  0  0  0  0  0  0  0
   11.8323   10.1190   -3.6657 H   0  0  0  0  0  0  0  0  0  0  0  0
   11.0675   10.1413   -5.9988 H   0  0  0  0  0  0  0  0  0  0  0  0
   11.3254    7.3271   -8.1900 H   0  0  0  0  0  0  0  0  0  0  0  0
   10.8042    8.9803   -8.0793 H   0  0  0  0  0  0  0  0  0  0  0  0
    8.5092    8.2884   -7.4861 H   0  0  0  0  0  0  0  0  0  0  0  0
    8.7244    6.1740   -6.3357 H   0  0  0  0  0  0  0  0  0  0  0  0
    7.7765    5.8640   -7.7676 H   0  0  0  0  0  0  0  0  0  0  0  0
    9.4695    5.3979   -7.7318 H   0  0  0  0  0  0  0  0  0  0  0  0
    9.2522    8.5636   -9.7295 H   0  0  0  0  0  0  0  0  0  0  0  0
    8.8609    5.6870  -10.1521 H   0  0  0  0  0  0  0  0  0  0  0  0
   10.4559    6.3996  -10.0163 H   0  0  0  0  0  0  0  0  0  0  0  0
    9.8451    8.0329  -11.8594 H   0  0  0  0  0  0  0  0  0  0  0  0
    7.4795    7.4760  -11.5725 H   0  0  0  0  0  0  0  0  0  0  0  0
   11.7132    7.5259  -13.1791 H   0  0  0  0  0  0  0  0  0  0  0  0
   12.8454    6.0359  -14.7875 H   0  0  0  0  0  0  0  0  0  0  0  0
   11.5111    2.9526  -15.7686 H   0  0  0  0  0  0  0  0  0  0  0  0
    9.6839    2.1142  -12.9665 H   0  0  0  0  0  0  0  0  0  0  0  0
    9.2029    0.8794  -14.6940 H   0  0  0  0  0  0  0  0  0  0  0  0
    8.8498    4.4150  -12.3091 H   0  0  0  0  0  0  0  0  0  0  0  0
   11.1728    5.8273   -6.0759 H   0  0  0  0  0  0  0  0  0  0  0  0
   11.8582    5.7994   -3.7144 H   0  0  0  0  0  0  0  0  0  0  0  0
    7.8714    7.7133   -9.5730 H   0  0  0  0  0  0  0  0  0  0  0  0
  2  1  1  0
  3  2  1  0
  4  3  1  0
  5  4  2  0
  6  5  1  0
  7  6  1  0
  8  7  1  0
  9  8  1  0
 10  8  1  0
 11 10  1  0
 12 11  1  0
 13 12  1  0
 14 12  1  0
 15 14  1  0
 16 15  2  0
 17 16  1  0
 18 17  1  0
 19 17  2  0
 20 19  1  0
 21 20  1  0
 22 21  2  0
 23 14  2  0
 23 19  1  0
 24  6  2  0
 25  3  2  0
 25 24  1  0
 26  1  1  0
 27  1  1  0
 28  1  1  0
 29  4  1  0
 30  5  1  0
 31  7  1  0
 32  7  1  0
  8 33  1  1
 34  9  1  0
 35  9  1  0
 36  9  1  0
 37 10  1  0
 38 11  1  0
 39 11  1  0
 12 40  1  1
 41 13  1  0
 42 15  1  0
 43 16  1  0
 44 18  1  0
 45 20  1  0
 46 21  1  0
 47 23  1  0
 48 24  1  0
 49 25  1  0
 50 10  1  0
M  CHG  1  10   1
M  END
>  <b_m_subgroup_collapsed>  (25) 
0

>  <r_i_docking_score>  (25) 
-9.6305310956625103

>  <s_m_subgroup_title>  (25) 
glide-dock_SP_D22_pv

>  <s_m_subgroupid>  (25) 
glide-dock_SP_D22_pv

>  <Molecule ChEMBL ID>  (25) 
CHEMBL1256786

>  <Standard Type>  (25) 
Ki

>  <Standard Value>  (25) 
13000.0

>  <label>  (25) 
0

$$$$
CHEMBL494702
     RDKit          3D

 61 64  0  0  1  0  0  0  0  0999 V2000
    3.7343   -1.3242  -16.5054 C   0  0  0  0  0  0  0  0  0  0  0  0
    5.0395   -1.6570  -15.7679 C   0  0  0  0  0  0  0  0  0  0  0  0
    5.7008   -0.4810  -15.3304 O   0  0  0  0  0  0  0  0  0  0  0  0
    5.3053    0.1690  -14.2194 C   0  0  0  0  0  0  0  0  0  0  0  0
    4.3550   -0.1603  -13.5070 O   0  0  0  0  0  0  0  0  0  0  0  0
    6.1139    1.3602  -13.9638 C   0  0  0  0  0  0  0  0  0  0  0  0
    5.5389    2.3902  -13.2702 O   0  0  0  0  0  0  0  0  0  0  0  0
    6.4611    3.3817  -13.2232 C   0  0  0  0  0  0  0  0  0  0  0  0
    7.6104    3.0078  -13.8473 C   0  0  0  0  0  0  0  0  0  0  0  0
    7.4047    1.6786  -14.3262 C   0  0  0  0  0  0  0  0  0  0  0  0
    8.4046    0.8135  -15.0582 C   0  0  0  0  0  0  0  0  0  0  0  0
    8.7502    3.9486  -13.8509 C   0  0  0  0  0  0  0  0  0  0  0  0
    9.8784    3.6449  -14.2324 O   0  0  0  0  0  0  0  0  0  0  0  0
    8.4492    5.3764  -13.3681 C   0  0  0  0  0  0  0  0  0  0  0  0
    7.4133    5.4577  -12.1995 C   0  0  2  0  0  0  0  0  0  0  0  0
    8.0185    4.9948  -10.8430 C   0  0  0  0  0  0  0  0  0  0  0  0
    8.4862    6.1244   -9.9868 N   0  0  2  0  0  0  0  0  0  0  0  0
    9.8471    6.5453  -10.3918 C   0  0  0  0  0  0  0  0  0  0  0  0
   10.4436    7.6212   -9.4934 C   0  0  0  0  0  0  0  0  0  0  0  0
   10.4431    7.2254   -7.9978 C   0  0  1  0  0  0  0  0  0  0  0  0
   11.0199    8.3730   -7.1510 C   0  0  0  0  0  0  0  0  0  0  0  0
   11.2861    9.4159   -7.7269 O   0  0  0  0  0  0  0  0  0  0  0  0
   11.2859    8.2231   -5.6933 C   0  0  0  0  0  0  0  0  0  0  0  0
   11.2859    6.9722   -5.0387 C   0  0  0  0  0  0  0  0  0  0  0  0
   11.6862    6.8790   -3.6886 C   0  0  0  0  0  0  0  0  0  0  0  0
   12.0855    8.0299   -2.9811 C   0  0  0  0  0  0  0  0  0  0  0  0
   12.4854    7.9371   -1.6936 F   0  0  0  0  0  0  0  0  0  0  0  0
   12.0568    9.2835   -3.6133 C   0  0  0  0  0  0  0  0  0  0  0  0
   11.6622    9.3756   -4.9607 C   0  0  0  0  0  0  0  0  0  0  0  0
    8.9952    6.9101   -7.6221 C   0  0  0  0  0  0  0  0  0  0  0  0
    8.4041    5.8166   -8.5292 C   0  0  0  0  0  0  0  0  0  0  0  0
    6.1244    4.6577  -12.5320 C   0  0  0  0  0  0  0  0  0  0  0  0
    3.2846   -2.2282  -16.9133 H   0  0  0  0  0  0  0  0  0  0  0  0
    3.0021   -0.8610  -15.8440 H   0  0  0  0  0  0  0  0  0  0  0  0
    3.9155   -0.6448  -17.3375 H   0  0  0  0  0  0  0  0  0  0  0  0
    5.7091   -2.1861  -16.4455 H   0  0  0  0  0  0  0  0  0  0  0  0
    4.8689   -2.3244  -14.9246 H   0  0  0  0  0  0  0  0  0  0  0  0
    9.4254    1.1408  -14.8696 H   0  0  0  0  0  0  0  0  0  0  0  0
    8.3255   -0.2238  -14.7334 H   0  0  0  0  0  0  0  0  0  0  0  0
    8.2223    0.8525  -16.1320 H   0  0  0  0  0  0  0  0  0  0  0  0
    8.0856    5.9295  -14.2326 H   0  0  0  0  0  0  0  0  0  0  0  0
    9.3927    5.8466  -13.1015 H   0  0  0  0  0  0  0  0  0  0  0  0
    7.1065    6.4993  -12.0842 H   0  0  0  0  0  0  0  0  0  0  0  0
    8.8256    4.2773  -11.0009 H   0  0  0  0  0  0  0  0  0  0  0  0
    7.2862    4.4071  -10.3008 H   0  0  0  0  0  0  0  0  0  0  0  0
    9.8284    6.9305  -11.4082 H   0  0  0  0  0  0  0  0  0  0  0  0
   10.4860    5.6690  -10.3802 H   0  0  0  0  0  0  0  0  0  0  0  0
    9.8737    8.5412   -9.6451 H   0  0  0  0  0  0  0  0  0  0  0  0
   11.4610    7.8335   -9.8287 H   0  0  0  0  0  0  0  0  0  0  0  0
   11.0658    6.3419   -7.8544 H   0  0  0  0  0  0  0  0  0  0  0  0
   11.0198    6.0690   -5.5657 H   0  0  0  0  0  0  0  0  0  0  0  0
   11.7016    5.9171   -3.1971 H   0  0  0  0  0  0  0  0  0  0  0  0
   12.3509   10.1710   -3.0699 H   0  0  0  0  0  0  0  0  0  0  0  0
   11.6818   10.3476   -5.4343 H   0  0  0  0  0  0  0  0  0  0  0  0
    8.9169    6.5905   -6.5822 H   0  0  0  0  0  0  0  0  0  0  0  0
    8.3979    7.8189   -7.7013 H   0  0  0  0  0  0  0  0  0  0  0  0
    7.3583    5.7607   -8.2508 H   0  0  0  0  0  0  0  0  0  0  0  0
    8.8695    4.8529   -8.3172 H   0  0  0  0  0  0  0  0  0  0  0  0
    5.5124    4.4748  -11.6490 H   0  0  0  0  0  0  0  0  0  0  0  0
    5.5035    5.2539  -13.2026 H   0  0  0  0  0  0  0  0  0  0  0  0
    7.8332    6.8993  -10.1296 H   0  0  0  0  0  0  0  0  0  0  0  0
  2  1  1  0
  3  2  1  0
  4  3  1  0
  5  4  2  0
  6  4  1  0
  7  6  1  0
  8  7  1  0
  9  8  2  0
 10  6  2  0
 10  9  1  0
 11 10  1  0
 12  9  1  0
 13 12  2  0
 14 12  1  0
 15 14  1  0
 16 15  1  0
 17 16  1  0
 18 17  1  0
 19 18  1  0
 20 19  1  0
 21 20  1  0
 22 21  2  0
 23 21  1  0
 24 23  1  0
 25 24  2  0
 26 25  1  0
 27 26  1  0
 28 26  2  0
 29 23  2  0
 29 28  1  0
 30 20  1  0
 31 17  1  0
 31 30  1  0
 32  8  1  0
 32 15  1  0
 33  1  1  0
 34  1  1  0
 35  1  1  0
 36  2  1  0
 37  2  1  0
 38 11  1  0
 39 11  1  0
 40 11  1  0
 41 14  1  0
 42 14  1  0
 15 43  1  1
 44 16  1  0
 45 16  1  0
 46 18  1  0
 47 18  1  0
 48 19  1  0
 49 19  1  0
 20 50  1  6
 51 24  1  0
 52 25  1  0
 53 28  1  0
 54 29  1  0
 55 30  1  0
 56 30  1  0
 57 31  1  0
 58 31  1  0
 59 32  1  0
 60 32  1  0
 17 61  1  1
M  CHG  1  17   1
M  END
>  <b_m_subgroup_collapsed>  (26) 
0

>  <r_i_docking_score>  (26) 
-9.5991445911824904

>  <s_m_subgroup_title>  (26) 
glide-dock_SP_D22_pv

>  <s_m_subgroupid>  (26) 
glide-dock_SP_D22_pv

>  <Molecule ChEMBL ID>  (26) 
CHEMBL494702

>  <Standard Type>  (26) 
Ki

>  <Standard Value>  (26) 
10000.0

>  <label>  (26) 
0

$$$$
CHEMBL3104518
     RDKit          3D

 62 66  0  0  1  0  0  0  0  0999 V2000
   10.9871    4.1768  -13.5731 O   0  0  0  0  0  0  0  0  0  0  0  0
    9.7740    4.3508  -13.4758 C   0  0  0  0  0  0  0  0  0  0  0  0
    9.2387    5.7100  -13.0449 C   0  0  0  0  0  0  0  0  0  0  0  0
    8.0754    5.6174  -12.0366 C   0  0  2  0  0  0  0  0  0  0  0  0
    8.5006    5.0941  -10.6308 C   0  0  0  0  0  0  0  0  0  0  0  0
    8.8290    6.1726   -9.6531 N   0  0  2  0  0  0  0  0  0  0  0  0
   10.0741    6.8953  -10.0141 C   0  0  0  0  0  0  0  0  0  0  0  0
   10.4449    7.9873   -9.0106 C   0  0  0  0  0  0  0  0  0  0  0  0
   10.5513    7.4666   -7.5593 C   0  0  1  0  0  0  0  0  0  0  0  0
   10.8983    8.6296   -6.6034 C   0  0  0  0  0  0  0  0  0  0  0  0
   10.8831    9.7722   -7.0470 O   0  0  0  0  0  0  0  0  0  0  0  0
   11.3137    8.3959   -5.1953 C   0  0  0  0  0  0  0  0  0  0  0  0
   11.5837    7.1201   -4.6458 C   0  0  0  0  0  0  0  0  0  0  0  0
   12.0868    7.0121   -3.3287 C   0  0  0  0  0  0  0  0  0  0  0  0
   12.3341    8.1737   -2.5671 C   0  0  0  0  0  0  0  0  0  0  0  0
   12.8829    8.1085   -1.3350 F   0  0  0  0  0  0  0  0  0  0  0  0
   12.0333    9.4325   -3.0936 C   0  0  0  0  0  0  0  0  0  0  0  0
   11.5189    9.5429   -4.3925 C   0  0  0  0  0  0  0  0  0  0  0  0
    9.2157    6.7790   -7.2268 C   0  0  0  0  0  0  0  0  0  0  0  0
    8.8858    5.6670   -8.2526 C   0  0  0  0  0  0  0  0  0  0  0  0
    6.9300    4.7889  -12.6701 C   0  0  0  0  0  0  0  0  0  0  0  0
    7.3851    3.5547  -13.4461 C   0  0  0  0  0  0  0  0  0  0  0  0
    6.4249    2.5762  -13.7696 C   0  0  0  0  0  0  0  0  0  0  0  0
    6.7899    1.3439  -14.3590 C   0  0  0  0  0  0  0  0  0  0  0  0
    5.7594    0.3351  -14.6824 C   0  0  0  0  0  0  0  0  0  0  0  0
    5.8976   -0.4972  -15.8170 C   0  0  0  0  0  0  0  0  0  0  0  0
    4.8721   -1.3789  -16.1996 C   0  0  0  0  0  0  0  0  0  0  0  0
    3.6810   -1.4277  -15.4576 C   0  0  0  0  0  0  0  0  0  0  0  0
    3.5280   -0.6288  -14.3117 C   0  0  0  0  0  0  0  0  0  0  0  0
    4.5713    0.2291  -13.9175 C   0  0  0  0  0  0  0  0  0  0  0  0
    8.1540    1.1243  -14.6507 C   0  0  0  0  0  0  0  0  0  0  0  0
    9.1186    2.1135  -14.3843 C   0  0  0  0  0  0  0  0  0  0  0  0
    8.7428    3.3351  -13.7873 C   0  0  0  0  0  0  0  0  0  0  0  0
    8.8609    6.1723  -13.9528 H   0  0  0  0  0  0  0  0  0  0  0  0
   10.0667    6.3222  -12.6999 H   0  0  0  0  0  0  0  0  0  0  0  0
    7.6675    6.6197  -11.8904 H   0  0  0  0  0  0  0  0  0  0  0  0
    7.6863    4.5092  -10.2112 H   0  0  0  0  0  0  0  0  0  0  0  0
    9.3343    4.3938  -10.7019 H   0  0  0  0  0  0  0  0  0  0  0  0
   10.8856    6.1747  -10.1062 H   0  0  0  0  0  0  0  0  0  0  0  0
    9.9500    7.3893  -10.9747 H   0  0  0  0  0  0  0  0  0  0  0  0
   11.3881    8.4433   -9.3191 H   0  0  0  0  0  0  0  0  0  0  0  0
    9.6899    8.7753   -9.0738 H   0  0  0  0  0  0  0  0  0  0  0  0
   11.3574    6.7365   -7.5040 H   0  0  0  0  0  0  0  0  0  0  0  0
   11.4381    6.2201   -5.2240 H   0  0  0  0  0  0  0  0  0  0  0  0
   12.3113    6.0396   -2.9146 H   0  0  0  0  0  0  0  0  0  0  0  0
   12.2043   10.3216   -2.5055 H   0  0  0  0  0  0  0  0  0  0  0  0
   11.3107   10.5344   -4.7704 H   0  0  0  0  0  0  0  0  0  0  0  0
    9.2431    6.3495   -6.2256 H   0  0  0  0  0  0  0  0  0  0  0  0
    8.4124    7.5168   -7.2155 H   0  0  0  0  0  0  0  0  0  0  0  0
    7.9301    5.2142   -7.9898 H   0  0  0  0  0  0  0  0  0  0  0  0
    9.6369    4.8787   -8.1915 H   0  0  0  0  0  0  0  0  0  0  0  0
    6.3853    5.4134  -13.3760 H   0  0  0  0  0  0  0  0  0  0  0  0
    6.1961    4.5028  -11.9148 H   0  0  0  0  0  0  0  0  0  0  0  0
    5.3911    2.7750  -13.5314 H   0  0  0  0  0  0  0  0  0  0  0  0
    6.7876   -0.4499  -16.4270 H   0  0  0  0  0  0  0  0  0  0  0  0
    4.9882   -2.0045  -17.0734 H   0  0  0  0  0  0  0  0  0  0  0  0
    2.8907   -2.0947  -15.7690 H   0  0  0  0  0  0  0  0  0  0  0  0
    2.6063   -0.6735  -13.7477 H   0  0  0  0  0  0  0  0  0  0  0  0
    4.4337    0.8494  -13.0468 H   0  0  0  0  0  0  0  0  0  0  0  0
    8.4750    0.1909  -15.0873 H   0  0  0  0  0  0  0  0  0  0  0  0
   10.1537    1.9148  -14.6228 H   0  0  0  0  0  0  0  0  0  0  0  0
    8.0533    6.8339   -9.6917 H   0  0  0  0  0  0  0  0  0  0  0  0
  2  1  2  0
  3  2  1  0
  4  3  1  0
  5  4  1  0
  6  5  1  0
  7  6  1  0
  8  7  1  0
  9  8  1  0
 10  9  1  0
 11 10  2  0
 12 10  1  0
 13 12  1  0
 14 13  2  0
 15 14  1  0
 16 15  1  0
 17 15  2  0
 18 12  2  0
 18 17  1  0
 19  9  1  0
 20  6  1  0
 20 19  1  0
 21  4  1  0
 22 21  1  0
 23 22  1  0
 24 23  2  0
 25 24  1  0
 26 25  2  0
 27 26  1  0
 28 27  2  0
 29 28  1  0
 30 25  1  0
 30 29  2  0
 31 24  1  0
 32 31  2  0
 33  2  1  0
 33 22  2  0
 33 32  1  0
 34  3  1  0
 35  3  1  0
  4 36  1  1
 37  5  1  0
 38  5  1  0
 39  7  1  0
 40  7  1  0
 41  8  1  0
 42  8  1  0
  9 43  1  6
 44 13  1  0
 45 14  1  0
 46 17  1  0
 47 18  1  0
 48 19  1  0
 49 19  1  0
 50 20  1  0
 51 20  1  0
 52 21  1  0
 53 21  1  0
 54 23  1  0
 55 26  1  0
 56 27  1  0
 57 28  1  0
 58 29  1  0
 59 30  1  0
 60 31  1  0
 61 32  1  0
  6 62  1  1
M  CHG  1   6   1
M  END
>  <b_m_subgroup_collapsed>  (27) 
0

>  <r_i_docking_score>  (27) 
-9.5958556925884402

>  <s_m_subgroup_title>  (27) 
glide-dock_SP_D22_pv

>  <s_m_subgroupid>  (27) 
glide-dock_SP_D22_pv

>  <Molecule ChEMBL ID>  (27) 
CHEMBL3104518

>  <Standard Type>  (27) 
Ki

>  <Standard Value>  (27) 
10000.0

>  <label>  (27) 
0

$$$$
CHEMBL459158
     RDKit          3D

 73 76  0  0  1  0  0  0  0  0999 V2000
   14.1163   -0.5561  -20.2003 C   0  0  0  0  0  0  0  0  0  0  0  0
   12.8108   -1.0274  -19.9066 O   0  0  0  0  0  0  0  0  0  0  0  0
   12.0700   -0.3585  -18.9546 C   0  0  0  0  0  0  0  0  0  0  0  0
   10.8320   -0.9211  -18.5762 C   0  0  0  0  0  0  0  0  0  0  0  0
   10.0361   -0.3242  -17.5812 C   0  0  0  0  0  0  0  0  0  0  0  0
   10.4715    0.8551  -16.9544 C   0  0  0  0  0  0  0  0  0  0  0  0
   11.6937    1.4421  -17.3373 C   0  0  0  0  0  0  0  0  0  0  0  0
   12.1700    2.6972  -16.6437 C   0  0  0  0  0  0  0  0  0  0  0  0
   11.3688    3.9399  -17.0556 C   0  0  0  0  0  0  0  0  0  0  0  0
   11.7281    5.1294  -16.1886 C   0  0  0  0  0  0  0  0  0  0  0  0
   12.5154    6.1744  -16.7185 C   0  0  0  0  0  0  0  0  0  0  0  0
   12.8881    7.2599  -15.9062 C   0  0  0  0  0  0  0  0  0  0  0  0
   12.4858    7.2948  -14.5594 C   0  0  0  0  0  0  0  0  0  0  0  0
   11.6958    6.2555  -14.0311 C   0  0  0  0  0  0  0  0  0  0  0  0
   11.2971    5.1651  -14.8420 C   0  0  0  0  0  0  0  0  0  0  0  0
   10.5171    4.1070  -14.4079 O   0  0  0  0  0  0  0  0  0  0  0  0
    9.9467    4.1234  -13.1070 C   0  0  0  0  0  0  0  0  0  0  0  0
    8.6693    4.9830  -13.0790 C   0  0  0  0  0  0  0  0  0  0  0  0
    8.2730    5.4172  -11.6614 C   0  0  0  0  0  0  0  0  0  0  0  0
    9.1682    6.5609  -11.1494 C   0  0  0  0  0  0  0  0  0  0  0  0
    8.8861    6.9520   -9.7517 N   0  0  0  0  0  0  0  0  0  0  0  0
    9.4092    5.9721   -8.7567 C   0  0  0  0  0  0  0  0  0  0  0  0
    9.1739    6.4168   -7.3045 C   0  0  0  0  0  0  0  0  0  0  0  0
    9.6050    7.7929   -7.1182 N   0  0  0  0  0  0  0  0  0  0  0  0
   10.6317    8.1531   -6.2265 C   0  0  0  0  0  0  0  0  0  0  0  0
   11.3988    9.3138   -6.4644 C   0  0  0  0  0  0  0  0  0  0  0  0
   12.3153    9.7721   -5.5120 C   0  0  0  0  0  0  0  0  0  0  0  0
   12.4863    9.0810   -4.3006 C   0  0  0  0  0  0  0  0  0  0  0  0
   11.7826    7.8829   -4.0574 C   0  0  0  0  0  0  0  0  0  0  0  0
   11.9916    7.1404   -2.7322 C   0  0  0  0  0  0  0  0  0  0  0  0
   12.4528    7.9892   -1.8150 F   0  0  0  0  0  0  0  0  0  0  0  0
   10.8863    6.5725   -2.2504 F   0  0  0  0  0  0  0  0  0  0  0  0
   12.8860    6.1724   -2.8819 F   0  0  0  0  0  0  0  0  0  0  0  0
   10.8862    7.4079   -5.0469 C   0  0  0  0  0  0  0  0  0  0  0  0
    9.0068    8.7514   -8.0340 C   0  0  0  0  0  0  0  0  0  0  0  0
    9.3158    8.3472   -9.4793 C   0  0  0  0  0  0  0  0  0  0  0  0
   12.4868    0.8430  -18.3347 C   0  0  0  0  0  0  0  0  0  0  0  0
   14.5866   -1.2308  -20.9163 H   0  0  0  0  0  0  0  0  0  0  0  0
   14.0896    0.4372  -20.6499 H   0  0  0  0  0  0  0  0  0  0  0  0
   14.7462   -0.5348  -19.3098 H   0  0  0  0  0  0  0  0  0  0  0  0
   10.4855   -1.8275  -19.0472 H   0  0  0  0  0  0  0  0  0  0  0  0
    9.0968   -0.7740  -17.2947 H   0  0  0  0  0  0  0  0  0  0  0  0
    9.8679    1.3082  -16.1815 H   0  0  0  0  0  0  0  0  0  0  0  0
   13.2318    2.8605  -16.8373 H   0  0  0  0  0  0  0  0  0  0  0  0
   12.0888    2.5219  -15.5707 H   0  0  0  0  0  0  0  0  0  0  0  0
   10.2985    3.7563  -16.9571 H   0  0  0  0  0  0  0  0  0  0  0  0
   11.5440    4.1681  -18.1067 H   0  0  0  0  0  0  0  0  0  0  0  0
   12.8410    6.1447  -17.7481 H   0  0  0  0  0  0  0  0  0  0  0  0
   13.4931    8.0584  -16.3115 H   0  0  0  0  0  0  0  0  0  0  0  0
   12.7882    8.1197  -13.9302 H   0  0  0  0  0  0  0  0  0  0  0  0
   11.4170    6.3230  -12.9944 H   0  0  0  0  0  0  0  0  0  0  0  0
    9.6843    3.0964  -12.8469 H   0  0  0  0  0  0  0  0  0  0  0  0
   10.6777    4.4180  -12.3574 H   0  0  0  0  0  0  0  0  0  0  0  0
    8.7900    5.8656  -13.7067 H   0  0  0  0  0  0  0  0  0  0  0  0
    7.8563    4.4146  -13.5324 H   0  0  0  0  0  0  0  0  0  0  0  0
    7.2369    5.7578  -11.6650 H   0  0  0  0  0  0  0  0  0  0  0  0
    8.3047    4.5519  -11.0003 H   0  0  0  0  0  0  0  0  0  0  0  0
   10.2236    6.3038  -11.2191 H   0  0  0  0  0  0  0  0  0  0  0  0
    9.0145    7.4209  -11.8033 H   0  0  0  0  0  0  0  0  0  0  0  0
    8.9553    4.9931   -8.9040 H   0  0  0  0  0  0  0  0  0  0  0  0
   10.4818    5.8452   -8.9138 H   0  0  0  0  0  0  0  0  0  0  0  0
    8.1161    6.3410   -7.0465 H   0  0  0  0  0  0  0  0  0  0  0  0
    9.7155    5.7496   -6.6458 H   0  0  0  0  0  0  0  0  0  0  0  0
   11.3027    9.8825   -7.3741 H   0  0  0  0  0  0  0  0  0  0  0  0
   12.8863   10.6569   -5.7339 H   0  0  0  0  0  0  0  0  0  0  0  0
   13.1800    9.4708   -3.5696 H   0  0  0  0  0  0  0  0  0  0  0  0
   10.3257    6.5138   -4.8219 H   0  0  0  0  0  0  0  0  0  0  0  0
    7.9378    8.7520   -7.8471 H   0  0  0  0  0  0  0  0  0  0  0  0
    9.3151    9.7723   -7.8464 H   0  0  0  0  0  0  0  0  0  0  0  0
   10.3860    8.4447   -9.6718 H   0  0  0  0  0  0  0  0  0  0  0  0
    8.8038    9.0301  -10.1583 H   0  0  0  0  0  0  0  0  0  0  0  0
   13.4249    1.3100  -18.5921 H   0  0  0  0  0  0  0  0  0  0  0  0
    7.8688    6.9987   -9.6714 H   0  0  0  0  0  0  0  0  0  0  0  0
  2  1  1  0
  3  2  1  0
  4  3  1  0
  5  4  2  0
  6  5  1  0
  7  6  2  0
  8  7  1  0
  9  8  1  0
 10  9  1  0
 11 10  2  0
 12 11  1  0
 13 12  2  0
 14 13  1  0
 15 10  1  0
 15 14  2  0
 16 15  1  0
 17 16  1  0
 18 17  1  0
 19 18  1  0
 20 19  1  0
 21 20  1  0
 22 21  1  0
 23 22  1  0
 24 23  1  0
 25 24  1  0
 26 25  1  0
 27 26  2  0
 28 27  1  0
 29 28  2  0
 30 29  1  0
 31 30  1  0
 32 30  1  0
 33 30  1  0
 34 25  2  0
 34 29  1  0
 35 24  1  0
 36 21  1  0
 36 35  1  0
 37  3  2  0
 37  7  1  0
 38  1  1  0
 39  1  1  0
 40  1  1  0
 41  4  1  0
 42  5  1  0
 43  6  1  0
 44  8  1  0
 45  8  1  0
 46  9  1  0
 47  9  1  0
 48 11  1  0
 49 12  1  0
 50 13  1  0
 51 14  1  0
 52 17  1  0
 53 17  1  0
 54 18  1  0
 55 18  1  0
 56 19  1  0
 57 19  1  0
 58 20  1  0
 59 20  1  0
 60 22  1  0
 61 22  1  0
 62 23  1  0
 63 23  1  0
 64 26  1  0
 65 27  1  0
 66 28  1  0
 67 34  1  0
 68 35  1  0
 69 35  1  0
 70 36  1  0
 71 36  1  0
 72 37  1  0
 73 21  1  0
M  CHG  1  21   1
M  END
>  <b_m_subgroup_collapsed>  (28) 
0

>  <r_i_docking_score>  (28) 
-9.5956553841125505

>  <s_m_subgroup_title>  (28) 
glide-dock_SP_D22_pv

>  <s_m_subgroupid>  (28) 
glide-dock_SP_D22_pv

>  <Molecule ChEMBL ID>  (28) 
CHEMBL459158

>  <Standard Type>  (28) 
Ki

>  <Standard Value>  (28) 
1000000.0

>  <label>  (28) 
0

$$$$
CHEMBL3765422
     RDKit          3D

 60 63  0  0  1  0  0  0  0  0999 V2000
    9.5424    0.2435  -15.3383 C   0  0  0  0  0  0  0  0  0  0  0  0
    8.8479    1.4471  -14.9086 N   0  0  0  0  0  0  0  0  0  0  0  0
    9.3723    2.6687  -14.6695 C   0  0  0  0  0  0  0  0  0  0  0  0
   11.0817    3.0325  -14.9505 S   0  0  0  0  0  0  0  0  0  0  0  0
   11.3783    4.3268  -13.7040 C   0  0  0  0  0  0  0  0  0  0  0  0
   11.0129    5.7502  -14.1776 C   0  0  0  0  0  0  0  0  0  0  0  0
   11.2049    6.8194  -13.0750 C   0  0  0  0  0  0  0  0  0  0  0  0
   10.4859    6.5366  -11.8391 N   0  0  0  0  0  0  0  0  0  0  0  0
    9.0321    6.4491  -11.9307 C   0  0  0  0  0  0  0  0  0  0  0  0
    8.4700    5.8220  -10.6438 C   0  0  0  0  0  0  0  0  0  0  0  0
    8.8869    6.5851   -9.5130 O   0  0  0  0  0  0  0  0  0  0  0  0
   10.2958    6.7477   -9.4071 C   0  0  2  0  0  0  0  0  0  0  0  0
   10.6529    7.4532   -8.1091 C   0  0  0  0  0  0  0  0  0  0  0  0
   11.0824    8.7981   -8.0447 C   0  0  0  0  0  0  0  0  0  0  0  0
   11.4112    9.3701   -6.7991 C   0  0  0  0  0  0  0  0  0  0  0  0
   11.3324    8.6063   -5.6148 C   0  0  0  0  0  0  0  0  0  0  0  0
   11.7526    9.2221   -4.2946 C   0  0  0  0  0  0  0  0  0  0  0  0
   12.9583    9.7638   -4.4348 F   0  0  0  0  0  0  0  0  0  0  0  0
   10.8864   10.1727   -3.9598 F   0  0  0  0  0  0  0  0  0  0  0  0
   11.8071    8.3244   -3.3102 F   0  0  0  0  0  0  0  0  0  0  0  0
   10.8862    7.2721   -5.6796 C   0  0  0  0  0  0  0  0  0  0  0  0
   10.5389    6.7112   -6.9193 C   0  0  0  0  0  0  0  0  0  0  0  0
   10.8570    7.3712  -10.7046 C   0  0  0  0  0  0  0  0  0  0  0  0
    8.4723    3.5550  -14.2467 N   0  0  0  0  0  0  0  0  0  0  0  0
    7.2716    2.8870  -14.2412 N   0  0  0  0  0  0  0  0  0  0  0  0
    7.5345    1.6407  -14.6469 C   0  0  0  0  0  0  0  0  0  0  0  0
    6.4620    0.6617  -14.7964 C   0  0  0  0  0  0  0  0  0  0  0  0
    5.5516    0.4267  -13.7465 C   0  0  0  0  0  0  0  0  0  0  0  0
    4.4734   -0.3794  -13.8595 N   0  0  0  0  0  0  0  0  0  0  0  0
    4.2610   -0.9976  -15.0442 C   0  0  0  0  0  0  0  0  0  0  0  0
    5.1108   -0.8464  -16.1616 C   0  0  0  0  0  0  0  0  0  0  0  0
    4.8038   -1.4700  -17.4942 C   0  0  0  0  0  0  0  0  0  0  0  0
    4.1373   -2.6272  -17.5260 N   0  0  0  0  0  0  0  0  0  0  0  0
    5.2031   -0.9432  -18.5292 O   0  0  0  0  0  0  0  0  0  0  0  0
    6.2318    0.0039  -16.0235 C   0  0  0  0  0  0  0  0  0  0  0  0
   10.0137    0.4175  -16.3076 H   0  0  0  0  0  0  0  0  0  0  0  0
   10.3118   -0.0155  -14.6071 H   0  0  0  0  0  0  0  0  0  0  0  0
    8.8532   -0.5976  -15.4250 H   0  0  0  0  0  0  0  0  0  0  0  0
   10.8301    4.0643  -12.7995 H   0  0  0  0  0  0  0  0  0  0  0  0
   12.4366    4.3004  -13.4441 H   0  0  0  0  0  0  0  0  0  0  0  0
   11.6355    6.0120  -15.0337 H   0  0  0  0  0  0  0  0  0  0  0  0
    9.9902    5.7717  -14.5489 H   0  0  0  0  0  0  0  0  0  0  0  0
   12.2715    6.8758  -12.8545 H   0  0  0  0  0  0  0  0  0  0  0  0
   10.9326    7.8046  -13.4463 H   0  0  0  0  0  0  0  0  0  0  0  0
    8.5981    7.4376  -12.0866 H   0  0  0  0  0  0  0  0  0  0  0  0
    8.7264    5.8336  -12.7740 H   0  0  0  0  0  0  0  0  0  0  0  0
    7.3814    5.7725  -10.6770 H   0  0  0  0  0  0  0  0  0  0  0  0
    8.8250    4.7961  -10.5375 H   0  0  0  0  0  0  0  0  0  0  0  0
   10.7221    5.7500   -9.3197 H   0  0  0  0  0  0  0  0  0  0  0  0
   11.1658    9.3981   -8.9379 H   0  0  0  0  0  0  0  0  0  0  0  0
   11.7408   10.3970   -6.7474 H   0  0  0  0  0  0  0  0  0  0  0  0
   10.8049    6.6712   -4.7857 H   0  0  0  0  0  0  0  0  0  0  0  0
   10.1827    5.6954   -6.9688 H   0  0  0  0  0  0  0  0  0  0  0  0
   11.9433    7.4387  -10.6329 H   0  0  0  0  0  0  0  0  0  0  0  0
   10.4779    8.3828  -10.8477 H   0  0  0  0  0  0  0  0  0  0  0  0
    5.6712    0.9230  -12.7945 H   0  0  0  0  0  0  0  0  0  0  0  0
    3.3745   -1.6133  -15.0955 H   0  0  0  0  0  0  0  0  0  0  0  0
    3.7750   -3.1245  -16.7072 H   0  0  0  0  0  0  0  0  0  0  0  0
    3.9509   -3.0344  -18.4296 H   0  0  0  0  0  0  0  0  0  0  0  0
    6.8912    0.1843  -16.8600 H   0  0  0  0  0  0  0  0  0  0  0  0
  2  1  1  0
  3  2  1  0
  4  3  1  0
  5  4  1  0
  6  5  1  0
  7  6  1  0
  8  7  1  0
  9  8  1  0
 10  9  1  0
 11 10  1  0
 12 11  1  0
 13 12  1  0
 14 13  1  0
 15 14  2  0
 16 15  1  0
 17 16  1  0
 18 17  1  0
 19 17  1  0
 20 17  1  0
 21 16  2  0
 22 13  2  0
 22 21  1  0
 23  8  1  0
 23 12  1  0
 24  3  2  0
 25 24  1  0
 26  2  1  0
 26 25  2  0
 27 26  1  0
 28 27  2  0
 29 28  1  0
 30 29  2  0
 31 30  1  0
 32 31  1  0
 33 32  1  0
 34 32  2  0
 35 27  1  0
 35 31  2  0
 36  1  1  0
 37  1  1  0
 38  1  1  0
 39  5  1  0
 40  5  1  0
 41  6  1  0
 42  6  1  0
 43  7  1  0
 44  7  1  0
 45  9  1  0
 46  9  1  0
 47 10  1  0
 48 10  1  0
 12 49  1  1
 50 14  1  0
 51 15  1  0
 52 21  1  0
 53 22  1  0
 54 23  1  0
 55 23  1  0
 56 28  1  0
 57 30  1  0
 58 33  1  0
 59 33  1  0
 60 35  1  0
M  END
>  <b_m_subgroup_collapsed>  (29) 
0

>  <r_i_docking_score>  (29) 
-9.5956439458358496

>  <s_m_subgroup_title>  (29) 
glide-dock_SP_D22_pv

>  <s_m_subgroupid>  (29) 
glide-dock_SP_D22_pv

>  <Molecule ChEMBL ID>  (29) 
CHEMBL3765422

>  <Standard Type>  (29) 
Ki

>  <Standard Value>  (29) 
15848.93

>  <label>  (29) 
0

$$$$
CHEMBL5182383
     RDKit          3D

 66 70  0  0  1  0  0  0  0  0999 V2000
   13.1702    5.1808  -16.9237 S   0  0  0  0  0  0  0  0  0  0  0  0
   12.2937    3.7811  -16.6473 C   0  0  0  0  0  0  0  0  0  0  0  0
   11.5465    3.4640  -15.5412 N   0  0  0  0  0  0  0  0  0  0  0  0
   11.3799    4.2916  -14.3428 C   0  0  0  0  0  0  0  0  0  0  0  0
   10.2424    5.3192  -14.5064 C   0  0  0  0  0  0  0  0  0  0  0  0
    8.8154    4.7431  -14.3553 C   0  0  0  0  0  0  0  0  0  0  0  0
    8.4472    4.2972  -12.9307 C   0  0  0  0  0  0  0  0  0  0  0  0
    8.2421    5.4731  -11.9584 C   0  0  0  0  0  0  0  0  0  0  0  0
    8.4593    5.0516  -10.4961 C   0  0  0  0  0  0  0  0  0  0  0  0
    8.4866    6.1718   -9.5172 N   0  0  0  0  0  0  0  0  0  0  0  0
    9.5819    7.1379   -9.8111 C   0  0  0  0  0  0  0  0  0  0  0  0
    9.8316    8.1572   -8.6924 C   0  0  0  0  0  0  0  0  0  0  0  0
    9.9591    7.4909   -7.4011 N   0  0  0  0  0  0  0  0  0  0  0  0
   10.7891    8.0158   -6.3862 C   0  0  0  0  0  0  0  0  0  0  0  0
   11.4270    9.2681   -6.5465 C   0  0  0  0  0  0  0  0  0  0  0  0
   12.2722    9.7762   -5.5511 C   0  0  0  0  0  0  0  0  0  0  0  0
   12.4655    9.0792   -4.3476 C   0  0  0  0  0  0  0  0  0  0  0  0
   11.8419    7.8361   -4.1673 C   0  0  0  0  0  0  0  0  0  0  0  0
   12.0856    6.9663   -2.6945 Cl  0  0  0  0  0  0  0  0  0  0  0  0
   11.0321    7.2958   -5.1864 C   0  0  0  0  0  0  0  0  0  0  0  0
    8.8023    6.6773   -7.0545 C   0  0  0  0  0  0  0  0  0  0  0  0
    8.5741    5.6168   -8.1387 C   0  0  0  0  0  0  0  0  0  0  0  0
   10.9441    2.2142  -15.7263 C   0  0  0  0  0  0  0  0  0  0  0  0
   10.0789    1.4112  -14.9545 C   0  0  0  0  0  0  0  0  0  0  0  0
    9.6503    0.1702  -15.4899 C   0  0  0  0  0  0  0  0  0  0  0  0
   10.0833   -0.2766  -16.7706 C   0  0  0  0  0  0  0  0  0  0  0  0
   10.9606    0.5181  -17.5374 C   0  0  0  0  0  0  0  0  0  0  0  0
   11.3276    1.7320  -16.9502 C   0  0  0  0  0  0  0  0  0  0  0  0
   12.1664    2.7087  -17.4891 N   0  0  0  0  0  0  0  0  0  0  0  0
   12.7907    2.5415  -18.8011 C   0  0  0  0  0  0  0  0  0  0  0  0
   12.8715    1.0464  -19.1738 C   0  0  0  0  0  0  0  0  0  0  0  0
   11.5484    0.2848  -18.9235 C   0  0  0  0  0  0  0  0  0  0  0  0
   12.3151    4.8162  -14.1414 H   0  0  0  0  0  0  0  0  0  0  0  0
   11.2139    3.6582  -13.4753 H   0  0  0  0  0  0  0  0  0  0  0  0
   10.3266    5.7836  -15.4883 H   0  0  0  0  0  0  0  0  0  0  0  0
   10.4039    6.1282  -13.7942 H   0  0  0  0  0  0  0  0  0  0  0  0
    8.6903    3.9052  -15.0420 H   0  0  0  0  0  0  0  0  0  0  0  0
    8.0896    5.4898  -14.6705 H   0  0  0  0  0  0  0  0  0  0  0  0
    9.2196    3.6227  -12.5581 H   0  0  0  0  0  0  0  0  0  0  0  0
    7.5329    3.7030  -12.9628 H   0  0  0  0  0  0  0  0  0  0  0  0
    7.2453    5.9006  -12.0850 H   0  0  0  0  0  0  0  0  0  0  0  0
    8.9389    6.2597  -12.2269 H   0  0  0  0  0  0  0  0  0  0  0  0
    9.4063    4.5117  -10.4192 H   0  0  0  0  0  0  0  0  0  0  0  0
    7.6864    4.3342  -10.2216 H   0  0  0  0  0  0  0  0  0  0  0  0
    9.3618    7.6976  -10.7221 H   0  0  0  0  0  0  0  0  0  0  0  0
   10.5105    6.5892   -9.9868 H   0  0  0  0  0  0  0  0  0  0  0  0
    9.0093    8.8768   -8.6499 H   0  0  0  0  0  0  0  0  0  0  0  0
   10.7321    8.7024   -8.9694 H   0  0  0  0  0  0  0  0  0  0  0  0
   11.2955    9.8742   -7.4291 H   0  0  0  0  0  0  0  0  0  0  0  0
   12.7800   10.7104   -5.7382 H   0  0  0  0  0  0  0  0  0  0  0  0
   13.1044    9.4911   -3.5778 H   0  0  0  0  0  0  0  0  0  0  0  0
   10.6033    6.3204   -5.0220 H   0  0  0  0  0  0  0  0  0  0  0  0
    8.8880    6.1744   -6.0953 H   0  0  0  0  0  0  0  0  0  0  0  0
    7.9396    7.3343   -6.9668 H   0  0  0  0  0  0  0  0  0  0  0  0
    7.6860    5.0414   -7.8971 H   0  0  0  0  0  0  0  0  0  0  0  0
    9.4111    4.9171   -8.0949 H   0  0  0  0  0  0  0  0  0  0  0  0
    9.7427    1.7302  -13.9782 H   0  0  0  0  0  0  0  0  0  0  0  0
    8.9727   -0.4475  -14.9226 H   0  0  0  0  0  0  0  0  0  0  0  0
    9.7335   -1.2228  -17.1556 H   0  0  0  0  0  0  0  0  0  0  0  0
   12.1934    3.0799  -19.5369 H   0  0  0  0  0  0  0  0  0  0  0  0
   13.7903    2.9765  -18.8148 H   0  0  0  0  0  0  0  0  0  0  0  0
   13.6551    0.5852  -18.5697 H   0  0  0  0  0  0  0  0  0  0  0  0
   13.1821    0.9326  -20.2115 H   0  0  0  0  0  0  0  0  0  0  0  0
   11.7047   -0.7848  -19.0641 H   0  0  0  0  0  0  0  0  0  0  0  0
   10.8053    0.5874  -19.6606 H   0  0  0  0  0  0  0  0  0  0  0  0
    7.6132    6.6970   -9.5952 H   0  0  0  0  0  0  0  0  0  0  0  0
  2  1  2  0
  3  2  1  0
  4  3  1  0
  5  4  1  0
  6  5  1  0
  7  6  1  0
  8  7  1  0
  9  8  1  0
 10  9  1  0
 11 10  1  0
 12 11  1  0
 13 12  1  0
 14 13  1  0
 15 14  2  0
 16 15  1  0
 17 16  2  0
 18 17  1  0
 19 18  1  0
 20 14  1  0
 20 18  2  0
 21 13  1  0
 22 10  1  0
 22 21  1  0
 23  3  1  0
 24 23  2  0
 25 24  1  0
 26 25  2  0
 27 26  1  0
 28 23  1  0
 28 27  2  0
 29  2  1  0
 29 28  1  0
 30 29  1  0
 31 30  1  0
 32 27  1  0
 32 31  1  0
 33  4  1  0
 34  4  1  0
 35  5  1  0
 36  5  1  0
 37  6  1  0
 38  6  1  0
 39  7  1  0
 40  7  1  0
 41  8  1  0
 42  8  1  0
 43  9  1  0
 44  9  1  0
 45 11  1  0
 46 11  1  0
 47 12  1  0
 48 12  1  0
 49 15  1  0
 50 16  1  0
 51 17  1  0
 52 20  1  0
 53 21  1  0
 54 21  1  0
 55 22  1  0
 56 22  1  0
 57 24  1  0
 58 25  1  0
 59 26  1  0
 60 30  1  0
 61 30  1  0
 62 31  1  0
 63 31  1  0
 64 32  1  0
 65 32  1  0
 66 10  1  0
M  CHG  1  10   1
M  END
>  <b_m_subgroup_collapsed>  (30) 
0

>  <r_i_docking_score>  (30) 
-9.5803362895917399

>  <s_m_subgroup_title>  (30) 
glide-dock_SP_D22_pv

>  <s_m_subgroupid>  (30) 
glide-dock_SP_D22_pv

>  <Molecule ChEMBL ID>  (30) 
CHEMBL5182383

>  <Standard Type>  (30) 
Ki

>  <Standard Value>  (30) 
85.0

>  <label>  (30) 
1

$$$$
CHEMBL4779051
     RDKit          3D

 54 57  0  0  1  0  0  0  0  0999 V2000
    4.7880   -1.7839  -15.4713 C   0  0  0  0  0  0  0  0  0  0  0  0
    4.9325   -0.5268  -14.6172 C   0  0  0  0  0  0  0  0  0  0  0  0
    4.0366   -0.2276  -13.8304 O   0  0  0  0  0  0  0  0  0  0  0  0
    6.0841    0.1530  -14.7686 N   0  0  0  0  0  0  0  0  0  0  0  0
    6.4825    1.4204  -14.2464 C   0  0  0  0  0  0  0  0  0  0  0  0
    7.7434    1.8930  -14.6605 C   0  0  0  0  0  0  0  0  0  0  0  0
    8.2109    3.1538  -14.2467 C   0  0  0  0  0  0  0  0  0  0  0  0
    7.4405    3.9672  -13.3948 C   0  0  0  0  0  0  0  0  0  0  0  0
    7.9844    5.1912  -13.0647 O   0  0  0  0  0  0  0  0  0  0  0  0
    7.6225    5.8353  -11.8457 C   0  0  0  0  0  0  0  0  0  0  0  0
    8.3480    5.1809  -10.6504 C   0  0  0  0  0  0  0  0  0  0  0  0
    8.7283    6.1723   -9.6052 N   0  0  1  0  0  0  0  0  0  0  0  0
    8.6675    5.6096   -8.2315 C   0  0  0  0  0  0  0  0  0  0  0  0
    8.9704    6.6752   -7.1605 C   0  0  0  0  0  0  0  0  0  0  0  0
   10.3583    7.2898   -7.3952 C   0  0  2  0  0  0  0  0  0  0  0  0
   10.7368    8.2956   -6.3348 C   0  0  0  0  0  0  0  0  0  0  0  0
   10.4861    9.5912   -6.5005 N   0  0  0  0  0  0  0  0  0  0  0  0
   10.9380   10.2784   -5.3411 O   0  0  0  0  0  0  0  0  0  0  0  0
   11.4432    9.3639   -4.4358 C   0  0  0  0  0  0  0  0  0  0  0  0
   11.9804    9.5195   -3.1519 C   0  0  0  0  0  0  0  0  0  0  0  0
   12.3670    8.3556   -2.4574 C   0  0  0  0  0  0  0  0  0  0  0  0
   12.8861    8.4642   -1.2163 F   0  0  0  0  0  0  0  0  0  0  0  0
   12.2119    7.0813   -3.0519 C   0  0  0  0  0  0  0  0  0  0  0  0
   11.6857    6.9536   -4.3593 C   0  0  0  0  0  0  0  0  0  0  0  0
   11.2994    8.1186   -5.0552 C   0  0  0  0  0  0  0  0  0  0  0  0
   10.4055    7.8732   -8.8237 C   0  0  0  0  0  0  0  0  0  0  0  0
   10.0573    6.8036   -9.8699 C   0  0  0  0  0  0  0  0  0  0  0  0
    6.1696    3.4998  -12.9712 C   0  0  0  0  0  0  0  0  0  0  0  0
    5.6915    2.2383  -13.3954 C   0  0  0  0  0  0  0  0  0  0  0  0
    5.1548   -1.6138  -16.4840 H   0  0  0  0  0  0  0  0  0  0  0  0
    5.3457   -2.6163  -15.0404 H   0  0  0  0  0  0  0  0  0  0  0  0
    3.7418   -2.0838  -15.5425 H   0  0  0  0  0  0  0  0  0  0  0  0
    6.7433   -0.2801  -15.3984 H   0  0  0  0  0  0  0  0  0  0  0  0
    8.3624    1.2943  -15.3124 H   0  0  0  0  0  0  0  0  0  0  0  0
    9.1787    3.4991  -14.5818 H   0  0  0  0  0  0  0  0  0  0  0  0
    7.9472    6.8707  -11.9554 H   0  0  0  0  0  0  0  0  0  0  0  0
    6.5462    5.8861  -11.6893 H   0  0  0  0  0  0  0  0  0  0  0  0
    7.6867    4.4152  -10.2437 H   0  0  0  0  0  0  0  0  0  0  0  0
    9.2436    4.6535  -10.9830 H   0  0  0  0  0  0  0  0  0  0  0  0
    7.6863    5.1920   -8.0427 H   0  0  0  0  0  0  0  0  0  0  0  0
    9.3740    4.7838   -8.1522 H   0  0  0  0  0  0  0  0  0  0  0  0
    8.9320    6.2183   -6.1716 H   0  0  0  0  0  0  0  0  0  0  0  0
    8.2027    7.4525   -7.1663 H   0  0  0  0  0  0  0  0  0  0  0  0
   11.0899    6.4801   -7.3521 H   0  0  0  0  0  0  0  0  0  0  0  0
   12.0827   10.4951   -2.7003 H   0  0  0  0  0  0  0  0  0  0  0  0
   12.5018    6.1953   -2.5072 H   0  0  0  0  0  0  0  0  0  0  0  0
   11.5716    5.9784   -4.8089 H   0  0  0  0  0  0  0  0  0  0  0  0
   11.3968    8.2789   -9.0324 H   0  0  0  0  0  0  0  0  0  0  0  0
    9.7020    8.7030   -8.9162 H   0  0  0  0  0  0  0  0  0  0  0  0
   10.8612    6.0612   -9.8490 H   0  0  0  0  0  0  0  0  0  0  0  0
   10.0620    7.2474  -10.8658 H   0  0  0  0  0  0  0  0  0  0  0  0
    5.5385    4.0945  -12.3304 H   0  0  0  0  0  0  0  0  0  0  0  0
    4.7139    1.9303  -13.0589 H   0  0  0  0  0  0  0  0  0  0  0  0
    8.0042    6.8934   -9.6398 H   0  0  0  0  0  0  0  0  0  0  0  0
  2  1  1  0
  3  2  2  0
  4  2  1  0
  5  4  1  0
  6  5  1  0
  7  6  2  0
  8  7  1  0
  9  8  1  0
 10  9  1  0
 11 10  1  0
 12 11  1  0
 13 12  1  0
 14 13  1  0
 15 14  1  0
 16 15  1  0
 17 16  2  0
 18 17  1  0
 19 18  1  0
 20 19  2  0
 21 20  1  0
 22 21  1  0
 23 21  2  0
 24 23  1  0
 25 16  1  0
 25 19  1  0
 25 24  2  0
 26 15  1  0
 27 12  1  0
 27 26  1  0
 28  8  2  0
 29  5  2  0
 29 28  1  0
 30  1  1  0
 31  1  1  0
 32  1  1  0
 33  4  1  0
 34  6  1  0
 35  7  1  0
 36 10  1  0
 37 10  1  0
 38 11  1  0
 39 11  1  0
 40 13  1  0
 41 13  1  0
 42 14  1  0
 43 14  1  0
 15 44  1  6
 45 20  1  0
 46 23  1  0
 47 24  1  0
 48 26  1  0
 49 26  1  0
 50 27  1  0
 51 27  1  0
 52 28  1  0
 53 29  1  0
 12 54  1  1
M  CHG  1  12   1
M  END
>  <b_m_subgroup_collapsed>  (31) 
0

>  <r_i_docking_score>  (31) 
-9.5689014853510894

>  <s_m_subgroup_title>  (31) 
glide-dock_SP_D22_pv

>  <s_m_subgroupid>  (31) 
glide-dock_SP_D22_pv

>  <Molecule ChEMBL ID>  (31) 
CHEMBL4779051

>  <Standard Type>  (31) 
Ki

>  <Standard Value>  (31) 
10000.0

>  <label>  (31) 
0

$$$$
CHEMBL147159
     RDKit          3D

 55 58  0  0  1  0  0  0  0  0999 V2000
   13.0780    8.9723   -1.4293 O   0  0  0  0  0  0  0  0  0  0  0  0
   12.4601    8.6545   -2.5951 C   0  0  0  0  0  0  0  0  0  0  0  0
   11.9969    9.6910   -3.4132 C   0  0  0  0  0  0  0  0  0  0  0  0
   11.4355    9.4087   -4.6715 C   0  0  0  0  0  0  0  0  0  0  0  0
   11.2864    8.0688   -5.1007 C   0  0  0  0  0  0  0  0  0  0  0  0
   10.7249    7.7829   -6.4454 C   0  0  0  0  0  0  0  0  0  0  0  0
   10.8268    6.5631   -7.0018 C   0  0  0  0  0  0  0  0  0  0  0  0
   10.1789    6.1326   -8.3021 C   0  0  0  0  0  0  0  0  0  0  0  0
    9.7568    7.2757   -9.1462 N   0  0  1  0  0  0  0  0  0  0  0  0
    8.9275    6.8406  -10.3017 C   0  0  0  0  0  0  0  0  0  0  0  0
    9.6851    6.0475  -11.3834 C   0  0  2  0  0  0  0  0  0  0  0  0
   10.6164    6.9396  -12.2257 C   0  0  0  0  0  0  0  0  0  0  0  0
   11.3276    6.1729  -13.3632 C   0  0  0  0  0  0  0  0  0  0  0  0
   10.5473    4.9822  -13.8986 C   0  0  0  0  0  0  0  0  0  0  0  0
    9.3468    4.5686  -13.4405 C   0  0  0  0  0  0  0  0  0  0  0  0
    8.7082    3.3311  -13.9479 C   0  0  0  0  0  0  0  0  0  0  0  0
    9.4770    2.2608  -14.4672 C   0  0  0  0  0  0  0  0  0  0  0  0
    8.8539    1.0655  -14.8801 C   0  0  0  0  0  0  0  0  0  0  0  0
    7.4564    0.9277  -14.7764 C   0  0  0  0  0  0  0  0  0  0  0  0
    6.8376   -0.2276  -15.1577 O   0  0  0  0  0  0  0  0  0  0  0  0
    6.6861    1.9918  -14.2714 C   0  0  0  0  0  0  0  0  0  0  0  0
    7.3033    3.1928  -13.8740 C   0  0  0  0  0  0  0  0  0  0  0  0
    8.6836    5.3216  -12.2943 C   0  0  0  0  0  0  0  0  0  0  0  0
    9.0752    8.3091   -8.3285 C   0  0  0  0  0  0  0  0  0  0  0  0
    9.9750    8.8579   -7.2108 C   0  0  0  0  0  0  0  0  0  0  0  0
   11.6861    7.0258   -4.2253 C   0  0  0  0  0  0  0  0  0  0  0  0
   12.2823    7.3169   -2.9842 C   0  0  0  0  0  0  0  0  0  0  0  0
   13.3099    9.8964   -1.3842 H   0  0  0  0  0  0  0  0  0  0  0  0
   12.0833   10.7014   -3.0470 H   0  0  0  0  0  0  0  0  0  0  0  0
   11.1264   10.2361   -5.2922 H   0  0  0  0  0  0  0  0  0  0  0  0
   11.3576    5.7723   -6.5032 H   0  0  0  0  0  0  0  0  0  0  0  0
   10.8861    5.5094   -8.8408 H   0  0  0  0  0  0  0  0  0  0  0  0
    9.3217    5.5041   -8.0546 H   0  0  0  0  0  0  0  0  0  0  0  0
    8.0897    6.2495   -9.9218 H   0  0  0  0  0  0  0  0  0  0  0  0
    8.4862    7.7162  -10.7792 H   0  0  0  0  0  0  0  0  0  0  0  0
   10.2602    5.2613  -10.9067 H   0  0  0  0  0  0  0  0  0  0  0  0
   10.0248    7.7517  -12.6467 H   0  0  0  0  0  0  0  0  0  0  0  0
   11.3640    7.4197  -11.5940 H   0  0  0  0  0  0  0  0  0  0  0  0
   12.2881    5.7905  -13.0181 H   0  0  0  0  0  0  0  0  0  0  0  0
   11.5582    6.8517  -14.1850 H   0  0  0  0  0  0  0  0  0  0  0  0
   11.0389    4.4474  -14.6973 H   0  0  0  0  0  0  0  0  0  0  0  0
   10.5533    2.3227  -14.5203 H   0  0  0  0  0  0  0  0  0  0  0  0
    9.4556    0.2529  -15.2595 H   0  0  0  0  0  0  0  0  0  0  0  0
    7.4152   -0.9249  -15.4442 H   0  0  0  0  0  0  0  0  0  0  0  0
    5.6159    1.8862  -14.1857 H   0  0  0  0  0  0  0  0  0  0  0  0
    6.6870    3.9925  -13.4907 H   0  0  0  0  0  0  0  0  0  0  0  0
    8.1496    4.6005  -11.6726 H   0  0  0  0  0  0  0  0  0  0  0  0
    7.9336    6.0031  -12.6994 H   0  0  0  0  0  0  0  0  0  0  0  0
    8.7281    9.1307   -8.9573 H   0  0  0  0  0  0  0  0  0  0  0  0
    8.1881    7.8673   -7.8734 H   0  0  0  0  0  0  0  0  0  0  0  0
    9.3273    9.3717   -6.5052 H   0  0  0  0  0  0  0  0  0  0  0  0
   10.6918    9.5832   -7.5964 H   0  0  0  0  0  0  0  0  0  0  0  0
   11.5582    5.9849   -4.4760 H   0  0  0  0  0  0  0  0  0  0  0  0
   12.6077    6.5132   -2.3393 H   0  0  0  0  0  0  0  0  0  0  0  0
   10.5880    7.7099   -9.5196 H   0  0  0  0  0  0  0  0  0  0  0  0
  2  1  1  0
  3  2  1  0
  4  3  2  0
  5  4  1  0
  6  5  1  0
  7  6  2  0
  8  7  1  0
  9  8  1  0
 10  9  1  0
 11 10  1  0
 12 11  1  0
 13 12  1  0
 14 13  1  0
 15 14  2  0
 16 15  1  0
 17 16  1  0
 18 17  2  0
 19 18  1  0
 20 19  1  0
 21 19  2  0
 22 16  2  0
 22 21  1  0
 23 11  1  0
 23 15  1  0
 24  9  1  0
 25  6  1  0
 25 24  1  0
 26  5  2  0
 27  2  2  0
 27 26  1  0
 28  1  1  0
 29  3  1  0
 30  4  1  0
 31  7  1  0
 32  8  1  0
 33  8  1  0
 34 10  1  0
 35 10  1  0
 11 36  1  1
 37 12  1  0
 38 12  1  0
 39 13  1  0
 40 13  1  0
 41 14  1  0
 42 17  1  0
 43 18  1  0
 44 20  1  0
 45 21  1  0
 46 22  1  0
 47 23  1  0
 48 23  1  0
 49 24  1  0
 50 24  1  0
 51 25  1  0
 52 25  1  0
 53 26  1  0
 54 27  1  0
  9 55  1  6
M  CHG  1   9   1
M  END
>  <b_m_subgroup_collapsed>  (32) 
0

>  <r_i_docking_score>  (32) 
-9.5664857274978097

>  <s_m_subgroup_title>  (32) 
glide-dock_SP_D22_pv

>  <s_m_subgroupid>  (32) 
glide-dock_SP_D22_pv

>  <Molecule ChEMBL ID>  (32) 
CHEMBL147159

>  <Standard Type>  (32) 
Ki

>  <Standard Value>  (32) 
2.2

>  <label>  (32) 
1

$$$$
CHEMBL5753002
     RDKit          3D

 53 57  0  0  1  0  0  0  0  0999 V2000
   11.2874   10.5475   -5.9864 O   0  0  0  0  0  0  0  0  0  0  0  0
   11.2441    9.3440   -5.7187 C   0  0  0  0  0  0  0  0  0  0  0  0
   11.6458    8.8509   -4.3509 C   0  0  0  0  0  0  0  0  0  0  0  0
   11.8555    9.7729   -3.3954 N   0  0  0  0  0  0  0  0  0  0  0  0
   12.2749    9.3723   -2.1824 C   0  0  0  0  0  0  0  0  0  0  0  0
   12.4860    8.0323   -1.8469 C   0  0  0  0  0  0  0  0  0  0  0  0
   12.2380    7.0536   -2.8140 C   0  0  0  0  0  0  0  0  0  0  0  0
   11.8176    7.4759   -4.0864 C   0  0  0  0  0  0  0  0  0  0  0  0
   11.5485    6.4552   -5.1425 C   0  0  0  0  0  0  0  0  0  0  0  0
   10.6623    6.9836   -6.2627 C   0  0  0  0  0  0  0  0  0  0  0  0
   10.8453    8.4057   -6.6087 N   0  0  0  0  0  0  0  0  0  0  0  0
   10.5526    8.7187   -8.0152 C   0  0  0  0  0  0  0  0  0  0  0  0
    9.0673    8.4306   -8.3605 C   0  0  0  0  0  0  0  0  0  0  0  0
    8.8867    7.5348   -9.5316 N   0  0  2  0  0  0  0  0  0  0  0  0
    9.4957    6.1854   -9.3711 C   0  0  0  0  0  0  0  0  0  0  0  0
    9.1287    5.2422  -10.5134 C   0  0  0  0  0  0  0  0  0  0  0  0
    9.4084    5.8865  -11.8812 C   0  0  1  0  0  0  0  0  0  0  0  0
    9.0652    4.9382  -12.9948 C   0  0  0  0  0  0  0  0  0  0  0  0
    9.9880    4.6139  -13.8978 N   0  0  0  0  0  0  0  0  0  0  0  0
    9.4561    3.5525  -14.6813 O   0  0  0  0  0  0  0  0  0  0  0  0
    8.1824    3.2387  -14.2340 C   0  0  0  0  0  0  0  0  0  0  0  0
    7.2967    2.2084  -14.5798 C   0  0  0  0  0  0  0  0  0  0  0  0
    7.6045    1.3103  -15.5446 F   0  0  0  0  0  0  0  0  0  0  0  0
    6.0860    2.1189  -13.8615 C   0  0  0  0  0  0  0  0  0  0  0  0
    5.7537    3.0886  -12.8864 C   0  0  0  0  0  0  0  0  0  0  0  0
    6.6596    4.1220  -12.5608 C   0  0  0  0  0  0  0  0  0  0  0  0
    7.9089    4.1638  -13.2220 C   0  0  0  0  0  0  0  0  0  0  0  0
    8.6696    7.2258  -11.9605 C   0  0  0  0  0  0  0  0  0  0  0  0
    9.1621    8.1606  -10.8436 C   0  0  0  0  0  0  0  0  0  0  0  0
   12.4859   10.1432   -1.4591 H   0  0  0  0  0  0  0  0  0  0  0  0
   12.8860    7.7723   -0.8805 H   0  0  0  0  0  0  0  0  0  0  0  0
   12.3942    6.0072   -2.5944 H   0  0  0  0  0  0  0  0  0  0  0  0
   12.4860    6.0660   -5.5346 H   0  0  0  0  0  0  0  0  0  0  0  0
   11.0351    5.6400   -4.6471 H   0  0  0  0  0  0  0  0  0  0  0  0
   10.8305    6.3361   -7.1179 H   0  0  0  0  0  0  0  0  0  0  0  0
    9.6240    6.8513   -5.9548 H   0  0  0  0  0  0  0  0  0  0  0  0
   10.7648    9.7700   -8.2454 H   0  0  0  0  0  0  0  0  0  0  0  0
   11.2538    8.1696   -8.6424 H   0  0  0  0  0  0  0  0  0  0  0  0
    8.5212    7.9969   -7.5217 H   0  0  0  0  0  0  0  0  0  0  0  0
    8.5509    9.3720   -8.5547 H   0  0  0  0  0  0  0  0  0  0  0  0
   10.5811    6.2506   -9.3360 H   0  0  0  0  0  0  0  0  0  0  0  0
    9.1491    5.7421   -8.4375 H   0  0  0  0  0  0  0  0  0  0  0  0
    9.6864    4.3093  -10.4148 H   0  0  0  0  0  0  0  0  0  0  0  0
    8.0779    4.9804  -10.4072 H   0  0  0  0  0  0  0  0  0  0  0  0
   10.4783    6.0998  -11.9341 H   0  0  0  0  0  0  0  0  0  0  0  0
    5.3908    1.3245  -14.0857 H   0  0  0  0  0  0  0  0  0  0  0  0
    4.8130    3.0215  -12.3633 H   0  0  0  0  0  0  0  0  0  0  0  0
    6.4043    4.8338  -11.7893 H   0  0  0  0  0  0  0  0  0  0  0  0
    8.7994    7.6979  -12.9237 H   0  0  0  0  0  0  0  0  0  0  0  0
    7.5990    7.0524  -11.8623 H   0  0  0  0  0  0  0  0  0  0  0  0
    8.6307    9.1109  -10.9124 H   0  0  0  0  0  0  0  0  0  0  0  0
   10.2258    8.3752  -10.9529 H   0  0  0  0  0  0  0  0  0  0  0  0
    7.8729    7.3911   -9.5866 H   0  0  0  0  0  0  0  0  0  0  0  0
  2  1  2  0
  3  2  1  0
  4  3  1  0
  5  4  2  0
  6  5  1  0
  7  6  2  0
  8  3  2  0
  8  7  1  0
  9  8  1  0
 10  9  1  0
 11  2  1  0
 11 10  1  0
 12 11  1  0
 13 12  1  0
 14 13  1  0
 15 14  1  0
 16 15  1  0
 17 16  1  0
 18 17  1  0
 19 18  2  0
 20 19  1  0
 21 20  1  0
 22 21  2  0
 23 22  1  0
 24 22  1  0
 25 24  2  0
 26 25  1  0
 27 18  1  0
 27 21  1  0
 27 26  2  0
 28 17  1  0
 29 14  1  0
 29 28  1  0
 30  5  1  0
 31  6  1  0
 32  7  1  0
 33  9  1  0
 34  9  1  0
 35 10  1  0
 36 10  1  0
 37 12  1  0
 38 12  1  0
 39 13  1  0
 40 13  1  0
 41 15  1  0
 42 15  1  0
 43 16  1  0
 44 16  1  0
 17 45  1  1
 46 24  1  0
 47 25  1  0
 48 26  1  0
 49 28  1  0
 50 28  1  0
 51 29  1  0
 52 29  1  0
 14 53  1  6
M  CHG  1  14   1
M  END
>  <b_m_subgroup_collapsed>  (33) 
0

>  <r_i_docking_score>  (33) 
-9.5538981994692609

>  <s_m_subgroup_title>  (33) 
glide-dock_SP_D22_pv

>  <s_m_subgroupid>  (33) 
glide-dock_SP_D22_pv

>  <Molecule ChEMBL ID>  (33) 
CHEMBL5753002

>  <Standard Type>  (33) 
Ki

>  <Standard Value>  (33) 
10000.0

>  <label>  (33) 
0

$$$$
CHEMBL3235465
     RDKit          3D

 57 60  0  0  1  0  0  0  0  0999 V2000
   11.7411   -0.1723  -18.9722 C   0  0  0  0  0  0  0  0  0  0  0  0
   10.7362   -0.4053  -17.8467 C   0  0  0  0  0  0  0  0  0  0  0  0
   10.0849   -1.4509  -17.8450 O   0  0  0  0  0  0  0  0  0  0  0  0
   10.6101    0.6441  -16.7958 C   0  0  0  0  0  0  0  0  0  0  0  0
    9.7252    0.4314  -15.7011 C   0  0  0  0  0  0  0  0  0  0  0  0
    9.5673    1.4031  -14.6844 C   0  0  0  0  0  0  0  0  0  0  0  0
   10.3196    2.5811  -14.8017 C   0  0  0  0  0  0  0  0  0  0  0  0
   11.1833    2.8021  -15.8504 C   0  0  0  0  0  0  0  0  0  0  0  0
   11.3559    1.8522  -16.8700 C   0  0  0  0  0  0  0  0  0  0  0  0
   11.7845    4.0179  -15.6985 O   0  0  0  0  0  0  0  0  0  0  0  0
   11.3242    4.5981  -14.5470 C   0  0  0  0  0  0  0  0  0  0  0  0
   11.6865    5.6871  -14.1041 O   0  0  0  0  0  0  0  0  0  0  0  0
   10.3955    3.7132  -13.9925 N   0  0  0  0  0  0  0  0  0  0  0  0
    9.7284    3.9141  -12.7116 C   0  0  0  0  0  0  0  0  0  0  0  0
    8.5498    4.9033  -12.8061 C   0  0  0  0  0  0  0  0  0  0  0  0
    8.1451    5.4599  -11.4294 C   0  0  0  0  0  0  0  0  0  0  0  0
    9.1336    6.5497  -10.9728 C   0  0  0  0  0  0  0  0  0  0  0  0
    8.8893    7.0970   -9.6150 N   0  0  0  0  0  0  0  0  0  0  0  0
    9.7162    8.3262   -9.4300 C   0  0  0  0  0  0  0  0  0  0  0  0
    9.7436    8.8732   -7.9935 C   0  0  0  0  0  0  0  0  0  0  0  0
   10.0320    7.8019   -7.0538 N   0  0  0  0  0  0  0  0  0  0  0  0
   10.7259    8.0485   -5.8478 C   0  0  0  0  0  0  0  0  0  0  0  0
   11.2857    6.9717   -5.1151 C   0  0  0  0  0  0  0  0  0  0  0  0
   11.9521    7.1859   -3.8930 C   0  0  0  0  0  0  0  0  0  0  0  0
   12.0856    8.4891   -3.3859 C   0  0  0  0  0  0  0  0  0  0  0  0
   12.7108    8.6975   -2.2050 F   0  0  0  0  0  0  0  0  0  0  0  0
   11.5532    9.5735   -4.1059 C   0  0  0  0  0  0  0  0  0  0  0  0
   10.8865    9.3600   -5.3305 C   0  0  0  0  0  0  0  0  0  0  0  0
    9.0787    6.7007   -7.1290 C   0  0  0  0  0  0  0  0  0  0  0  0
    9.0838    6.0839   -8.5383 C   0  0  0  0  0  0  0  0  0  0  0  0
   11.4751    0.7162  -19.5433 H   0  0  0  0  0  0  0  0  0  0  0  0
   12.7452   -0.0461  -18.5682 H   0  0  0  0  0  0  0  0  0  0  0  0
   11.7541   -1.0229  -19.6535 H   0  0  0  0  0  0  0  0  0  0  0  0
    9.1548   -0.4849  -15.6332 H   0  0  0  0  0  0  0  0  0  0  0  0
    8.8985    1.2384  -13.8529 H   0  0  0  0  0  0  0  0  0  0  0  0
   12.0469    2.0595  -17.6739 H   0  0  0  0  0  0  0  0  0  0  0  0
   10.4842    4.2542  -12.0063 H   0  0  0  0  0  0  0  0  0  0  0  0
    9.3639    2.9727  -12.3139 H   0  0  0  0  0  0  0  0  0  0  0  0
    7.6999    4.3898  -13.2584 H   0  0  0  0  0  0  0  0  0  0  0  0
    8.7900    5.7330  -13.4738 H   0  0  0  0  0  0  0  0  0  0  0  0
    8.0853    4.6399  -10.7150 H   0  0  0  0  0  0  0  0  0  0  0  0
    7.1444    5.8898  -11.4891 H   0  0  0  0  0  0  0  0  0  0  0  0
    9.0752    7.3709  -11.6895 H   0  0  0  0  0  0  0  0  0  0  0  0
   10.1598    6.1862  -11.0158 H   0  0  0  0  0  0  0  0  0  0  0  0
    9.3632    9.1038  -10.1063 H   0  0  0  0  0  0  0  0  0  0  0  0
   10.7443    8.1042   -9.7218 H   0  0  0  0  0  0  0  0  0  0  0  0
    8.7836    9.3285   -7.7433 H   0  0  0  0  0  0  0  0  0  0  0  0
   10.5065    9.6498   -7.9348 H   0  0  0  0  0  0  0  0  0  0  0  0
   11.2133    5.9598   -5.4860 H   0  0  0  0  0  0  0  0  0  0  0  0
   12.3602    6.3481   -3.3477 H   0  0  0  0  0  0  0  0  0  0  0  0
   11.6428   10.5716   -3.7043 H   0  0  0  0  0  0  0  0  0  0  0  0
   10.4862   10.2188   -5.8435 H   0  0  0  0  0  0  0  0  0  0  0  0
    9.2747    5.9329   -6.3871 H   0  0  0  0  0  0  0  0  0  0  0  0
    8.0865    7.0921   -6.9017 H   0  0  0  0  0  0  0  0  0  0  0  0
    8.2995    5.3299   -8.5938 H   0  0  0  0  0  0  0  0  0  0  0  0
   10.0329    5.5689   -8.6970 H   0  0  0  0  0  0  0  0  0  0  0  0
    7.9035    7.3766   -9.6032 H   0  0  0  0  0  0  0  0  0  0  0  0
  2  1  1  0
  3  2  2  0
  4  2  1  0
  5  4  2  0
  6  5  1  0
  7  6  2  0
  8  7  1  0
  9  4  1  0
  9  8  2  0
 10  8  1  0
 11 10  1  0
 12 11  2  0
 13  7  1  0
 13 11  1  0
 14 13  1  0
 15 14  1  0
 16 15  1  0
 17 16  1  0
 18 17  1  0
 19 18  1  0
 20 19  1  0
 21 20  1  0
 22 21  1  0
 23 22  1  0
 24 23  2  0
 25 24  1  0
 26 25  1  0
 27 25  2  0
 28 22  2  0
 28 27  1  0
 29 21  1  0
 30 18  1  0
 30 29  1  0
 31  1  1  0
 32  1  1  0
 33  1  1  0
 34  5  1  0
 35  6  1  0
 36  9  1  0
 37 14  1  0
 38 14  1  0
 39 15  1  0
 40 15  1  0
 41 16  1  0
 42 16  1  0
 43 17  1  0
 44 17  1  0
 45 19  1  0
 46 19  1  0
 47 20  1  0
 48 20  1  0
 49 23  1  0
 50 24  1  0
 51 27  1  0
 52 28  1  0
 53 29  1  0
 54 29  1  0
 55 30  1  0
 56 30  1  0
 57 18  1  0
M  CHG  1  18   1
M  END
>  <b_m_subgroup_collapsed>  (34) 
0

>  <r_i_docking_score>  (34) 
-9.5343346050184596

>  <s_m_subgroup_title>  (34) 
glide-dock_SP_D22_pv

>  <s_m_subgroupid>  (34) 
glide-dock_SP_D22_pv

>  <Molecule ChEMBL ID>  (34) 
CHEMBL3235465

>  <Standard Type>  (34) 
Ki

>  <Standard Value>  (34) 
10000.0

>  <label>  (34) 
0

$$$$
CHEMBL5992622
     RDKit          3D

 53 57  0  0  1  0  0  0  0  0999 V2000
   10.8902   10.4322   -6.1571 O   0  0  0  0  0  0  0  0  0  0  0  0
   11.1757    9.2544   -5.9422 C   0  0  0  0  0  0  0  0  0  0  0  0
   11.6212    8.8166   -4.5647 C   0  0  0  0  0  0  0  0  0  0  0  0
   11.8793    9.7669   -3.6389 N   0  0  0  0  0  0  0  0  0  0  0  0
   12.2943    9.3725   -2.4155 C   0  0  0  0  0  0  0  0  0  0  0  0
   12.4832    8.0363   -2.0403 C   0  0  0  0  0  0  0  0  0  0  0  0
   12.1547    7.0431   -2.9725 C   0  0  0  0  0  0  0  0  0  0  0  0
   11.7141    7.4448   -4.2475 C   0  0  0  0  0  0  0  0  0  0  0  0
   11.3130    6.4138   -5.2565 C   0  0  0  0  0  0  0  0  0  0  0  0
   11.4728    6.8894   -6.6974 C   0  0  0  0  0  0  0  0  0  0  0  0
   11.1250    8.3027   -6.9101 N   0  0  0  0  0  0  0  0  0  0  0  0
   10.7431    8.5796   -8.3009 C   0  0  0  0  0  0  0  0  0  0  0  0
    9.2241    8.3729   -8.5098 C   0  0  0  0  0  0  0  0  0  0  0  0
    8.8861    7.4719   -9.6424 N   0  0  2  0  0  0  0  0  0  0  0  0
    9.3417    6.0758   -9.4468 C   0  0  0  0  0  0  0  0  0  0  0  0
    8.7564    5.1373  -10.4928 C   0  0  0  0  0  0  0  0  0  0  0  0
    9.0195    5.6291  -11.9193 C   0  0  1  0  0  0  0  0  0  0  0  0
    8.4467    4.6609  -12.9264 C   0  0  0  0  0  0  0  0  0  0  0  0
    7.1299    4.4597  -13.0008 N   0  0  0  0  0  0  0  0  0  0  0  0
    6.9098    3.4083  -13.9332 O   0  0  0  0  0  0  0  0  0  0  0  0
    8.1237    2.9723  -14.4380 C   0  0  0  0  0  0  0  0  0  0  0  0
    8.4400    1.9594  -15.3560 C   0  0  0  0  0  0  0  0  0  0  0  0
    9.8023    1.7525  -15.6610 C   0  0  0  0  0  0  0  0  0  0  0  0
   10.7991    2.5542  -15.0536 C   0  0  0  0  0  0  0  0  0  0  0  0
   10.4519    3.5650  -14.1283 C   0  0  0  0  0  0  0  0  0  0  0  0
   11.4180    4.3217  -13.5568 F   0  0  0  0  0  0  0  0  0  0  0  0
    9.0881    3.7714  -13.8191 C   0  0  0  0  0  0  0  0  0  0  0  0
    8.4849    7.0633  -12.0474 C   0  0  0  0  0  0  0  0  0  0  0  0
    9.1496    7.9916  -11.0066 C   0  0  0  0  0  0  0  0  0  0  0  0
   12.4840   10.1573   -1.7030 H   0  0  0  0  0  0  0  0  0  0  0  0
   12.8347    7.7873   -1.0503 H   0  0  0  0  0  0  0  0  0  0  0  0
   12.2418    5.9975   -2.7143 H   0  0  0  0  0  0  0  0  0  0  0  0
   11.9211    5.5288   -5.1061 H   0  0  0  0  0  0  0  0  0  0  0  0
   10.2687    6.1723   -5.0605 H   0  0  0  0  0  0  0  0  0  0  0  0
   12.4856    6.7151   -7.0472 H   0  0  0  0  0  0  0  0  0  0  0  0
   10.8636    6.2329   -7.3086 H   0  0  0  0  0  0  0  0  0  0  0  0
   11.0125    9.6001   -8.5759 H   0  0  0  0  0  0  0  0  0  0  0  0
   11.3442    7.9642   -8.9708 H   0  0  0  0  0  0  0  0  0  0  0  0
    8.7572    7.9661   -7.6106 H   0  0  0  0  0  0  0  0  0  0  0  0
    8.7395    9.3375   -8.6676 H   0  0  0  0  0  0  0  0  0  0  0  0
   10.4289    6.0173   -9.5020 H   0  0  0  0  0  0  0  0  0  0  0  0
    9.0357    5.7252   -8.4604 H   0  0  0  0  0  0  0  0  0  0  0  0
    9.2242    4.1714  -10.3588 H   0  0  0  0  0  0  0  0  0  0  0  0
    7.6862    5.0121  -10.3214 H   0  0  0  0  0  0  0  0  0  0  0  0
   10.0984    5.6758  -12.0611 H   0  0  0  0  0  0  0  0  0  0  0  0
    7.6654    1.3563  -15.8065 H   0  0  0  0  0  0  0  0  0  0  0  0
   10.0849    0.9799  -16.3617 H   0  0  0  0  0  0  0  0  0  0  0  0
   11.8382    2.3881  -15.2995 H   0  0  0  0  0  0  0  0  0  0  0  0
    8.6293    7.4481  -13.0464 H   0  0  0  0  0  0  0  0  0  0  0  0
    7.4043    7.0427  -11.9059 H   0  0  0  0  0  0  0  0  0  0  0  0
    8.7304    8.9939  -11.0971 H   0  0  0  0  0  0  0  0  0  0  0  0
   10.2214    8.0701  -11.1862 H   0  0  0  0  0  0  0  0  0  0  0  0
    7.8611    7.4328   -9.6449 H   0  0  0  0  0  0  0  0  0  0  0  0
  2  1  2  0
  3  2  1  0
  4  3  1  0
  5  4  2  0
  6  5  1  0
  7  6  2  0
  8  3  2  0
  8  7  1  0
  9  8  1  0
 10  9  1  0
 11  2  1  0
 11 10  1  0
 12 11  1  0
 13 12  1  0
 14 13  1  0
 15 14  1  0
 16 15  1  0
 17 16  1  0
 18 17  1  0
 19 18  2  0
 20 19  1  0
 21 20  1  0
 22 21  2  0
 23 22  1  0
 24 23  2  0
 25 24  1  0
 26 25  1  0
 27 18  1  0
 27 21  1  0
 27 25  2  0
 28 17  1  0
 29 14  1  0
 29 28  1  0
 30  5  1  0
 31  6  1  0
 32  7  1  0
 33  9  1  0
 34  9  1  0
 35 10  1  0
 36 10  1  0
 37 12  1  0
 38 12  1  0
 39 13  1  0
 40 13  1  0
 41 15  1  0
 42 15  1  0
 43 16  1  0
 44 16  1  0
 17 45  1  6
 46 22  1  0
 47 23  1  0
 48 24  1  0
 49 28  1  0
 50 28  1  0
 51 29  1  0
 52 29  1  0
 14 53  1  6
M  CHG  1  14   1
M  END
>  <b_m_subgroup_collapsed>  (35) 
0

>  <r_i_docking_score>  (35) 
-9.5302748306896206

>  <s_m_subgroup_title>  (35) 
glide-dock_SP_D22_pv

>  <s_m_subgroupid>  (35) 
glide-dock_SP_D22_pv

>  <Molecule ChEMBL ID>  (35) 
CHEMBL5992622

>  <Standard Type>  (35) 
Ki

>  <Standard Value>  (35) 
10000.0

>  <label>  (35) 
0

$$$$
CHEMBL5089348
     RDKit          3D

 55 58  0  0  1  0  0  0  0  0999 V2000
   10.7031    3.3863  -14.7821 O   0  0  0  0  0  0  0  0  0  0  0  0
    9.4757    3.9186  -14.1696 S   0  0  0  0  0  0  0  0  0  0  0  0
    8.8862    5.1750  -14.6507 O   0  0  0  0  0  0  0  0  0  0  0  0
    9.7684    4.0819  -12.3723 C   0  0  0  0  0  0  0  0  0  0  0  0
    8.7889    5.0770  -11.7166 C   0  0  2  0  0  0  0  0  0  0  0  0
    9.2434    6.5442  -11.7819 C   0  0  0  0  0  0  0  0  0  0  0  0
    9.4295    6.9547  -10.3210 C   0  0  0  0  0  0  0  0  0  0  0  0
    8.4860    6.1056   -9.5691 N   0  0  2  0  0  0  0  0  0  0  0  0
    8.6481    6.0072   -8.0950 C   0  0  0  0  0  0  0  0  0  0  0  0
    9.0454    7.3090   -7.3803 C   0  0  0  0  0  0  0  0  0  0  0  0
   10.5700    7.5347   -7.3413 C   0  0  0  0  0  0  0  0  0  0  0  0
   10.9626    8.4602   -6.2385 C   0  0  0  0  0  0  0  0  0  0  0  0
   10.8860    9.7736   -6.4094 N   0  0  0  0  0  0  0  0  0  0  0  0
   11.2853   10.3799   -5.1879 O   0  0  0  0  0  0  0  0  0  0  0  0
   11.6311    9.3954   -4.2787 C   0  0  0  0  0  0  0  0  0  0  0  0
   12.0858    9.4670   -2.9593 C   0  0  0  0  0  0  0  0  0  0  0  0
   12.3823    8.2572   -2.3012 C   0  0  0  0  0  0  0  0  0  0  0  0
   12.8846    8.2866   -1.0492 F   0  0  0  0  0  0  0  0  0  0  0  0
   12.1703    7.0171   -2.9486 C   0  0  0  0  0  0  0  0  0  0  0  0
   11.6860    6.9718   -4.2741 C   0  0  0  0  0  0  0  0  0  0  0  0
   11.4243    8.1889   -4.9410 C   0  0  0  0  0  0  0  0  0  0  0  0
    8.5650    4.7922  -10.2309 C   0  0  0  0  0  0  0  0  0  0  0  0
    8.2109    2.6607  -14.2566 C   0  0  0  0  0  0  0  0  0  0  0  0
    6.8906    2.9654  -13.8661 C   0  0  0  0  0  0  0  0  0  0  0  0
    5.9234    1.9456  -13.8468 C   0  0  0  0  0  0  0  0  0  0  0  0
    6.2449    0.6463  -14.2942 C   0  0  0  0  0  0  0  0  0  0  0  0
    5.1616   -0.4121  -14.3898 C   0  0  0  0  0  0  0  0  0  0  0  0
    5.6856   -1.6272  -14.2476 F   0  0  0  0  0  0  0  0  0  0  0  0
    4.2380   -0.2285  -13.4473 F   0  0  0  0  0  0  0  0  0  0  0  0
    4.5749   -0.3359  -15.5825 F   0  0  0  0  0  0  0  0  0  0  0  0
    7.5671    0.3578  -14.6920 C   0  0  0  0  0  0  0  0  0  0  0  0
    8.5555    1.3546  -14.6517 C   0  0  0  0  0  0  0  0  0  0  0  0
    9.6888    3.0800  -11.9490 H   0  0  0  0  0  0  0  0  0  0  0  0
   10.8005    4.3964  -12.2472 H   0  0  0  0  0  0  0  0  0  0  0  0
    7.8154    5.0191  -12.1951 H   0  0  0  0  0  0  0  0  0  0  0  0
   10.1511    6.6948  -12.3682 H   0  0  0  0  0  0  0  0  0  0  0  0
    8.4591    7.1481  -12.2395 H   0  0  0  0  0  0  0  0  0  0  0  0
   10.4531    6.7211  -10.0275 H   0  0  0  0  0  0  0  0  0  0  0  0
    9.2434    8.0180  -10.1654 H   0  0  0  0  0  0  0  0  0  0  0  0
    7.6910    5.6629   -7.6987 H   0  0  0  0  0  0  0  0  0  0  0  0
    9.3649    5.2257   -7.8391 H   0  0  0  0  0  0  0  0  0  0  0  0
    8.5106    8.1748   -7.7744 H   0  0  0  0  0  0  0  0  0  0  0  0
    8.6961    7.2111   -6.3509 H   0  0  0  0  0  0  0  0  0  0  0  0
   11.0890    6.5867   -7.2064 H   0  0  0  0  0  0  0  0  0  0  0  0
   10.9283    7.9443   -8.2847 H   0  0  0  0  0  0  0  0  0  0  0  0
   12.2228   10.4198   -2.4738 H   0  0  0  0  0  0  0  0  0  0  0  0
   12.3861    6.0955   -2.4258 H   0  0  0  0  0  0  0  0  0  0  0  0
   11.5305    6.0243   -4.7657 H   0  0  0  0  0  0  0  0  0  0  0  0
    7.6863    4.1766  -10.0516 H   0  0  0  0  0  0  0  0  0  0  0  0
    9.4227    4.2429   -9.8393 H   0  0  0  0  0  0  0  0  0  0  0  0
    6.6079    3.9654  -13.5815 H   0  0  0  0  0  0  0  0  0  0  0  0
    4.9150    2.1805  -13.5395 H   0  0  0  0  0  0  0  0  0  0  0  0
    7.8238   -0.6274  -15.0453 H   0  0  0  0  0  0  0  0  0  0  0  0
    9.5706    1.1180  -14.9397 H   0  0  0  0  0  0  0  0  0  0  0  0
    7.5685    6.5183   -9.7520 H   0  0  0  0  0  0  0  0  0  0  0  0
  2  1  2  0
  3  2  2  0
  4  2  1  0
  5  4  1  0
  6  5  1  0
  7  6  1  0
  8  7  1  0
  9  8  1  0
 10  9  1  0
 11 10  1  0
 12 11  1  0
 13 12  2  0
 14 13  1  0
 15 14  1  0
 16 15  2  0
 17 16  1  0
 18 17  1  0
 19 17  2  0
 20 19  1  0
 21 12  1  0
 21 15  1  0
 21 20  2  0
 22  5  1  0
 22  8  1  0
 23  2  1  0
 24 23  1  0
 25 24  2  0
 26 25  1  0
 27 26  1  0
 28 27  1  0
 29 27  1  0
 30 27  1  0
 31 26  2  0
 32 23  2  0
 32 31  1  0
 33  4  1  0
 34  4  1  0
  5 35  1  6
 36  6  1  0
 37  6  1  0
 38  7  1  0
 39  7  1  0
 40  9  1  0
 41  9  1  0
 42 10  1  0
 43 10  1  0
 44 11  1  0
 45 11  1  0
 46 16  1  0
 47 19  1  0
 48 20  1  0
 49 22  1  0
 50 22  1  0
 51 24  1  0
 52 25  1  0
 53 31  1  0
 54 32  1  0
  8 55  1  1
M  CHG  1   8   1
M  END
>  <b_m_subgroup_collapsed>  (36) 
0

>  <r_i_docking_score>  (36) 
-9.5063899000544296

>  <s_m_subgroup_title>  (36) 
glide-dock_SP_D22_pv

>  <s_m_subgroupid>  (36) 
glide-dock_SP_D22_pv

>  <Molecule ChEMBL ID>  (36) 
CHEMBL5089348

>  <Standard Type>  (36) 
Ki

>  <Standard Value>  (36) 
95.5

>  <label>  (36) 
1

$$$$
CHEMBL4777080
     RDKit          3D

 63 66  0  0  1  0  0  0  0  0999 V2000
   11.2863    9.5933   -7.4567 O   0  0  0  0  0  0  0  0  0  0  0  0
   11.0776    8.4713   -6.9995 C   0  0  0  0  0  0  0  0  0  0  0  0
   11.2849    8.2994   -5.5072 C   0  0  0  0  0  0  0  0  0  0  0  0
   11.2861    9.4616   -4.6983 C   0  0  0  0  0  0  0  0  0  0  0  0
   11.6850    9.4156   -3.3503 C   0  0  0  0  0  0  0  0  0  0  0  0
   12.0864    8.1991   -2.7760 C   0  0  0  0  0  0  0  0  0  0  0  0
   12.4936    8.1677   -1.4858 F   0  0  0  0  0  0  0  0  0  0  0  0
   12.0718    7.0261   -3.5506 C   0  0  0  0  0  0  0  0  0  0  0  0
   11.6860    7.0768   -4.9067 C   0  0  0  0  0  0  0  0  0  0  0  0
   10.7577    7.4374   -7.8230 N   0  0  0  0  0  0  0  0  0  0  0  0
   10.0938    6.1793   -7.4576 C   0  0  0  0  0  0  0  0  0  0  0  0
    8.8485    5.9238   -8.3297 C   0  0  0  0  0  0  0  0  0  0  0  0
    9.1765    6.0111   -9.8302 C   0  0  0  0  0  0  0  0  0  0  0  0
    7.9847    5.7719  -10.6678 N   0  0  0  0  0  0  0  0  0  0  0  0
    8.2029    5.6998  -12.1334 C   0  0  0  0  0  0  0  0  0  0  0  0
    9.1498    4.5616  -12.5524 C   0  0  0  0  0  0  0  0  0  0  0  0
    9.2123    4.4983  -14.4069 S   0  0  0  0  0  0  0  0  0  0  0  0
   10.5654    5.0845  -14.8107 O   0  0  0  0  0  0  0  0  0  0  0  0
    9.3101    2.6455  -14.6322 C   0  0  0  0  0  0  0  0  0  0  0  0
    9.8482    2.3062  -16.0206 C   0  0  0  0  0  0  0  0  0  0  0  0
   10.8788    1.3507  -16.1493 C   0  0  0  0  0  0  0  0  0  0  0  0
   11.3821    1.0039  -17.4179 C   0  0  0  0  0  0  0  0  0  0  0  0
   10.8537    1.6088  -18.5727 C   0  0  0  0  0  0  0  0  0  0  0  0
   11.3361    1.2758  -19.7930 F   0  0  0  0  0  0  0  0  0  0  0  0
    9.8193    2.5566  -18.4567 C   0  0  0  0  0  0  0  0  0  0  0  0
    9.3155    2.9005  -17.1873 C   0  0  0  0  0  0  0  0  0  0  0  0
    7.9932    1.9180  -14.3319 C   0  0  0  0  0  0  0  0  0  0  0  0
    7.9561    0.5083  -14.4517 C   0  0  0  0  0  0  0  0  0  0  0  0
    6.7864   -0.2152  -14.1495 C   0  0  0  0  0  0  0  0  0  0  0  0
    5.6422    0.4629  -13.6963 C   0  0  0  0  0  0  0  0  0  0  0  0
    4.5051   -0.2203  -13.4290 F   0  0  0  0  0  0  0  0  0  0  0  0
    5.6770    1.8584  -13.5344 C   0  0  0  0  0  0  0  0  0  0  0  0
    6.8239    2.5871  -13.8921 C   0  0  0  0  0  0  0  0  0  0  0  0
    9.8115    7.3824  -10.1131 C   0  0  0  0  0  0  0  0  0  0  0  0
   11.0723    7.5041   -9.2627 C   0  0  0  0  0  0  0  0  0  0  0  0
   11.0174   10.4219   -5.1171 H   0  0  0  0  0  0  0  0  0  0  0  0
   11.6983   10.3197   -2.7591 H   0  0  0  0  0  0  0  0  0  0  0  0
   12.3871    6.0900   -3.1122 H   0  0  0  0  0  0  0  0  0  0  0  0
   11.7723    6.1689   -5.4840 H   0  0  0  0  0  0  0  0  0  0  0  0
   10.8132    5.3764   -7.6134 H   0  0  0  0  0  0  0  0  0  0  0  0
    9.7725    6.1679   -6.4172 H   0  0  0  0  0  0  0  0  0  0  0  0
    8.4193    4.9497   -8.0883 H   0  0  0  0  0  0  0  0  0  0  0  0
    8.0977    6.6669   -8.0714 H   0  0  0  0  0  0  0  0  0  0  0  0
    9.8984    5.2224  -10.0407 H   0  0  0  0  0  0  0  0  0  0  0  0
    7.5017    4.9441  -10.3470 H   0  0  0  0  0  0  0  0  0  0  0  0
    7.2254    5.5527  -12.5906 H   0  0  0  0  0  0  0  0  0  0  0  0
    8.5594    6.6567  -12.5121 H   0  0  0  0  0  0  0  0  0  0  0  0
   10.1645    4.6994  -12.1839 H   0  0  0  0  0  0  0  0  0  0  0  0
    8.7841    3.6204  -12.1570 H   0  0  0  0  0  0  0  0  0  0  0  0
   10.0424    2.2947  -13.9028 H   0  0  0  0  0  0  0  0  0  0  0  0
   11.2791    0.8706  -15.2689 H   0  0  0  0  0  0  0  0  0  0  0  0
   12.1732    0.2736  -17.5059 H   0  0  0  0  0  0  0  0  0  0  0  0
    9.4129    3.0177  -19.3445 H   0  0  0  0  0  0  0  0  0  0  0  0
    8.5151    3.6197  -17.1222 H   0  0  0  0  0  0  0  0  0  0  0  0
    8.8303   -0.0367  -14.7762 H   0  0  0  0  0  0  0  0  0  0  0  0
    6.7694   -1.2891  -14.2611 H   0  0  0  0  0  0  0  0  0  0  0  0
    4.7965    2.3762  -13.1808 H   0  0  0  0  0  0  0  0  0  0  0  0
    6.7780    3.6582  -13.7922 H   0  0  0  0  0  0  0  0  0  0  0  0
   10.0948    7.4812  -11.1601 H   0  0  0  0  0  0  0  0  0  0  0  0
    9.1139    8.1922   -9.8906 H   0  0  0  0  0  0  0  0  0  0  0  0
   11.6359    8.3944   -9.5481 H   0  0  0  0  0  0  0  0  0  0  0  0
   11.6860    6.6482   -9.5374 H   0  0  0  0  0  0  0  0  0  0  0  0
    7.3632    6.5774  -10.4984 H   0  0  0  0  0  0  0  0  0  0  0  0
  2  1  2  0
  3  2  1  0
  4  3  1  0
  5  4  2  0
  6  5  1  0
  7  6  1  0
  8  6  2  0
  9  3  2  0
  9  8  1  0
 10  2  1  0
 11 10  1  0
 12 11  1  0
 13 12  1  0
 14 13  1  0
 15 14  1  0
 16 15  1  0
 17 16  1  1
 18 17  2  0
 19 17  1  0
 20 19  1  0
 21 20  1  0
 22 21  2  0
 23 22  1  0
 24 23  1  0
 25 23  2  0
 26 20  2  0
 26 25  1  0
 27 19  1  0
 28 27  1  0
 29 28  2  0
 30 29  1  0
 31 30  1  0
 32 30  2  0
 33 27  2  0
 33 32  1  0
 34 13  1  0
 35 10  1  0
 35 34  1  0
 36  4  1  0
 37  5  1  0
 38  8  1  0
 39  9  1  0
 40 11  1  0
 41 11  1  0
 42 12  1  0
 43 12  1  0
 44 13  1  0
 45 14  1  0
 46 15  1  0
 47 15  1  0
 48 16  1  0
 49 16  1  0
 50 19  1  0
 51 21  1  0
 52 22  1  0
 53 25  1  0
 54 26  1  0
 55 28  1  0
 56 29  1  0
 57 32  1  0
 58 33  1  0
 59 34  1  0
 60 34  1  0
 61 35  1  0
 62 35  1  0
 63 14  1  0
M  CHG  1  14   1
M  END
>  <b_m_subgroup_collapsed>  (37) 
0

>  <r_i_docking_score>  (37) 
-9.4982562104811805

>  <s_m_subgroup_title>  (37) 
glide-dock_SP_D22_pv

>  <s_m_subgroupid>  (37) 
glide-dock_SP_D22_pv

>  <Molecule ChEMBL ID>  (37) 
CHEMBL4777080

>  <Standard Type>  (37) 
Ki

>  <Standard Value>  (37) 
156000.0

>  <label>  (37) 
0

$$$$
CHEMBL106660
     RDKit          3D

 65 69  0  0  1  0  0  0  0  0999 V2000
   10.0860   -0.0123  -15.5062 Cl  0  0  0  0  0  0  0  0  0  0  0  0
    9.2139    1.3278  -14.8578 C   0  0  0  0  0  0  0  0  0  0  0  0
    7.8078    1.2911  -14.7736 C   0  0  0  0  0  0  0  0  0  0  0  0
    7.1085    2.4017  -14.2639 C   0  0  0  0  0  0  0  0  0  0  0  0
    7.8127    3.5505  -13.8467 C   0  0  0  0  0  0  0  0  0  0  0  0
    9.2231    3.5883  -13.9258 C   0  0  0  0  0  0  0  0  0  0  0  0
   10.0120    4.8143  -13.4860 C   0  0  2  0  0  0  0  0  0  0  0  0
    9.1698    5.8240  -12.9234 O   0  0  0  0  0  0  0  0  0  0  0  0
    9.7654    6.5740  -11.8665 C   0  0  1  0  0  0  0  0  0  0  0  0
    9.1321    7.9788  -11.7343 C   0  0  0  0  0  0  0  0  0  0  0  0
    9.5271    8.6718  -10.3891 C   0  0  2  0  0  0  0  0  0  0  0  0
   11.0586    8.7939  -10.2490 C   0  0  0  0  0  0  0  0  0  0  0  0
   11.4861    7.4456   -9.6654 C   0  0  0  0  0  0  0  0  0  0  0  0
   10.1519    6.7147   -9.3529 C   0  0  2  0  0  0  0  0  0  0  0  0
    9.6356    5.8303  -10.5174 C   0  0  0  0  0  0  0  0  0  0  0  0
    9.1745    7.8173   -9.2330 N   0  0  1  0  0  0  0  0  0  0  0  0
    9.1120    8.5800   -7.9455 C   0  0  0  0  0  0  0  0  0  0  0  0
    9.5213    7.8417   -6.6492 C   0  0  0  0  0  0  0  0  0  0  0  0
   11.0464    7.8267   -6.3860 C   0  0  0  0  0  0  0  0  0  0  0  0
   11.4494    7.9659   -4.9324 C   0  0  0  0  0  0  0  0  0  0  0  0
   11.6462    9.2490   -4.3809 C   0  0  0  0  0  0  0  0  0  0  0  0
   12.0615    9.3828   -3.0441 C   0  0  0  0  0  0  0  0  0  0  0  0
   12.2784    8.2434   -2.2482 C   0  0  0  0  0  0  0  0  0  0  0  0
   12.0863    6.9623   -2.7964 C   0  0  0  0  0  0  0  0  0  0  0  0
   11.6853    6.8250   -4.1386 C   0  0  0  0  0  0  0  0  0  0  0  0
   10.9048    5.3683  -14.6008 C   0  0  0  0  0  0  0  0  0  0  0  0
   10.4756    5.3713  -15.9463 C   0  0  0  0  0  0  0  0  0  0  0  0
   11.3022    5.8810  -16.9652 C   0  0  0  0  0  0  0  0  0  0  0  0
   12.5735    6.3945  -16.6493 C   0  0  0  0  0  0  0  0  0  0  0  0
   13.0175    6.3836  -15.3139 C   0  0  0  0  0  0  0  0  0  0  0  0
   12.1897    5.8683  -14.2977 C   0  0  0  0  0  0  0  0  0  0  0  0
    9.9166    2.4652  -14.4274 C   0  0  0  0  0  0  0  0  0  0  0  0
    7.2692    0.4129  -15.1020 H   0  0  0  0  0  0  0  0  0  0  0  0
    6.0320    2.3791  -14.2026 H   0  0  0  0  0  0  0  0  0  0  0  0
    7.2601    4.3953  -13.4637 H   0  0  0  0  0  0  0  0  0  0  0  0
   10.6729    4.4285  -12.7111 H   0  0  0  0  0  0  0  0  0  0  0  0
   10.8118    6.7246  -12.1161 H   0  0  0  0  0  0  0  0  0  0  0  0
    8.0512    7.9027  -11.8404 H   0  0  0  0  0  0  0  0  0  0  0  0
    9.4483    8.5960  -12.5747 H   0  0  0  0  0  0  0  0  0  0  0  0
    9.0201    9.6347  -10.3122 H   0  0  0  0  0  0  0  0  0  0  0  0
   11.5768    8.9724  -11.1801 H   0  0  0  0  0  0  0  0  0  0  0  0
   11.3345    9.6064   -9.5744 H   0  0  0  0  0  0  0  0  0  0  0  0
   12.1316    6.9409  -10.3733 H   0  0  0  0  0  0  0  0  0  0  0  0
   12.1062    7.6012   -8.7863 H   0  0  0  0  0  0  0  0  0  0  0  0
   10.2096    6.0920   -8.4619 H   0  0  0  0  0  0  0  0  0  0  0  0
   10.1154    4.8584  -10.5378 H   0  0  0  0  0  0  0  0  0  0  0  0
    8.5835    5.5944  -10.3446 H   0  0  0  0  0  0  0  0  0  0  0  0
    8.0859    8.9376   -7.8396 H   0  0  0  0  0  0  0  0  0  0  0  0
    9.7019    9.4909   -8.0077 H   0  0  0  0  0  0  0  0  0  0  0  0
    9.0776    6.8474   -6.5682 H   0  0  0  0  0  0  0  0  0  0  0  0
    9.0668    8.4199   -5.8470 H   0  0  0  0  0  0  0  0  0  0  0  0
   11.5298    8.6466   -6.9169 H   0  0  0  0  0  0  0  0  0  0  0  0
   11.4843    6.9039   -6.7658 H   0  0  0  0  0  0  0  0  0  0  0  0
   11.4828   10.1334   -4.9793 H   0  0  0  0  0  0  0  0  0  0  0  0
   12.1979   10.3679   -2.6225 H   0  0  0  0  0  0  0  0  0  0  0  0
   12.5851    8.3564   -1.2190 H   0  0  0  0  0  0  0  0  0  0  0  0
   12.2542    6.0818   -2.1906 H   0  0  0  0  0  0  0  0  0  0  0  0
   11.5469    5.8376   -4.5543 H   0  0  0  0  0  0  0  0  0  0  0  0
    9.4976    4.9972  -16.2057 H   0  0  0  0  0  0  0  0  0  0  0  0
   10.9569    5.8912  -17.9895 H   0  0  0  0  0  0  0  0  0  0  0  0
   13.2073    6.7942  -17.4279 H   0  0  0  0  0  0  0  0  0  0  0  0
   13.9991    6.7664  -15.0675 H   0  0  0  0  0  0  0  0  0  0  0  0
   12.5546    5.8552  -13.2830 H   0  0  0  0  0  0  0  0  0  0  0  0
   10.9953    2.4792  -14.4904 H   0  0  0  0  0  0  0  0  0  0  0  0
    8.2393    7.4487   -9.3923 H   0  0  0  0  0  0  0  0  0  0  0  0
  2  1  1  0
  3  2  1  0
  4  3  2  0
  5  4  1  0
  6  5  2  0
  7  6  1  0
  8  7  1  0
  9  8  1  0
 10  9  1  0
 11 10  1  0
 12 11  1  0
 13 12  1  0
 14 13  1  0
 15  9  1  0
 15 14  1  0
 16 11  1  0
 16 14  1  0
 17 16  1  0
 18 17  1  0
 19 18  1  0
 20 19  1  0
 21 20  2  0
 22 21  1  0
 23 22  2  0
 24 23  1  0
 25 20  1  0
 25 24  2  0
 26  7  1  0
 27 26  2  0
 28 27  1  0
 29 28  2  0
 30 29  1  0
 31 26  1  0
 31 30  2  0
 32  2  2  0
 32  6  1  0
 33  3  1  0
 34  4  1  0
 35  5  1  0
  7 36  1  1
  9 37  1  6
 38 10  1  0
 39 10  1  0
 11 40  1  1
 41 12  1  0
 42 12  1  0
 43 13  1  0
 44 13  1  0
 14 45  1  1
 46 15  1  0
 47 15  1  0
 48 17  1  0
 49 17  1  0
 50 18  1  0
 51 18  1  0
 52 19  1  0
 53 19  1  0
 54 21  1  0
 55 22  1  0
 56 23  1  0
 57 24  1  0
 58 25  1  0
 59 27  1  0
 60 28  1  0
 61 29  1  0
 62 30  1  0
 63 31  1  0
 64 32  1  0
 16 65  1  6
M  CHG  1  16   1
M  END
>  <b_m_subgroup_collapsed>  (38) 
0

>  <r_i_docking_score>  (38) 
-9.4965867798605501

>  <s_m_subgroup_title>  (38) 
glide-dock_SP_D22_pv

>  <s_m_subgroupid>  (38) 
glide-dock_SP_D22_pv

>  <Molecule ChEMBL ID>  (38) 
CHEMBL106660

>  <Standard Type>  (38) 
Ki

>  <Standard Value>  (38) 
59.0

>  <label>  (38) 
1

$$$$
CHEMBL363829
     RDKit          3D

 60 64  0  0  1  0  0  0  0  0999 V2000
    9.9503    1.1339  -14.9477 C   0  0  0  0  0  0  0  0  0  0  0  0
    9.2143    2.3747  -15.4966 C   0  0  0  0  0  0  0  0  0  0  0  0
    8.6221    2.0259  -16.8804 C   0  0  0  0  0  0  0  0  0  0  0  0
   10.2266    3.5246  -15.7007 C   0  0  0  0  0  0  0  0  0  0  0  0
   10.5932    4.2095  -14.3842 C   0  0  0  0  0  0  0  0  0  0  0  0
    9.4086    4.7414  -13.7370 N   0  0  0  0  0  0  0  0  0  0  0  0
    8.2593    3.9372  -13.6691 C   0  0  0  0  0  0  0  0  0  0  0  0
    7.2391    4.2717  -12.7395 C   0  0  0  0  0  0  0  0  0  0  0  0
    7.3992    5.4332  -11.7689 C   0  0  0  0  0  0  0  0  0  0  0  0
    8.2235    5.0076  -10.5389 C   0  0  0  0  0  0  0  0  0  0  0  0
    8.4860    6.1334   -9.6053 N   0  0  0  0  0  0  0  0  0  0  0  0
    8.6101    5.6773   -8.1940 C   0  0  0  0  0  0  0  0  0  0  0  0
    8.9314    6.8331   -7.2270 C   0  0  0  0  0  0  0  0  0  0  0  0
   10.1013    7.5835   -7.6712 N   0  0  0  0  0  0  0  0  0  0  0  0
   10.7338    8.4381   -6.7314 C   0  0  0  0  0  0  0  0  0  0  0  0
   10.9084    9.6998   -7.0516 N   0  0  0  0  0  0  0  0  0  0  0  0
   11.6709   10.5338   -5.8469 S   0  0  0  0  0  0  0  0  0  0  0  0
   11.7543    9.1794   -4.7495 C   0  0  0  0  0  0  0  0  0  0  0  0
   12.2491    9.1293   -3.4347 C   0  0  0  0  0  0  0  0  0  0  0  0
   12.2607    7.9063   -2.7459 C   0  0  0  0  0  0  0  0  0  0  0  0
   11.7912    6.7474   -3.3876 C   0  0  0  0  0  0  0  0  0  0  0  0
   11.2863    6.8128   -4.7032 C   0  0  0  0  0  0  0  0  0  0  0  0
   11.2251    8.0331   -5.4198 C   0  0  0  0  0  0  0  0  0  0  0  0
    9.9508    8.0760   -9.0431 C   0  0  0  0  0  0  0  0  0  0  0  0
    9.6535    6.9426  -10.0300 C   0  0  0  0  0  0  0  0  0  0  0  0
    6.0815    3.4732  -12.6466 C   0  0  0  0  0  0  0  0  0  0  0  0
    5.9489    2.3272  -13.4468 C   0  0  0  0  0  0  0  0  0  0  0  0
    4.8692    1.5243  -13.3040 F   0  0  0  0  0  0  0  0  0  0  0  0
    6.9557    1.9901  -14.3667 C   0  0  0  0  0  0  0  0  0  0  0  0
    8.1154    2.7889  -14.5001 C   0  0  0  0  0  0  0  0  0  0  0  0
    9.2744    0.2874  -14.8221 H   0  0  0  0  0  0  0  0  0  0  0  0
   10.7509    0.8138  -15.6155 H   0  0  0  0  0  0  0  0  0  0  0  0
   10.3980    1.3359  -13.9750 H   0  0  0  0  0  0  0  0  0  0  0  0
    7.9618    1.1601  -16.8479 H   0  0  0  0  0  0  0  0  0  0  0  0
    8.0549    2.8606  -17.2910 H   0  0  0  0  0  0  0  0  0  0  0  0
    9.4121    1.7895  -17.5940 H   0  0  0  0  0  0  0  0  0  0  0  0
    9.7927    4.2822  -16.3561 H   0  0  0  0  0  0  0  0  0  0  0  0
   11.1236    3.1676  -16.2086 H   0  0  0  0  0  0  0  0  0  0  0  0
   11.2899    5.0272  -14.5708 H   0  0  0  0  0  0  0  0  0  0  0  0
   11.0940    3.5160  -13.7086 H   0  0  0  0  0  0  0  0  0  0  0  0
    9.5061    5.5439  -13.1339 H   0  0  0  0  0  0  0  0  0  0  0  0
    7.8469    6.2845  -12.2807 H   0  0  0  0  0  0  0  0  0  0  0  0
    6.4122    5.7719  -11.4505 H   0  0  0  0  0  0  0  0  0  0  0  0
    7.6869    4.2059  -10.0285 H   0  0  0  0  0  0  0  0  0  0  0  0
    9.1712    4.5625  -10.8467 H   0  0  0  0  0  0  0  0  0  0  0  0
    7.6865    5.1943   -7.8761 H   0  0  0  0  0  0  0  0  0  0  0  0
    9.3989    4.9266   -8.1339 H   0  0  0  0  0  0  0  0  0  0  0  0
    8.0860    7.5197   -7.1636 H   0  0  0  0  0  0  0  0  0  0  0  0
    9.0719    6.4376   -6.2236 H   0  0  0  0  0  0  0  0  0  0  0  0
   12.6237   10.0244   -2.9608 H   0  0  0  0  0  0  0  0  0  0  0  0
   12.6394    7.8566   -1.7357 H   0  0  0  0  0  0  0  0  0  0  0  0
   11.8094    5.8024   -2.8642 H   0  0  0  0  0  0  0  0  0  0  0  0
   10.9284    5.9071   -5.1659 H   0  0  0  0  0  0  0  0  0  0  0  0
    9.1471    8.8141   -9.0711 H   0  0  0  0  0  0  0  0  0  0  0  0
   10.8616    8.5844   -9.3639 H   0  0  0  0  0  0  0  0  0  0  0  0
   10.5307    6.2988  -10.1066 H   0  0  0  0  0  0  0  0  0  0  0  0
    9.4779    7.3626  -11.0207 H   0  0  0  0  0  0  0  0  0  0  0  0
    5.3113    3.7107  -11.9269 H   0  0  0  0  0  0  0  0  0  0  0  0
    6.8341    1.0925  -14.9533 H   0  0  0  0  0  0  0  0  0  0  0  0
    7.6647    6.7445   -9.6446 H   0  0  0  0  0  0  0  0  0  0  0  0
  2  1  1  0
  3  2  1  0
  4  2  1  0
  5  4  1  0
  6  5  1  0
  7  6  1  0
  8  7  2  0
  9  8  1  0
 10  9  1  0
 11 10  1  0
 12 11  1  0
 13 12  1  0
 14 13  1  0
 15 14  1  0
 16 15  2  0
 17 16  1  0
 18 17  1  0
 19 18  2  0
 20 19  1  0
 21 20  2  0
 22 21  1  0
 23 15  1  0
 23 18  1  0
 23 22  2  0
 24 14  1  0
 25 11  1  0
 25 24  1  0
 26  8  1  0
 27 26  2  0
 28 27  1  0
 29 27  1  0
 30  2  1  0
 30  7  1  0
 30 29  2  0
 31  1  1  0
 32  1  1  0
 33  1  1  0
 34  3  1  0
 35  3  1  0
 36  3  1  0
 37  4  1  0
 38  4  1  0
 39  5  1  0
 40  5  1  0
 41  6  1  0
 42  9  1  0
 43  9  1  0
 44 10  1  0
 45 10  1  0
 46 12  1  0
 47 12  1  0
 48 13  1  0
 49 13  1  0
 50 19  1  0
 51 20  1  0
 52 21  1  0
 53 22  1  0
 54 24  1  0
 55 24  1  0
 56 25  1  0
 57 25  1  0
 58 26  1  0
 59 29  1  0
 60 11  1  0
M  CHG  1  11   1
M  END
>  <b_m_subgroup_collapsed>  (39) 
0

>  <r_i_docking_score>  (39) 
-9.4768247654333209

>  <s_m_subgroup_title>  (39) 
glide-dock_SP_D22_pv

>  <s_m_subgroupid>  (39) 
glide-dock_SP_D22_pv

>  <Molecule ChEMBL ID>  (39) 
CHEMBL363829

>  <Standard Type>  (39) 
Ki

>  <Standard Value>  (39) 
55.0

>  <label>  (39) 
1

$$$$
CHEMBL99198
     RDKit          3D

 69 73  0  0  1  0  0  0  0  0999 V2000
   11.0478    7.4654  -11.3929 O   0  0  0  0  0  0  0  0  0  0  0  0
   10.1269    7.3724  -10.5807 C   0  0  0  0  0  0  0  0  0  0  0  0
    8.8865    6.9894  -10.9208 N   0  0  0  0  0  0  0  0  0  0  0  0
    8.5119    6.4192  -12.2039 C   0  0  0  0  0  0  0  0  0  0  0  0
    9.1554    5.0372  -12.4056 C   0  0  0  0  0  0  0  0  0  0  0  0
    8.9233    4.4574  -13.8028 C   0  0  0  0  0  0  0  0  0  0  0  0
    9.5278    3.0466  -13.9187 C   0  0  0  0  0  0  0  0  0  0  0  0
    9.0926    2.3423  -15.1516 N   0  0  1  0  0  0  0  0  0  0  0  0
   10.2363    1.6456  -15.8008 C   0  0  0  0  0  0  0  0  0  0  0  0
    9.8336    1.0397  -17.1506 C   0  0  0  0  0  0  0  0  0  0  0  0
    8.6400    0.0935  -16.9896 C   0  0  0  0  0  0  0  0  0  0  0  0
    7.4615    0.8238  -16.3037 C   0  0  1  0  0  0  0  0  0  0  0  0
    6.1828   -0.0197  -16.1754 C   0  0  0  0  0  0  0  0  0  0  0  0
    5.7660   -0.8295  -17.2567 C   0  0  0  0  0  0  0  0  0  0  0  0
    4.5769   -1.5742  -17.1804 C   0  0  0  0  0  0  0  0  0  0  0  0
    3.7781   -1.5041  -16.0282 C   0  0  0  0  0  0  0  0  0  0  0  0
    4.1581   -0.6941  -14.9471 C   0  0  0  0  0  0  0  0  0  0  0  0
    3.3467   -0.6278  -13.8472 O   0  0  0  0  0  0  0  0  0  0  0  0
    5.3559    0.0530  -15.0153 C   0  0  0  0  0  0  0  0  0  0  0  0
    5.7090    0.9753  -13.8587 C   0  0  0  0  0  0  0  0  0  0  0  0
    6.7257    2.0501  -14.2405 C   0  0  0  0  0  0  0  0  0  0  0  0
    7.9342    1.4139  -14.9516 C   0  0  2  0  0  0  0  0  0  0  0  0
   10.3557    7.6702   -9.1293 C   0  0  0  0  0  0  0  0  0  0  0  0
    9.6561    6.9651   -8.1235 C   0  0  0  0  0  0  0  0  0  0  0  0
    9.9921    7.1385   -6.7657 C   0  0  0  0  0  0  0  0  0  0  0  0
   11.0310    8.0125   -6.3867 C   0  0  0  0  0  0  0  0  0  0  0  0
   11.4544    8.1263   -4.9821 C   0  0  0  0  0  0  0  0  0  0  0  0
   11.6849    6.9706   -4.2030 C   0  0  0  0  0  0  0  0  0  0  0  0
   12.0917    7.0678   -2.8574 C   0  0  0  0  0  0  0  0  0  0  0  0
   12.2925    8.3329   -2.2788 C   0  0  0  0  0  0  0  0  0  0  0  0
   12.0859    9.4922   -3.0484 C   0  0  0  0  0  0  0  0  0  0  0  0
   11.6664    9.3890   -4.3881 C   0  0  0  0  0  0  0  0  0  0  0  0
   11.6950    8.7461   -7.3921 C   0  0  0  0  0  0  0  0  0  0  0  0
   11.3703    8.5750   -8.7496 C   0  0  0  0  0  0  0  0  0  0  0  0
    8.1358    7.1095  -10.2468 H   0  0  0  0  0  0  0  0  0  0  0  0
    7.4231    6.3340  -12.2371 H   0  0  0  0  0  0  0  0  0  0  0  0
    8.7909    7.0975  -13.0047 H   0  0  0  0  0  0  0  0  0  0  0  0
   10.2344    5.0903  -12.2441 H   0  0  0  0  0  0  0  0  0  0  0  0
    8.7706    4.3544  -11.6443 H   0  0  0  0  0  0  0  0  0  0  0  0
    7.8546    4.4653  -14.0122 H   0  0  0  0  0  0  0  0  0  0  0  0
    9.3765    5.1113  -14.5504 H   0  0  0  0  0  0  0  0  0  0  0  0
   10.6137    3.1540  -13.8914 H   0  0  0  0  0  0  0  0  0  0  0  0
    9.2866    2.4400  -13.0474 H   0  0  0  0  0  0  0  0  0  0  0  0
   11.0606    2.3418  -15.9614 H   0  0  0  0  0  0  0  0  0  0  0  0
   10.6148    0.8633  -15.1387 H   0  0  0  0  0  0  0  0  0  0  0  0
    9.5837    1.8333  -17.8570 H   0  0  0  0  0  0  0  0  0  0  0  0
   10.6758    0.4985  -17.5862 H   0  0  0  0  0  0  0  0  0  0  0  0
    8.3712   -0.2798  -17.9776 H   0  0  0  0  0  0  0  0  0  0  0  0
    8.9412   -0.7712  -16.3980 H   0  0  0  0  0  0  0  0  0  0  0  0
    7.1764    1.6558  -16.9503 H   0  0  0  0  0  0  0  0  0  0  0  0
    6.3423   -0.8945  -18.1665 H   0  0  0  0  0  0  0  0  0  0  0  0
    4.2738   -2.2058  -18.0046 H   0  0  0  0  0  0  0  0  0  0  0  0
    2.8841   -2.1010  -15.9740 H   0  0  0  0  0  0  0  0  0  0  0  0
    2.4678   -0.9315  -14.0126 H   0  0  0  0  0  0  0  0  0  0  0  0
    4.8088    1.4602  -13.4805 H   0  0  0  0  0  0  0  0  0  0  0  0
    6.0994    0.3607  -13.0461 H   0  0  0  0  0  0  0  0  0  0  0  0
    6.2633    2.7902  -14.8936 H   0  0  0  0  0  0  0  0  0  0  0  0
    6.9892    2.5728  -13.3260 H   0  0  0  0  0  0  0  0  0  0  0  0
    8.2879    0.5915  -14.3233 H   0  0  0  0  0  0  0  0  0  0  0  0
    8.8798    6.2570   -8.3785 H   0  0  0  0  0  0  0  0  0  0  0  0
    9.4561    6.5724   -6.0154 H   0  0  0  0  0  0  0  0  0  0  0  0
   11.5386    5.9890   -4.6348 H   0  0  0  0  0  0  0  0  0  0  0  0
   12.2504    6.1732   -2.2747 H   0  0  0  0  0  0  0  0  0  0  0  0
   12.6015    8.4211   -1.2462 H   0  0  0  0  0  0  0  0  0  0  0  0
   12.2312   10.4689   -2.6129 H   0  0  0  0  0  0  0  0  0  0  0  0
   11.5015   10.2887   -4.9631 H   0  0  0  0  0  0  0  0  0  0  0  0
   12.5087    9.4067   -7.1277 H   0  0  0  0  0  0  0  0  0  0  0  0
   11.9345    9.1144   -9.4992 H   0  0  0  0  0  0  0  0  0  0  0  0
    8.7933    3.0581  -15.7979 H   0  0  0  0  0  0  0  0  0  0  0  0
  2  1  2  0
  3  2  1  0
  4  3  1  0
  5  4  1  0
  6  5  1  0
  7  6  1  0
  8  7  1  0
  9  8  1  0
 10  9  1  0
 11 10  1  0
 12 11  1  0
 13 12  1  0
 14 13  2  0
 15 14  1  0
 16 15  2  0
 17 16  1  0
 18 17  1  0
 19 13  1  0
 19 17  2  0
 20 19  1  0
 21 20  1  0
 22  8  1  0
 22 12  1  0
 22 21  1  0
 23  2  1  0
 24 23  1  0
 25 24  2  0
 26 25  1  0
 27 26  1  0
 28 27  2  0
 29 28  1  0
 30 29  2  0
 31 30  1  0
 32 27  1  0
 32 31  2  0
 33 26  2  0
 34 23  2  0
 34 33  1  0
 35  3  1  0
 36  4  1  0
 37  4  1  0
 38  5  1  0
 39  5  1  0
 40  6  1  0
 41  6  1  0
 42  7  1  0
 43  7  1  0
 44  9  1  0
 45  9  1  0
 46 10  1  0
 47 10  1  0
 48 11  1  0
 49 11  1  0
 12 50  1  6
 51 14  1  0
 52 15  1  0
 53 16  1  0
 54 18  1  0
 55 20  1  0
 56 20  1  0
 57 21  1  0
 58 21  1  0
 22 59  1  1
 60 24  1  0
 61 25  1  0
 62 28  1  0
 63 29  1  0
 64 30  1  0
 65 31  1  0
 66 32  1  0
 67 33  1  0
 68 34  1  0
  8 69  1  6
M  CHG  1   8   1
M  END
>  <b_m_subgroup_collapsed>  (40) 
0

>  <r_i_docking_score>  (40) 
-9.4530335867553195

>  <s_m_subgroup_title>  (40) 
glide-dock_SP_D22_pv

>  <s_m_subgroupid>  (40) 
glide-dock_SP_D22_pv

>  <Molecule ChEMBL ID>  (40) 
CHEMBL99198

>  <Standard Type>  (40) 
Ki

>  <Standard Value>  (40) 
25.0

>  <label>  (40) 
1

$$$$
CHEMBL1259187
     RDKit          3D

 68 72  0  0  1  0  0  0  0  0999 V2000
    3.4785   -1.1131  -16.1461 C   0  0  0  0  0  0  0  0  0  0  0  0
    4.3912   -0.7643  -14.9810 C   0  0  0  0  0  0  0  0  0  0  0  0
    3.9248   -0.6276  -13.8478 O   0  0  0  0  0  0  0  0  0  0  0  0
    5.6938   -0.6518  -15.2678 N   0  0  0  0  0  0  0  0  0  0  0  0
    6.7555   -0.4826  -14.2894 C   0  0  0  0  0  0  0  0  0  0  0  0
    7.7225    0.6308  -14.6466 C   0  0  0  0  0  0  0  0  0  0  0  0
    8.9426    0.3606  -15.2997 C   0  0  0  0  0  0  0  0  0  0  0  0
    9.8683    1.3972  -15.5249 C   0  0  0  0  0  0  0  0  0  0  0  0
    9.5854    2.6991  -15.0631 C   0  0  0  0  0  0  0  0  0  0  0  0
    8.3669    2.9901  -14.3778 C   0  0  0  0  0  0  0  0  0  0  0  0
    7.4247    1.9448  -14.2469 C   0  0  0  0  0  0  0  0  0  0  0  0
    8.3967    4.3565  -13.9401 C   0  0  0  0  0  0  0  0  0  0  0  0
    7.3247    5.0640  -13.1408 C   0  0  1  0  0  0  0  0  0  0  0  0
    7.0798    4.4386  -11.7661 C   0  0  0  0  0  0  0  0  0  0  0  0
    8.2343    4.7157  -10.7777 C   0  0  0  0  0  0  0  0  0  0  0  0
    8.4860    6.1723  -10.6074 N   0  0  1  0  0  0  0  0  0  0  0  0
    9.5476    6.4589   -9.6114 C   0  0  0  0  0  0  0  0  0  0  0  0
    9.4257    7.8811   -9.0258 C   0  0  0  0  0  0  0  0  0  0  0  0
   10.5172    8.2170   -8.1194 N   0  0  0  0  0  0  0  0  0  0  0  0
   10.2478    8.6156   -6.7481 C   0  0  0  0  0  0  0  0  0  0  0  0
   11.5941    9.1697   -6.2815 C   0  0  0  0  0  0  0  0  0  0  0  0
   12.4298    8.9723   -7.4470 N   0  0  0  0  0  0  0  0  0  0  0  0
   11.7919    8.4203   -8.4773 C   0  0  0  0  0  0  0  0  0  0  0  0
   12.2854    8.1718   -9.5745 O   0  0  0  0  0  0  0  0  0  0  0  0
    8.7086    6.8534  -11.9091 C   0  0  0  0  0  0  0  0  0  0  0  0
    7.5599    6.5653  -12.8977 C   0  0  0  0  0  0  0  0  0  0  0  0
    9.5655    4.8675  -14.4397 C   0  0  0  0  0  0  0  0  0  0  0  0
   10.2822    3.9016  -15.1287 N   0  0  0  0  0  0  0  0  0  0  0  0
   11.5054    4.1629  -15.7920 C   0  0  0  0  0  0  0  0  0  0  0  0
   12.4606    5.0202  -15.1987 C   0  0  0  0  0  0  0  0  0  0  0  0
   13.6309    5.3724  -15.8973 C   0  0  0  0  0  0  0  0  0  0  0  0
   13.8667    4.8538  -17.1857 C   0  0  0  0  0  0  0  0  0  0  0  0
   14.9981    5.1839  -17.8537 F   0  0  0  0  0  0  0  0  0  0  0  0
   12.9281    3.9859  -17.7750 C   0  0  0  0  0  0  0  0  0  0  0  0
   11.7477    3.6468  -17.0847 C   0  0  0  0  0  0  0  0  0  0  0  0
    3.4006   -2.1985  -16.2539 H   0  0  0  0  0  0  0  0  0  0  0  0
    2.4861   -0.7093  -15.9613 H   0  0  0  0  0  0  0  0  0  0  0  0
    3.8470   -0.6933  -17.0835 H   0  0  0  0  0  0  0  0  0  0  0  0
    5.9842   -0.8003  -16.2228 H   0  0  0  0  0  0  0  0  0  0  0  0
    7.2860   -1.4248  -14.2039 H   0  0  0  0  0  0  0  0  0  0  0  0
    6.3569   -0.2844  -13.2930 H   0  0  0  0  0  0  0  0  0  0  0  0
    9.1798   -0.6426  -15.6153 H   0  0  0  0  0  0  0  0  0  0  0  0
   10.8023    1.1866  -16.0226 H   0  0  0  0  0  0  0  0  0  0  0  0
    6.4866    2.1418  -13.7489 H   0  0  0  0  0  0  0  0  0  0  0  0
    6.3934    4.9722  -13.7029 H   0  0  0  0  0  0  0  0  0  0  0  0
    6.1520    4.8710  -11.3977 H   0  0  0  0  0  0  0  0  0  0  0  0
    6.8856    3.3723  -11.8424 H   0  0  0  0  0  0  0  0  0  0  0  0
    9.1463    4.2278  -11.1253 H   0  0  0  0  0  0  0  0  0  0  0  0
    7.9967    4.2765   -9.8083 H   0  0  0  0  0  0  0  0  0  0  0  0
    9.4734    5.7496   -8.7855 H   0  0  0  0  0  0  0  0  0  0  0  0
   10.5209    6.2907  -10.0710 H   0  0  0  0  0  0  0  0  0  0  0  0
    9.4047    8.6395   -9.8078 H   0  0  0  0  0  0  0  0  0  0  0  0
    8.4859    7.9732   -8.4868 H   0  0  0  0  0  0  0  0  0  0  0  0
    9.4670    9.3721   -6.7169 H   0  0  0  0  0  0  0  0  0  0  0  0
    9.9293    7.7556   -6.1560 H   0  0  0  0  0  0  0  0  0  0  0  0
   11.9870    8.6231   -5.4229 H   0  0  0  0  0  0  0  0  0  0  0  0
   11.5338   10.2297   -6.0309 H   0  0  0  0  0  0  0  0  0  0  0  0
   13.3992    9.2586   -7.4815 H   0  0  0  0  0  0  0  0  0  0  0  0
    9.6731    6.5493  -12.3116 H   0  0  0  0  0  0  0  0  0  0  0  0
    8.7596    7.9315  -11.7657 H   0  0  0  0  0  0  0  0  0  0  0  0
    7.7026    7.0764  -13.8405 H   0  0  0  0  0  0  0  0  0  0  0  0
    6.6459    6.9981  -12.4870 H   0  0  0  0  0  0  0  0  0  0  0  0
    9.9629    5.8648  -14.3821 H   0  0  0  0  0  0  0  0  0  0  0  0
   12.2968    5.4265  -14.2114 H   0  0  0  0  0  0  0  0  0  0  0  0
   14.3542    6.0343  -15.4431 H   0  0  0  0  0  0  0  0  0  0  0  0
   13.1062    3.5923  -18.7648 H   0  0  0  0  0  0  0  0  0  0  0  0
   11.0212    3.0099  -17.5673 H   0  0  0  0  0  0  0  0  0  0  0  0
    7.6275    6.5990  -10.2473 H   0  0  0  0  0  0  0  0  0  0  0  0
  2  1  1  0
  3  2  2  0
  4  2  1  0
  5  4  1  0
  6  5  1  0
  7  6  2  0
  8  7  1  0
  9  8  2  0
 10  9  1  0
 11  6  1  0
 11 10  2  0
 12 10  1  0
 13 12  1  0
 14 13  1  0
 15 14  1  0
 16 15  1  0
 17 16  1  0
 18 17  1  0
 19 18  1  0
 20 19  1  0
 21 20  1  0
 22 21  1  0
 23 19  1  0
 23 22  1  0
 24 23  2  0
 25 16  1  0
 26 13  1  0
 26 25  1  0
 27 12  2  0
 28  9  1  0
 28 27  1  0
 29 28  1  0
 30 29  1  0
 31 30  2  0
 32 31  1  0
 33 32  1  0
 34 32  2  0
 35 29  2  0
 35 34  1  0
 36  1  1  0
 37  1  1  0
 38  1  1  0
 39  4  1  0
 40  5  1  0
 41  5  1  0
 42  7  1  0
 43  8  1  0
 44 11  1  0
 13 45  1  6
 46 14  1  0
 47 14  1  0
 48 15  1  0
 49 15  1  0
 50 17  1  0
 51 17  1  0
 52 18  1  0
 53 18  1  0
 54 20  1  0
 55 20  1  0
 56 21  1  0
 57 21  1  0
 58 22  1  0
 59 25  1  0
 60 25  1  0
 61 26  1  0
 62 26  1  0
 63 27  1  0
 64 30  1  0
 65 31  1  0
 66 34  1  0
 67 35  1  0
 16 68  1  1
M  CHG  1  16   1
M  END
>  <b_m_subgroup_collapsed>  (41) 
0

>  <r_i_docking_score>  (41) 
-9.4371435160186401

>  <s_m_subgroup_title>  (41) 
glide-dock_SP_D22_pv

>  <s_m_subgroupid>  (41) 
glide-dock_SP_D22_pv

>  <Molecule ChEMBL ID>  (41) 
CHEMBL1259187

>  <Standard Type>  (41) 
Ki

>  <Standard Value>  (41) 
3.1

>  <label>  (41) 
1

$$$$
CHEMBL5987244
     RDKit          3D

 56 60  0  0  1  0  0  0  0  0999 V2000
    7.3755    0.7301  -15.6546 C   0  0  0  0  0  0  0  0  0  0  0  0
    7.0527    1.7838  -14.6159 C   0  0  0  0  0  0  0  0  0  0  0  0
    5.8701    1.7113  -13.8468 C   0  0  0  0  0  0  0  0  0  0  0  0
    5.5718    2.7140  -12.8939 C   0  0  0  0  0  0  0  0  0  0  0  0
    6.4755    3.7721  -12.6453 C   0  0  0  0  0  0  0  0  0  0  0  0
    7.6921    3.8031  -13.3639 C   0  0  0  0  0  0  0  0  0  0  0  0
    8.8445    4.6031  -13.2115 C   0  0  0  0  0  0  0  0  0  0  0  0
    9.2383    5.5551  -12.1134 C   0  0  1  0  0  0  0  0  0  0  0  0
    8.4599    6.8781  -12.0883 C   0  0  0  0  0  0  0  0  0  0  0  0
    9.0306    7.7859  -10.9781 C   0  0  0  0  0  0  0  0  0  0  0  0
    8.8860    7.1111   -9.6639 N   0  0  2  0  0  0  0  0  0  0  0  0
    9.1498    7.9513   -8.4704 C   0  0  0  0  0  0  0  0  0  0  0  0
   10.6340    8.3502   -8.3052 C   0  0  0  0  0  0  0  0  0  0  0  0
   11.0623    8.1294   -6.9215 N   0  0  0  0  0  0  0  0  0  0  0  0
   11.4718    6.7362   -6.6865 C   0  0  0  0  0  0  0  0  0  0  0  0
   11.3929    6.2804   -5.2347 C   0  0  0  0  0  0  0  0  0  0  0  0
   11.6951    7.3638   -4.2470 C   0  0  0  0  0  0  0  0  0  0  0  0
   12.1203    7.0217   -2.9526 C   0  0  0  0  0  0  0  0  0  0  0  0
   12.3528    8.0576   -2.0409 C   0  0  0  0  0  0  0  0  0  0  0  0
   12.0868    9.3718   -2.4458 C   0  0  0  0  0  0  0  0  0  0  0  0
   11.6980    9.7084   -3.6898 N   0  0  0  0  0  0  0  0  0  0  0  0
   11.5344    8.7215   -4.5969 C   0  0  0  0  0  0  0  0  0  0  0  0
   11.1319    9.1161   -5.9937 C   0  0  0  0  0  0  0  0  0  0  0  0
   10.8862   10.2943   -6.2468 O   0  0  0  0  0  0  0  0  0  0  0  0
    9.5297    5.7723   -9.5993 C   0  0  0  0  0  0  0  0  0  0  0  0
    9.0943    4.8651  -10.7467 C   0  0  0  0  0  0  0  0  0  0  0  0
    9.7363    4.2515  -14.1366 N   0  0  0  0  0  0  0  0  0  0  0  0
    9.1866    3.1541  -14.8559 O   0  0  0  0  0  0  0  0  0  0  0  0
    7.9371    2.8406  -14.3464 C   0  0  0  0  0  0  0  0  0  0  0  0
    6.4771    0.4403  -16.2013 H   0  0  0  0  0  0  0  0  0  0  0  0
    8.1071    1.1014  -16.3730 H   0  0  0  0  0  0  0  0  0  0  0  0
    7.7868   -0.1590  -15.1745 H   0  0  0  0  0  0  0  0  0  0  0  0
    5.1721    0.9026  -14.0074 H   0  0  0  0  0  0  0  0  0  0  0  0
    4.6518    2.6530  -12.3329 H   0  0  0  0  0  0  0  0  0  0  0  0
    6.2495    4.5076  -11.8873 H   0  0  0  0  0  0  0  0  0  0  0  0
   10.2934    5.8026  -12.2468 H   0  0  0  0  0  0  0  0  0  0  0  0
    8.4892    7.3858  -13.0469 H   0  0  0  0  0  0  0  0  0  0  0  0
    7.4039    6.6772  -11.9022 H   0  0  0  0  0  0  0  0  0  0  0  0
    8.4860    8.7312  -10.9655 H   0  0  0  0  0  0  0  0  0  0  0  0
   10.0776    8.0239  -11.1705 H   0  0  0  0  0  0  0  0  0  0  0  0
    8.7853    7.4057   -7.5977 H   0  0  0  0  0  0  0  0  0  0  0  0
    8.5284    8.8476   -8.5194 H   0  0  0  0  0  0  0  0  0  0  0  0
   10.7643    9.3912   -8.6019 H   0  0  0  0  0  0  0  0  0  0  0  0
   11.3001    7.8032   -8.9715 H   0  0  0  0  0  0  0  0  0  0  0  0
   12.4859    6.6073   -7.0478 H   0  0  0  0  0  0  0  0  0  0  0  0
   10.8822    6.0405   -7.2763 H   0  0  0  0  0  0  0  0  0  0  0  0
   12.0864    5.4588   -5.0846 H   0  0  0  0  0  0  0  0  0  0  0  0
   10.3896    5.9310   -5.0074 H   0  0  0  0  0  0  0  0  0  0  0  0
   12.2694    5.9908   -2.6648 H   0  0  0  0  0  0  0  0  0  0  0  0
   12.7072    7.8537   -1.0468 H   0  0  0  0  0  0  0  0  0  0  0  0
   12.2183   10.1724   -1.7421 H   0  0  0  0  0  0  0  0  0  0  0  0
   10.6127    5.8665   -9.6265 H   0  0  0  0  0  0  0  0  0  0  0  0
    9.2693    5.2884   -8.6573 H   0  0  0  0  0  0  0  0  0  0  0  0
    9.6857    3.9489  -10.7302 H   0  0  0  0  0  0  0  0  0  0  0  0
    8.0617    4.5670  -10.5701 H   0  0  0  0  0  0  0  0  0  0  0  0
    7.8762    6.9696   -9.6258 H   0  0  0  0  0  0  0  0  0  0  0  0
  2  1  1  0
  3  2  1  0
  4  3  2  0
  5  4  1  0
  6  5  2  0
  7  6  1  0
  8  7  1  0
  9  8  1  0
 10  9  1  0
 11 10  1  0
 12 11  1  0
 13 12  1  0
 14 13  1  0
 15 14  1  0
 16 15  1  0
 17 16  1  0
 18 17  1  0
 19 18  2  0
 20 19  1  0
 21 20  2  0
 22 17  2  0
 22 21  1  0
 23 14  1  0
 23 22  1  0
 24 23  2  0
 25 11  1  0
 26  8  1  0
 26 25  1  0
 27  7  2  0
 28 27  1  0
 29  2  2  0
 29  6  1  0
 29 28  1  0
 30  1  1  0
 31  1  1  0
 32  1  1  0
 33  3  1  0
 34  4  1  0
 35  5  1  0
  8 36  1  6
 37  9  1  0
 38  9  1  0
 39 10  1  0
 40 10  1  0
 41 12  1  0
 42 12  1  0
 43 13  1  0
 44 13  1  0
 45 15  1  0
 46 15  1  0
 47 16  1  0
 48 16  1  0
 49 18  1  0
 50 19  1  0
 51 20  1  0
 52 25  1  0
 53 25  1  0
 54 26  1  0
 55 26  1  0
 11 56  1  1
M  CHG  1  11   1
M  END
>  <b_m_subgroup_collapsed>  (42) 
0

>  <r_i_docking_score>  (42) 
-9.4314315412718308

>  <s_m_subgroup_title>  (42) 
glide-dock_SP_D22_pv

>  <s_m_subgroupid>  (42) 
glide-dock_SP_D22_pv

>  <Molecule ChEMBL ID>  (42) 
CHEMBL5987244

>  <Standard Type>  (42) 
Ki

>  <Standard Value>  (42) 
10000.0

>  <label>  (42) 
0

$$$$
CHEMBL335844
     RDKit          3D

 59 63  0  0  1  0  0  0  0  0999 V2000
   10.8100    2.2392  -15.5889 O   0  0  0  0  0  0  0  0  0  0  0  0
   11.2859    3.3616  -15.4262 C   0  0  0  0  0  0  0  0  0  0  0  0
   12.3085    3.9975  -16.2908 C   0  0  0  0  0  0  0  0  0  0  0  0
   12.9442    3.5163  -17.4469 C   0  0  0  0  0  0  0  0  0  0  0  0
   13.8767    4.3784  -18.0730 C   0  0  0  0  0  0  0  0  0  0  0  0
   14.1360    5.6733  -17.5492 C   0  0  0  0  0  0  0  0  0  0  0  0
   13.4701    6.1283  -16.3868 C   0  0  0  0  0  0  0  0  0  0  0  0
   13.6861    7.3702  -15.8954 F   0  0  0  0  0  0  0  0  0  0  0  0
   12.5645    5.2455  -15.7788 C   0  0  0  0  0  0  0  0  0  0  0  0
   11.7157    5.4162  -14.5759 C   0  0  0  0  0  0  0  0  0  0  0  0
   11.6860    6.4085  -13.8474 O   0  0  0  0  0  0  0  0  0  0  0  0
   10.9939    4.2709  -14.4617 N   0  0  0  0  0  0  0  0  0  0  0  0
    9.9685    4.0738  -13.4371 C   0  0  0  0  0  0  0  0  0  0  0  0
    8.5787    4.4994  -13.9526 C   0  0  0  0  0  0  0  0  0  0  0  0
    7.4389    4.4407  -12.9169 C   0  0  0  0  0  0  0  0  0  0  0  0
    7.5627    5.4657  -11.7733 C   0  0  0  0  0  0  0  0  0  0  0  0
    8.2981    4.9393  -10.5248 C   0  0  0  0  0  0  0  0  0  0  0  0
    8.6325    6.0224   -9.5663 N   0  0  2  0  0  0  0  0  0  0  0  0
    9.8010    6.8188  -10.0376 C   0  0  0  0  0  0  0  0  0  0  0  0
   10.5214    7.5845   -8.9411 C   0  0  0  0  0  0  0  0  0  0  0  0
   10.2560    7.4857   -7.6244 C   0  0  0  0  0  0  0  0  0  0  0  0
   10.9010    8.4054   -6.6740 C   0  0  0  0  0  0  0  0  0  0  0  0
   11.2866    9.6724   -7.0013 C   0  0  0  0  0  0  0  0  0  0  0  0
   11.6924   10.3078   -5.8472 N   0  0  0  0  0  0  0  0  0  0  0  0
   11.7119    9.4255   -4.7850 C   0  0  0  0  0  0  0  0  0  0  0  0
   12.0698    9.6002   -3.4376 C   0  0  0  0  0  0  0  0  0  0  0  0
   12.0924    8.4921   -2.5834 C   0  0  0  0  0  0  0  0  0  0  0  0
   11.7574    7.2249   -3.0827 C   0  0  0  0  0  0  0  0  0  0  0  0
   11.8166    6.1723   -2.2474 F   0  0  0  0  0  0  0  0  0  0  0  0
   11.3425    7.0571   -4.4222 C   0  0  0  0  0  0  0  0  0  0  0  0
   11.2860    8.1635   -5.3067 C   0  0  0  0  0  0  0  0  0  0  0  0
    9.1015    6.6124   -7.1781 C   0  0  0  0  0  0  0  0  0  0  0  0
    8.8009    5.4961   -8.1888 C   0  0  0  0  0  0  0  0  0  0  0  0
   12.7322    2.5316  -17.8371 H   0  0  0  0  0  0  0  0  0  0  0  0
   14.3921    4.0494  -18.9631 H   0  0  0  0  0  0  0  0  0  0  0  0
   14.8415    6.3224  -18.0460 H   0  0  0  0  0  0  0  0  0  0  0  0
   10.2533    4.6669  -12.5716 H   0  0  0  0  0  0  0  0  0  0  0  0
    9.9531    3.0336  -13.1063 H   0  0  0  0  0  0  0  0  0  0  0  0
    8.3131    3.8517  -14.7893 H   0  0  0  0  0  0  0  0  0  0  0  0
    8.6313    5.5097  -14.3613 H   0  0  0  0  0  0  0  0  0  0  0  0
    7.3156    3.4307  -12.5291 H   0  0  0  0  0  0  0  0  0  0  0  0
    6.5113    4.6551  -13.4495 H   0  0  0  0  0  0  0  0  0  0  0  0
    6.5615    5.7690  -11.4625 H   0  0  0  0  0  0  0  0  0  0  0  0
    8.0299    6.3713  -12.1592 H   0  0  0  0  0  0  0  0  0  0  0  0
    9.2045    4.3946  -10.7752 H   0  0  0  0  0  0  0  0  0  0  0  0
    7.6860    4.1854  -10.0386 H   0  0  0  0  0  0  0  0  0  0  0  0
    9.4669    7.5304  -10.7932 H   0  0  0  0  0  0  0  0  0  0  0  0
   10.5360    6.1714  -10.5127 H   0  0  0  0  0  0  0  0  0  0  0  0
   11.2956    8.2527   -9.2893 H   0  0  0  0  0  0  0  0  0  0  0  0
   11.2844   10.1722   -7.9545 H   0  0  0  0  0  0  0  0  0  0  0  0
   11.9872   11.2736   -5.8250 H   0  0  0  0  0  0  0  0  0  0  0  0
   12.3427   10.5691   -3.0469 H   0  0  0  0  0  0  0  0  0  0  0  0
   12.3800    8.6100   -1.5488 H   0  0  0  0  0  0  0  0  0  0  0  0
   11.0681    6.0718   -4.7661 H   0  0  0  0  0  0  0  0  0  0  0  0
    9.3287    6.1724   -6.2109 H   0  0  0  0  0  0  0  0  0  0  0  0
    8.2246    7.2451   -7.0292 H   0  0  0  0  0  0  0  0  0  0  0  0
    9.6132    4.7684   -8.1938 H   0  0  0  0  0  0  0  0  0  0  0  0
    7.9020    4.9682   -7.8711 H   0  0  0  0  0  0  0  0  0  0  0  0
    7.8329    6.6547   -9.5384 H   0  0  0  0  0  0  0  0  0  0  0  0
  2  1  2  0
  3  2  1  0
  4  3  2  0
  5  4  1  0
  6  5  2  0
  7  6  1  0
  8  7  1  0
  9  3  1  0
  9  7  2  0
 10  9  1  0
 11 10  2  0
 12  2  1  0
 12 10  1  0
 13 12  1  0
 14 13  1  0
 15 14  1  0
 16 15  1  0
 17 16  1  0
 18 17  1  0
 19 18  1  0
 20 19  1  0
 21 20  2  0
 22 21  1  0
 23 22  2  0
 24 23  1  0
 25 24  1  0
 26 25  2  0
 27 26  1  0
 28 27  2  0
 29 28  1  0
 30 28  1  0
 31 22  1  0
 31 25  1  0
 31 30  2  0
 32 21  1  0
 33 18  1  0
 33 32  1  0
 34  4  1  0
 35  5  1  0
 36  6  1  0
 37 13  1  0
 38 13  1  0
 39 14  1  0
 40 14  1  0
 41 15  1  0
 42 15  1  0
 43 16  1  0
 44 16  1  0
 45 17  1  0
 46 17  1  0
 47 19  1  0
 48 19  1  0
 49 20  1  0
 50 23  1  0
 51 24  1  0
 52 26  1  0
 53 27  1  0
 54 30  1  0
 55 32  1  0
 56 32  1  0
 57 33  1  0
 58 33  1  0
 18 59  1  1
M  CHG  1  18   1
M  END
>  <b_m_subgroup_collapsed>  (43) 
0

>  <r_i_docking_score>  (43) 
-9.4266278996071193

>  <s_m_subgroup_title>  (43) 
glide-dock_SP_D22_pv

>  <s_m_subgroupid>  (43) 
glide-dock_SP_D22_pv

>  <Molecule ChEMBL ID>  (43) 
CHEMBL335844

>  <Standard Type>  (43) 
Ki

>  <Standard Value>  (43) 
12.0

>  <label>  (43) 
1

$$$$
CHEMBL476839
     RDKit          3D

 62 64  0  0  1  0  0  0  0  0999 V2000
   10.3867    4.1825  -15.5263 C   0  0  0  0  0  0  0  0  0  0  0  0
    9.7351    4.4058  -14.2838 O   0  0  0  0  0  0  0  0  0  0  0  0
    8.5050    3.8152  -14.0718 C   0  0  0  0  0  0  0  0  0  0  0  0
    8.1771    2.4985  -14.5076 C   0  0  0  0  0  0  0  0  0  0  0  0
    9.1443    1.7405  -15.1349 O   0  0  0  0  0  0  0  0  0  0  0  0
    8.8963    0.3597  -15.3664 C   0  0  0  0  0  0  0  0  0  0  0  0
   10.1939   -0.2899  -15.8484 C   0  0  0  0  0  0  0  0  0  0  0  0
   10.5215    0.1506  -17.0627 F   0  0  0  0  0  0  0  0  0  0  0  0
    6.8786    1.9945  -14.2467 C   0  0  0  0  0  0  0  0  0  0  0  0
    5.9505    2.7466  -13.5063 C   0  0  0  0  0  0  0  0  0  0  0  0
    6.2877    4.0282  -13.0489 C   0  0  0  0  0  0  0  0  0  0  0  0
    7.5576    4.5720  -13.3354 C   0  0  0  0  0  0  0  0  0  0  0  0
    7.9186    5.9710  -12.8380 C   0  0  1  0  0  0  0  0  0  0  0  0
    6.7887    6.8126  -12.6469 O   0  0  0  0  0  0  0  0  0  0  0  0
    8.8061    5.9291  -11.5742 C   0  0  1  0  0  0  0  0  0  0  0  0
    9.3136    7.3270  -11.1727 C   0  0  0  0  0  0  0  0  0  0  0  0
   10.0934    7.2968   -9.8525 C   0  0  0  0  0  0  0  0  0  0  0  0
    9.2902    6.6872   -8.7559 N   0  0  2  0  0  0  0  0  0  0  0  0
    9.9760    6.7262   -7.4381 C   0  0  0  0  0  0  0  0  0  0  0  0
   10.1958    8.1494   -6.8856 C   0  0  0  0  0  0  0  0  0  0  0  0
   10.8860    8.2219   -5.5297 C   0  0  0  0  0  0  0  0  0  0  0  0
   11.0485    9.4900   -4.9345 C   0  0  0  0  0  0  0  0  0  0  0  0
   11.6329    9.6057   -3.6604 C   0  0  0  0  0  0  0  0  0  0  0  0
   12.0956    8.4641   -2.9821 C   0  0  0  0  0  0  0  0  0  0  0  0
   12.7236    8.6142   -1.6150 C   0  0  0  0  0  0  0  0  0  0  0  0
   11.9653    7.1961   -3.5810 C   0  0  0  0  0  0  0  0  0  0  0  0
   11.3520    7.0738   -4.8436 C   0  0  0  0  0  0  0  0  0  0  0  0
    8.8971    5.2980   -9.0998 C   0  0  0  0  0  0  0  0  0  0  0  0
    8.0866    5.2572  -10.3974 C   0  0  0  0  0  0  0  0  0  0  0  0
   11.0199    5.0398  -15.7544 H   0  0  0  0  0  0  0  0  0  0  0  0
   11.0333    3.3057  -15.4790 H   0  0  0  0  0  0  0  0  0  0  0  0
    9.6803    4.0685  -16.3504 H   0  0  0  0  0  0  0  0  0  0  0  0
    8.5831   -0.1284  -14.4423 H   0  0  0  0  0  0  0  0  0  0  0  0
    8.1084    0.2245  -16.1088 H   0  0  0  0  0  0  0  0  0  0  0  0
   11.0217   -0.0716  -15.1743 H   0  0  0  0  0  0  0  0  0  0  0  0
   10.0861   -1.3714  -15.9220 H   0  0  0  0  0  0  0  0  0  0  0  0
    6.5737    1.0125  -14.5738 H   0  0  0  0  0  0  0  0  0  0  0  0
    4.9736    2.3390  -13.2920 H   0  0  0  0  0  0  0  0  0  0  0  0
    5.5651    4.5912  -12.4759 H   0  0  0  0  0  0  0  0  0  0  0  0
    8.4859    6.4455  -13.6328 H   0  0  0  0  0  0  0  0  0  0  0  0
    6.7280    7.0885  -11.7286 H   0  0  0  0  0  0  0  0  0  0  0  0
    9.6861    5.3253  -11.8012 H   0  0  0  0  0  0  0  0  0  0  0  0
    9.9460    7.7307  -11.9643 H   0  0  0  0  0  0  0  0  0  0  0  0
    8.4860    8.0272  -11.0680 H   0  0  0  0  0  0  0  0  0  0  0  0
   10.3687    8.3223   -9.6140 H   0  0  0  0  0  0  0  0  0  0  0  0
   11.0239    6.7411   -9.9785 H   0  0  0  0  0  0  0  0  0  0  0  0
    9.3710    6.1721   -6.7180 H   0  0  0  0  0  0  0  0  0  0  0  0
   10.9292    6.2019   -7.5256 H   0  0  0  0  0  0  0  0  0  0  0  0
   10.8079    8.7426   -7.5627 H   0  0  0  0  0  0  0  0  0  0  0  0
    9.2334    8.6580   -6.8053 H   0  0  0  0  0  0  0  0  0  0  0  0
   10.6921   10.3771   -5.4379 H   0  0  0  0  0  0  0  0  0  0  0  0
   11.6945   10.5732   -3.1876 H   0  0  0  0  0  0  0  0  0  0  0  0
   12.8860    7.6509   -1.1359 H   0  0  0  0  0  0  0  0  0  0  0  0
   13.6860    9.1121   -1.7019 H   0  0  0  0  0  0  0  0  0  0  0  0
   12.0861    9.2201   -0.9724 H   0  0  0  0  0  0  0  0  0  0  0  0
   12.3132    6.3107   -3.0682 H   0  0  0  0  0  0  0  0  0  0  0  0
   11.2511    6.0843   -5.2599 H   0  0  0  0  0  0  0  0  0  0  0  0
    8.2944    4.8731   -8.2954 H   0  0  0  0  0  0  0  0  0  0  0  0
    9.7860    4.6718   -9.1944 H   0  0  0  0  0  0  0  0  0  0  0  0
    7.1479    5.7723  -10.2468 H   0  0  0  0  0  0  0  0  0  0  0  0
    7.8354    4.2222  -10.6328 H   0  0  0  0  0  0  0  0  0  0  0  0
    8.4230    7.2095   -8.6766 H   0  0  0  0  0  0  0  0  0  0  0  0
  2  1  1  0
  3  2  1  0
  4  3  2  0
  5  4  1  0
  6  5  1  0
  7  6  1  0
  8  7  1  0
  9  4  1  0
 10  9  2  0
 11 10  1  0
 12  3  1  0
 12 11  2  0
 13 12  1  0
 14 13  1  0
 15 13  1  0
 16 15  1  0
 17 16  1  0
 18 17  1  0
 19 18  1  0
 20 19  1  0
 21 20  1  0
 22 21  1  0
 23 22  2  0
 24 23  1  0
 25 24  1  0
 26 24  2  0
 27 21  2  0
 27 26  1  0
 28 18  1  0
 29 15  1  0
 29 28  1  0
 30  1  1  0
 31  1  1  0
 32  1  1  0
 33  6  1  0
 34  6  1  0
 35  7  1  0
 36  7  1  0
 37  9  1  0
 38 10  1  0
 39 11  1  0
 13 40  1  6
 41 14  1  0
 15 42  1  6
 43 16  1  0
 44 16  1  0
 45 17  1  0
 46 17  1  0
 47 19  1  0
 48 19  1  0
 49 20  1  0
 50 20  1  0
 51 22  1  0
 52 23  1  0
 53 25  1  0
 54 25  1  0
 55 25  1  0
 56 26  1  0
 57 27  1  0
 58 28  1  0
 59 28  1  0
 60 29  1  0
 61 29  1  0
 18 62  1  1
M  CHG  1  18   1
M  END
>  <b_m_subgroup_collapsed>  (44) 
0

>  <r_i_docking_score>  (44) 
-9.4059201105761208

>  <s_m_subgroup_title>  (44) 
glide-dock_SP_D22_pv

>  <s_m_subgroupid>  (44) 
glide-dock_SP_D22_pv

>  <Molecule ChEMBL ID>  (44) 
CHEMBL476839

>  <Standard Type>  (44) 
Ki

>  <Standard Value>  (44) 
10000.0

>  <label>  (44) 
0

$$$$
CHEMBL4451231
     RDKit          3D

 70 75  0  0  1  0  0  0  0  0999 V2000
    6.4672    2.7436  -13.7906 O   0  0  0  0  0  0  0  0  0  0  0  0
    7.5598    2.5771  -14.3361 C   0  0  0  0  0  0  0  0  0  0  0  0
    7.8492    1.4266  -15.1990 C   0  0  0  0  0  0  0  0  0  0  0  0
    6.7529    0.4699  -15.4650 C   0  0  0  0  0  0  0  0  0  0  0  0
    6.2440   -0.3195  -14.4129 C   0  0  0  0  0  0  0  0  0  0  0  0
    5.1884   -1.2174  -14.6585 C   0  0  0  0  0  0  0  0  0  0  0  0
    4.6309   -1.3293  -15.9465 C   0  0  0  0  0  0  0  0  0  0  0  0
    5.1316   -0.5348  -16.9952 C   0  0  0  0  0  0  0  0  0  0  0  0
    6.1882    0.3667  -16.7563 C   0  0  0  0  0  0  0  0  0  0  0  0
    9.0754    1.3140  -15.7921 C   0  0  0  0  0  0  0  0  0  0  0  0
    9.3812    0.1708  -16.6597 C   0  0  0  0  0  0  0  0  0  0  0  0
   10.5675    0.0609  -17.2748 C   0  0  0  0  0  0  0  0  0  0  0  0
   11.5629    1.0853  -17.0678 C   0  0  0  0  0  0  0  0  0  0  0  0
   11.3097    2.1213  -16.2467 C   0  0  0  0  0  0  0  0  0  0  0  0
   10.0925    2.2604  -15.5915 N   0  0  0  0  0  0  0  0  0  0  0  0
    9.8826    3.3672  -14.7474 C   0  0  0  0  0  0  0  0  0  0  0  0
   10.7778    4.1905  -14.5358 O   0  0  0  0  0  0  0  0  0  0  0  0
    8.6146    3.4989  -14.1579 N   0  0  0  0  0  0  0  0  0  0  0  0
    8.3979    4.6433  -13.2855 C   0  0  0  0  0  0  0  0  0  0  0  0
    9.0497    4.4920  -11.8933 C   0  0  0  0  0  0  0  0  0  0  0  0
    8.1492    5.0583  -10.7743 C   0  0  0  0  0  0  0  0  0  0  0  0
    8.8481    5.2785   -9.4102 C   0  0  0  0  0  0  0  0  0  0  0  0
    9.2868    6.6851   -9.1889 N   0  0  2  0  0  0  0  0  0  0  0  0
   10.1856    7.1798  -10.2749 C   0  0  0  0  0  0  0  0  0  0  0  0
   10.6310    8.6221  -10.0700 C   0  0  0  0  0  0  0  0  0  0  0  0
   11.2947    8.7510   -8.7093 C   0  0  0  0  0  0  0  0  0  0  0  0
   10.2846    8.3754   -7.6201 C   0  0  2  0  0  0  0  0  0  0  0  0
   10.7939    8.8304   -6.2710 C   0  0  0  0  0  0  0  0  0  0  0  0
   10.8873   10.1692   -6.0069 C   0  0  0  0  0  0  0  0  0  0  0  0
   11.2616   10.3745   -4.7080 N   0  0  0  0  0  0  0  0  0  0  0  0
   11.5854    9.1904   -4.1118 C   0  0  0  0  0  0  0  0  0  0  0  0
   12.0869    8.9232   -2.8301 C   0  0  0  0  0  0  0  0  0  0  0  0
   12.3415    7.5983   -2.4639 C   0  0  0  0  0  0  0  0  0  0  0  0
   12.0857    6.5724   -3.3861 C   0  0  0  0  0  0  0  0  0  0  0  0
   11.5562    6.8463   -4.6663 C   0  0  0  0  0  0  0  0  0  0  0  0
   11.2950    8.1730   -5.0778 C   0  0  0  0  0  0  0  0  0  0  0  0
    9.8515    6.9029   -7.8134 C   0  0  0  0  0  0  0  0  0  0  0  0
    6.6654   -0.2449  -13.4214 H   0  0  0  0  0  0  0  0  0  0  0  0
    4.8118   -1.8272  -13.8530 H   0  0  0  0  0  0  0  0  0  0  0  0
    3.8253   -2.0269  -16.1310 H   0  0  0  0  0  0  0  0  0  0  0  0
    4.7020   -0.6156  -17.9829 H   0  0  0  0  0  0  0  0  0  0  0  0
    6.5634    0.9767  -17.5653 H   0  0  0  0  0  0  0  0  0  0  0  0
    8.6661   -0.6237  -16.8090 H   0  0  0  0  0  0  0  0  0  0  0  0
   10.7847   -0.7917  -17.9020 H   0  0  0  0  0  0  0  0  0  0  0  0
   12.5222    1.0113  -17.5588 H   0  0  0  0  0  0  0  0  0  0  0  0
   12.0903    2.8568  -16.1088 H   0  0  0  0  0  0  0  0  0  0  0  0
    8.7871    5.5159  -13.8137 H   0  0  0  0  0  0  0  0  0  0  0  0
    7.3263    4.8343  -13.2132 H   0  0  0  0  0  0  0  0  0  0  0  0
    9.2812    3.4458  -11.6919 H   0  0  0  0  0  0  0  0  0  0  0  0
   10.0212    4.9838  -11.9113 H   0  0  0  0  0  0  0  0  0  0  0  0
    7.6703    5.9846  -11.0931 H   0  0  0  0  0  0  0  0  0  0  0  0
    7.3327    4.3501  -10.6471 H   0  0  0  0  0  0  0  0  0  0  0  0
    8.1359    5.0345   -8.6202 H   0  0  0  0  0  0  0  0  0  0  0  0
    9.6862    4.5903   -9.2925 H   0  0  0  0  0  0  0  0  0  0  0  0
   11.0798    6.5662  -10.3260 H   0  0  0  0  0  0  0  0  0  0  0  0
    9.6925    7.1276  -11.2442 H   0  0  0  0  0  0  0  0  0  0  0  0
   11.3316    8.9139  -10.8524 H   0  0  0  0  0  0  0  0  0  0  0  0
    9.7764    9.2969  -10.1448 H   0  0  0  0  0  0  0  0  0  0  0  0
   12.1894    8.1294   -8.6426 H   0  0  0  0  0  0  0  0  0  0  0  0
   11.6259    9.7723   -8.5875 H   0  0  0  0  0  0  0  0  0  0  0  0
    9.3835    8.9663   -7.8041 H   0  0  0  0  0  0  0  0  0  0  0  0
   10.6517   11.0022   -6.6435 H   0  0  0  0  0  0  0  0  0  0  0  0
   11.3264   11.2905   -4.2875 H   0  0  0  0  0  0  0  0  0  0  0  0
   12.2839    9.7299   -2.1384 H   0  0  0  0  0  0  0  0  0  0  0  0
   12.7333    7.3699   -1.4835 H   0  0  0  0  0  0  0  0  0  0  0  0
   12.2953    5.5567   -3.0972 H   0  0  0  0  0  0  0  0  0  0  0  0
   11.3633    6.0283   -5.3421 H   0  0  0  0  0  0  0  0  0  0  0  0
    9.0954    6.6418   -7.0710 H   0  0  0  0  0  0  0  0  0  0  0  0
   10.7010    6.2372   -7.6544 H   0  0  0  0  0  0  0  0  0  0  0  0
    8.4346    7.2369   -9.2453 H   0  0  0  0  0  0  0  0  0  0  0  0
  2  1  2  0
  3  2  1  0
  4  3  1  0
  5  4  2  0
  6  5  1  0
  7  6  2  0
  8  7  1  0
  9  4  1  0
  9  8  2  0
 10  3  2  0
 11 10  1  0
 12 11  2  0
 13 12  1  0
 14 13  2  0
 15 10  1  0
 15 14  1  0
 16 15  1  0
 17 16  2  0
 18  2  1  0
 18 16  1  0
 19 18  1  0
 20 19  1  0
 21 20  1  0
 22 21  1  0
 23 22  1  0
 24 23  1  0
 25 24  1  0
 26 25  1  0
 27 26  1  0
 28 27  1  0
 29 28  2  0
 30 29  1  0
 31 30  1  0
 32 31  2  0
 33 32  1  0
 34 33  2  0
 35 34  1  0
 36 28  1  0
 36 31  1  0
 36 35  2  0
 37 23  1  0
 37 27  1  0
 38  5  1  0
 39  6  1  0
 40  7  1  0
 41  8  1  0
 42  9  1  0
 43 11  1  0
 44 12  1  0
 45 13  1  0
 46 14  1  0
 47 19  1  0
 48 19  1  0
 49 20  1  0
 50 20  1  0
 51 21  1  0
 52 21  1  0
 53 22  1  0
 54 22  1  0
 55 24  1  0
 56 24  1  0
 57 25  1  0
 58 25  1  0
 59 26  1  0
 60 26  1  0
 27 61  1  6
 62 29  1  0
 63 30  1  0
 64 32  1  0
 65 33  1  0
 66 34  1  0
 67 35  1  0
 68 37  1  0
 69 37  1  0
 23 70  1  1
M  CHG  1  23   1
M  END
>  <b_m_subgroup_collapsed>  (45) 
0

>  <r_i_docking_score>  (45) 
-9.4045161097867407

>  <s_m_subgroup_title>  (45) 
glide-dock_SP_D22_pv

>  <s_m_subgroupid>  (45) 
glide-dock_SP_D22_pv

>  <Molecule ChEMBL ID>  (45) 
CHEMBL4451231

>  <Standard Type>  (45) 
Ki

>  <Standard Value>  (45) 
17670.0

>  <label>  (45) 
0

$$$$
CHEMBL516944
     RDKit          3D

 48 51  0  0  1  0  0  0  0  0999 V2000
    5.1141    2.8340  -12.6462 O   0  0  0  0  0  0  0  0  0  0  0  0
    6.0875    3.5266  -12.9333 C   0  0  0  0  0  0  0  0  0  0  0  0
    6.2474    4.9539  -12.3728 C   0  0  0  0  0  0  0  0  0  0  0  0
    7.7146    5.4510  -12.1624 C   0  0  1  0  0  0  0  0  0  0  0  0
    8.3393    5.0219  -10.7939 C   0  0  0  0  0  0  0  0  0  0  0  0
    8.5769    6.1717   -9.8743 N   0  0  0  0  0  0  0  0  0  0  0  0
    8.7732    5.7792   -8.4497 C   0  0  0  0  0  0  0  0  0  0  0  0
    8.9896    7.0065   -7.5202 C   0  0  0  0  0  0  0  0  0  0  0  0
   10.0572    7.8746   -8.0360 N   0  0  0  0  0  0  0  0  0  0  0  0
   11.1432    8.3501   -7.3730 C   0  0  0  0  0  0  0  0  0  0  0  0
   12.0314    8.9718   -7.9521 O   0  0  0  0  0  0  0  0  0  0  0  0
   11.2791    8.2202   -5.8793 C   0  0  0  0  0  0  0  0  0  0  0  0
   11.5909    9.3775   -5.1279 C   0  0  0  0  0  0  0  0  0  0  0  0
   11.9464    9.2835   -3.7675 C   0  0  0  0  0  0  0  0  0  0  0  0
   12.0146    8.0240   -3.1464 C   0  0  0  0  0  0  0  0  0  0  0  0
   12.3880    7.9243   -1.8492 F   0  0  0  0  0  0  0  0  0  0  0  0
   11.6857    6.8671   -3.8777 C   0  0  0  0  0  0  0  0  0  0  0  0
   11.3078    6.9648   -5.2332 C   0  0  0  0  0  0  0  0  0  0  0  0
    9.7852    8.2926   -9.4204 C   0  0  0  0  0  0  0  0  0  0  0  0
    9.6695    7.0663  -10.3354 C   0  0  0  0  0  0  0  0  0  0  0  0
    8.6479    5.1000  -13.3532 C   0  0  0  0  0  0  0  0  0  0  0  0
    8.2793    3.8020  -13.9784 C   0  0  0  0  0  0  0  0  0  0  0  0
    9.1506    3.2193  -14.8447 O   0  0  0  0  0  0  0  0  0  0  0  0
    8.5575    2.0575  -15.2438 C   0  0  0  0  0  0  0  0  0  0  0  0
    7.3322    1.9056  -14.6533 C   0  0  0  0  0  0  0  0  0  0  0  0
    7.1461    3.0607  -13.8467 C   0  0  0  0  0  0  0  0  0  0  0  0
    5.7536    5.6181  -13.0821 H   0  0  0  0  0  0  0  0  0  0  0  0
    5.6806    5.0465  -11.4470 H   0  0  0  0  0  0  0  0  0  0  0  0
    7.6315    6.5381  -12.1541 H   0  0  0  0  0  0  0  0  0  0  0  0
    7.6858    4.3049  -10.2964 H   0  0  0  0  0  0  0  0  0  0  0  0
    9.2791    4.4856  -10.9363 H   0  0  0  0  0  0  0  0  0  0  0  0
    7.9019    5.2229   -8.1064 H   0  0  0  0  0  0  0  0  0  0  0  0
    9.6282    5.1072   -8.3785 H   0  0  0  0  0  0  0  0  0  0  0  0
    8.0861    7.6122   -7.4681 H   0  0  0  0  0  0  0  0  0  0  0  0
    9.1416    6.6638   -6.5009 H   0  0  0  0  0  0  0  0  0  0  0  0
   11.6036   10.3473   -5.6058 H   0  0  0  0  0  0  0  0  0  0  0  0
   12.2000   10.1687   -3.2041 H   0  0  0  0  0  0  0  0  0  0  0  0
   11.7388    5.8969   -3.4043 H   0  0  0  0  0  0  0  0  0  0  0  0
   11.1303    6.0553   -5.7858 H   0  0  0  0  0  0  0  0  0  0  0  0
    8.8533    8.8607   -9.4382 H   0  0  0  0  0  0  0  0  0  0  0  0
   10.5395    8.9667   -9.8312 H   0  0  0  0  0  0  0  0  0  0  0  0
   10.6140    6.5205  -10.3480 H   0  0  0  0  0  0  0  0  0  0  0  0
    9.4890    7.4054  -11.3544 H   0  0  0  0  0  0  0  0  0  0  0  0
    9.7018    5.1168  -13.0748 H   0  0  0  0  0  0  0  0  0  0  0  0
    8.5296    5.8602  -14.1234 H   0  0  0  0  0  0  0  0  0  0  0  0
    9.1346    1.4600  -15.9351 H   0  0  0  0  0  0  0  0  0  0  0  0
    6.6562    1.0720  -14.7824 H   0  0  0  0  0  0  0  0  0  0  0  0
    7.7281    6.7428   -9.8911 H   0  0  0  0  0  0  0  0  0  0  0  0
  2  1  2  0
  3  2  1  0
  4  3  1  0
  5  4  1  0
  6  5  1  0
  7  6  1  0
  8  7  1  0
  9  8  1  0
 10  9  1  0
 11 10  2  0
 12 10  1  0
 13 12  1  0
 14 13  2  0
 15 14  1  0
 16 15  1  0
 17 15  2  0
 18 12  2  0
 18 17  1  0
 19  9  1  0
 20  6  1  0
 20 19  1  0
 21  4  1  0
 22 21  1  0
 23 22  1  0
 24 23  1  0
 25 24  2  0
 26  2  1  0
 26 22  2  0
 26 25  1  0
 27  3  1  0
 28  3  1  0
  4 29  1  1
 30  5  1  0
 31  5  1  0
 32  7  1  0
 33  7  1  0
 34  8  1  0
 35  8  1  0
 36 13  1  0
 37 14  1  0
 38 17  1  0
 39 18  1  0
 40 19  1  0
 41 19  1  0
 42 20  1  0
 43 20  1  0
 44 21  1  0
 45 21  1  0
 46 24  1  0
 47 25  1  0
 48  6  1  0
M  CHG  1   6   1
M  END
>  <b_m_subgroup_collapsed>  (46) 
0

>  <r_i_docking_score>  (46) 
-9.3952701650931303

>  <s_m_subgroup_title>  (46) 
glide-dock_SP_D22_pv

>  <s_m_subgroupid>  (46) 
glide-dock_SP_D22_pv

>  <Molecule ChEMBL ID>  (46) 
CHEMBL516944

>  <Standard Type>  (46) 
Ki

>  <Standard Value>  (46) 
10000.0

>  <label>  (46) 
0

$$$$
CHEMBL6055703
     RDKit          3D

 72 77  0  0  1  0  0  0  0  0999 V2000
   10.0839   -0.2065  -15.0424 O   0  0  0  0  0  0  0  0  0  0  0  0
    9.2088    0.1705  -15.8221 C   0  0  0  0  0  0  0  0  0  0  0  0
    8.1751    1.0422  -15.5380 N   0  0  0  0  0  0  0  0  0  0  0  0
    8.1284    1.8444  -14.3220 C   0  0  1  0  0  0  0  0  0  0  0  0
    9.2132    2.9332  -14.4333 C   0  0  0  0  0  0  0  0  0  0  0  0
    9.1665    3.8626  -13.2312 C   0  0  0  0  0  0  0  0  0  0  0  0
    7.7917    4.5497  -13.1111 C   0  0  2  0  0  0  0  0  0  0  0  0
    7.7718    5.5979  -11.9837 C   0  0  0  0  0  0  0  0  0  0  0  0
    8.3352    5.1060  -10.6266 C   0  0  0  0  0  0  0  0  0  0  0  0
    8.4863    6.1719   -9.6077 N   0  0  0  0  0  0  0  0  0  0  0  0
    8.8183    5.6017   -8.2745 C   0  0  0  0  0  0  0  0  0  0  0  0
    9.0161    6.6857   -7.2038 C   0  0  0  0  0  0  0  0  0  0  0  0
   10.0024    7.6680   -7.6420 N   0  0  0  0  0  0  0  0  0  0  0  0
   10.6872    8.4865   -6.7054 C   0  0  0  0  0  0  0  0  0  0  0  0
   10.8708    9.7476   -7.0279 N   0  0  0  0  0  0  0  0  0  0  0  0
   11.6788   10.5655   -5.8465 S   0  0  0  0  0  0  0  0  0  0  0  0
   11.8593    9.1897   -4.7889 C   0  0  0  0  0  0  0  0  0  0  0  0
   12.4823    9.1157   -3.5275 C   0  0  0  0  0  0  0  0  0  0  0  0
   12.4668    7.9018   -2.8238 C   0  0  0  0  0  0  0  0  0  0  0  0
   11.8958    6.7634   -3.4179 C   0  0  0  0  0  0  0  0  0  0  0  0
   11.3078    6.8417   -4.6975 C   0  0  0  0  0  0  0  0  0  0  0  0
   11.2389    8.0617   -5.4189 C   0  0  0  0  0  0  0  0  0  0  0  0
    9.6335    8.2739   -8.9260 C   0  0  0  0  0  0  0  0  0  0  0  0
    9.4370    7.2306  -10.0200 C   0  0  0  0  0  0  0  0  0  0  0  0
    6.6300    3.5344  -13.0417 C   0  0  0  0  0  0  0  0  0  0  0  0
    6.7243    2.4791  -14.1639 C   0  0  0  0  0  0  0  0  0  0  0  0
    9.1302   -0.1809  -17.1171 O   0  0  0  0  0  0  0  0  0  0  0  0
   10.1307   -1.0103  -17.7037 C   0  0  0  0  0  0  0  0  0  0  0  0
   11.2749   -0.1678  -18.2067 C   0  0  0  0  0  0  0  0  0  0  0  0
   12.3300   -0.5008  -19.0254 C   0  0  0  0  0  0  0  0  0  0  0  0
   13.1229    0.6865  -19.1665 C   0  0  0  0  0  0  0  0  0  0  0  0
   14.3054    1.0627  -19.8462 C   0  0  0  0  0  0  0  0  0  0  0  0
   14.8034    2.3819  -19.7510 C   0  0  0  0  0  0  0  0  0  0  0  0
   14.1350    3.3464  -18.9648 C   0  0  0  0  0  0  0  0  0  0  0  0
   12.9605    2.9946  -18.2705 C   0  0  0  0  0  0  0  0  0  0  0  0
   12.4792    1.6803  -18.3885 C   0  0  0  0  0  0  0  0  0  0  0  0
   11.3487    1.1460  -17.8074 O   0  0  0  0  0  0  0  0  0  0  0  0
    7.5301    1.2306  -16.2900 H   0  0  0  0  0  0  0  0  0  0  0  0
    8.3444    1.2104  -13.4525 H   0  0  0  0  0  0  0  0  0  0  0  0
   10.2070    2.4846  -14.4920 H   0  0  0  0  0  0  0  0  0  0  0  0
    9.0774    3.5113  -15.3496 H   0  0  0  0  0  0  0  0  0  0  0  0
    9.3912    3.2636  -12.3496 H   0  0  0  0  0  0  0  0  0  0  0  0
    9.9567    4.6096  -13.3171 H   0  0  0  0  0  0  0  0  0  0  0  0
    7.6523    5.1033  -14.0408 H   0  0  0  0  0  0  0  0  0  0  0  0
    8.3611    6.4327  -12.3585 H   0  0  0  0  0  0  0  0  0  0  0  0
    6.7589    5.9850  -11.8477 H   0  0  0  0  0  0  0  0  0  0  0  0
    7.6887    4.3188  -10.2378 H   0  0  0  0  0  0  0  0  0  0  0  0
    9.3229    4.6623  -10.7435 H   0  0  0  0  0  0  0  0  0  0  0  0
    8.0379    4.9106   -7.9568 H   0  0  0  0  0  0  0  0  0  0  0  0
    9.7359    5.0157   -8.3589 H   0  0  0  0  0  0  0  0  0  0  0  0
    8.0817    7.2103   -7.0168 H   0  0  0  0  0  0  0  0  0  0  0  0
    9.2767    6.1976   -6.2699 H   0  0  0  0  0  0  0  0  0  0  0  0
   12.9150    9.9974   -3.0800 H   0  0  0  0  0  0  0  0  0  0  0  0
   12.8835    7.8429   -1.8305 H   0  0  0  0  0  0  0  0  0  0  0  0
   11.9055    5.8210   -2.8860 H   0  0  0  0  0  0  0  0  0  0  0  0
   10.9076    5.9348   -5.1191 H   0  0  0  0  0  0  0  0  0  0  0  0
    8.7171    8.8526   -8.7970 H   0  0  0  0  0  0  0  0  0  0  0  0
   10.4010    8.9612   -9.2794 H   0  0  0  0  0  0  0  0  0  0  0  0
   10.3957    6.7860  -10.2929 H   0  0  0  0  0  0  0  0  0  0  0  0
    9.0483    7.7608  -10.8903 H   0  0  0  0  0  0  0  0  0  0  0  0
    6.5647    3.0565  -12.0661 H   0  0  0  0  0  0  0  0  0  0  0  0
    5.6835    4.0684  -13.1458 H   0  0  0  0  0  0  0  0  0  0  0  0
    6.4490    2.9717  -15.0941 H   0  0  0  0  0  0  0  0  0  0  0  0
    5.9736    1.7035  -14.0050 H   0  0  0  0  0  0  0  0  0  0  0  0
    9.6814   -1.5499  -18.5382 H   0  0  0  0  0  0  0  0  0  0  0  0
   10.4863   -1.7638  -16.9999 H   0  0  0  0  0  0  0  0  0  0  0  0
   12.5391   -1.4530  -19.4845 H   0  0  0  0  0  0  0  0  0  0  0  0
   14.8245    0.3340  -20.4505 H   0  0  0  0  0  0  0  0  0  0  0  0
   15.7007    2.6577  -20.2867 H   0  0  0  0  0  0  0  0  0  0  0  0
   14.5219    4.3532  -18.8960 H   0  0  0  0  0  0  0  0  0  0  0  0
   12.4326    3.7153  -17.6632 H   0  0  0  0  0  0  0  0  0  0  0  0
    7.5848    6.6498   -9.5337 H   0  0  0  0  0  0  0  0  0  0  0  0
  2  1  2  0
  3  2  1  0
  4  3  1  0
  5  4  1  0
  6  5  1  0
  7  6  1  0
  8  7  1  0
  9  8  1  0
 10  9  1  0
 11 10  1  0
 12 11  1  0
 13 12  1  0
 14 13  1  0
 15 14  2  0
 16 15  1  0
 17 16  1  0
 18 17  2  0
 19 18  1  0
 20 19  2  0
 21 20  1  0
 22 14  1  0
 22 17  1  0
 22 21  2  0
 23 13  1  0
 24 10  1  0
 24 23  1  0
 25  7  1  0
 26  4  1  0
 26 25  1  0
 27  2  1  0
 28 27  1  0
 29 28  1  0
 30 29  2  0
 31 30  1  0
 32 31  2  0
 33 32  1  0
 34 33  2  0
 35 34  1  0
 36 31  1  0
 36 35  2  0
 37 29  1  0
 37 36  1  0
 38  3  1  0
  4 39  1  1
 40  5  1  0
 41  5  1  0
 42  6  1  0
 43  6  1  0
  7 44  1  6
 45  8  1  0
 46  8  1  0
 47  9  1  0
 48  9  1  0
 49 11  1  0
 50 11  1  0
 51 12  1  0
 52 12  1  0
 53 18  1  0
 54 19  1  0
 55 20  1  0
 56 21  1  0
 57 23  1  0
 58 23  1  0
 59 24  1  0
 60 24  1  0
 61 25  1  0
 62 25  1  0
 63 26  1  0
 64 26  1  0
 65 28  1  0
 66 28  1  0
 67 30  1  0
 68 32  1  0
 69 33  1  0
 70 34  1  0
 71 35  1  0
 72 10  1  0
M  CHG  1  10   1
M  END
>  <b_m_subgroup_collapsed>  (47) 
0

>  <r_i_docking_score>  (47) 
-9.3951964523909499

>  <s_m_subgroup_title>  (47) 
glide-dock_SP_D22_pv

>  <s_m_subgroupid>  (47) 
glide-dock_SP_D22_pv

>  <Molecule ChEMBL ID>  (47) 
CHEMBL6055703

>  <Standard Type>  (47) 
Ki

>  <Standard Value>  (47) 
5.73

>  <label>  (47) 
1

$$$$
CHEMBL252343
     RDKit          3D

 69 73  0  0  1  0  0  0  0  0999 V2000
    8.0861    9.6093  -10.9095 C   0  0  0  0  0  0  0  0  0  0  0  0
    8.4280    9.0487  -12.3025 C   0  0  0  0  0  0  0  0  0  0  0  0
    7.7413    7.6906  -12.6155 C   0  0  0  0  0  0  0  0  0  0  0  0
    8.0860    6.5339  -11.7420 N   0  0  2  0  0  0  0  0  0  0  0  0
    9.4998    6.4299  -11.2757 C   0  0  0  0  0  0  0  0  0  0  0  0
    9.5853    5.8614   -9.8471 C   0  0  0  0  0  0  0  0  0  0  0  0
    9.5769    6.8731   -8.7876 N   0  0  0  0  0  0  0  0  0  0  0  0
   10.8435    7.6306   -8.7490 C   0  0  0  0  0  0  0  0  0  0  0  0
   10.9657    8.5119   -7.4858 C   0  0  0  0  0  0  0  0  0  0  0  0
   10.8076    7.6703   -6.3105 N   0  0  0  0  0  0  0  0  0  0  0  0
   11.2858    8.0719   -5.0575 C   0  0  0  0  0  0  0  0  0  0  0  0
   11.6861    7.0768   -4.1386 C   0  0  0  0  0  0  0  0  0  0  0  0
   12.1089    7.4268   -2.8433 C   0  0  0  0  0  0  0  0  0  0  0  0
   12.1170    8.7785   -2.4550 C   0  0  0  0  0  0  0  0  0  0  0  0
   11.7075    9.7721   -3.3638 C   0  0  0  0  0  0  0  0  0  0  0  0
   11.3079    9.4279   -4.6683 C   0  0  0  0  0  0  0  0  0  0  0  0
    9.5133    7.0114   -6.3025 C   0  0  0  0  0  0  0  0  0  0  0  0
    9.4168    6.1189   -7.5397 C   0  0  0  0  0  0  0  0  0  0  0  0
    7.5046    5.2191  -12.1923 C   0  0  1  0  0  0  0  0  0  0  0  0
    5.9774    5.2660  -12.3751 C   0  0  0  0  0  0  0  0  0  0  0  0
    5.3816    3.8633  -12.5718 C   0  0  0  0  0  0  0  0  0  0  0  0
    6.2158    2.9174  -13.4230 C   0  0  0  0  0  0  0  0  0  0  0  0
    5.6883    1.6247  -13.6814 C   0  0  0  0  0  0  0  0  0  0  0  0
    6.4494    0.6446  -14.3509 C   0  0  0  0  0  0  0  0  0  0  0  0
    7.7458    0.9966  -14.7487 C   0  0  0  0  0  0  0  0  0  0  0  0
    8.2768    2.2617  -14.5194 C   0  0  0  0  0  0  0  0  0  0  0  0
    7.5318    3.2577  -13.8459 C   0  0  0  0  0  0  0  0  0  0  0  0
    8.1580    4.5970  -13.4617 C   0  0  0  0  0  0  0  0  0  0  0  0
    9.7099    2.3040  -15.0019 C   0  0  0  0  0  0  0  0  0  0  0  0
    9.8489    0.8615  -15.5219 C   0  0  0  0  0  0  0  0  0  0  0  0
   10.8823    0.4140  -16.0138 O   0  0  0  0  0  0  0  0  0  0  0  0
    8.7050    0.1839  -15.3538 N   0  0  0  0  0  0  0  0  0  0  0  0
    8.4860   10.5723  -10.6486 H   0  0  0  0  0  0  0  0  0  0  0  0
    7.0139    9.7724  -10.8459 H   0  0  0  0  0  0  0  0  0  0  0  0
    8.4258    8.9493  -10.1136 H   0  0  0  0  0  0  0  0  0  0  0  0
    9.5030    9.0002  -12.4557 H   0  0  0  0  0  0  0  0  0  0  0  0
    8.0869    9.7700  -13.0448 H   0  0  0  0  0  0  0  0  0  0  0  0
    7.9401    7.3718  -13.6185 H   0  0  0  0  0  0  0  0  0  0  0  0
    6.6641    7.8533  -12.5826 H   0  0  0  0  0  0  0  0  0  0  0  0
   10.0346    7.3686  -11.3070 H   0  0  0  0  0  0  0  0  0  0  0  0
   10.0741    5.7946  -11.9448 H   0  0  0  0  0  0  0  0  0  0  0  0
   10.4860    5.2602   -9.7489 H   0  0  0  0  0  0  0  0  0  0  0  0
    8.7621    5.1667   -9.6801 H   0  0  0  0  0  0  0  0  0  0  0  0
   10.9333    8.2729   -9.6237 H   0  0  0  0  0  0  0  0  0  0  0  0
   11.6857    6.9440   -8.7765 H   0  0  0  0  0  0  0  0  0  0  0  0
   10.2034    9.2928   -7.4894 H   0  0  0  0  0  0  0  0  0  0  0  0
   11.9391    9.0034   -7.4676 H   0  0  0  0  0  0  0  0  0  0  0  0
   11.6631    6.0357   -4.4266 H   0  0  0  0  0  0  0  0  0  0  0  0
   12.4105    6.6563   -2.1484 H   0  0  0  0  0  0  0  0  0  0  0  0
   12.4210    9.0572   -1.4562 H   0  0  0  0  0  0  0  0  0  0  0  0
   11.6861   10.8035   -3.0470 H   0  0  0  0  0  0  0  0  0  0  0  0
   10.9821   10.2037   -5.3453 H   0  0  0  0  0  0  0  0  0  0  0  0
    9.3885    6.4063   -5.4051 H   0  0  0  0  0  0  0  0  0  0  0  0
    8.7137    7.7539   -6.3028 H   0  0  0  0  0  0  0  0  0  0  0  0
    8.4569    5.5996   -7.5375 H   0  0  0  0  0  0  0  0  0  0  0  0
   10.2026    5.3701   -7.4721 H   0  0  0  0  0  0  0  0  0  0  0  0
    7.6767    4.5143  -11.3796 H   0  0  0  0  0  0  0  0  0  0  0  0
    5.4983    5.7521  -11.5225 H   0  0  0  0  0  0  0  0  0  0  0  0
    5.7259    5.8617  -13.2515 H   0  0  0  0  0  0  0  0  0  0  0  0
    4.3804    3.9323  -12.9975 H   0  0  0  0  0  0  0  0  0  0  0  0
    5.2862    3.3936  -11.5919 H   0  0  0  0  0  0  0  0  0  0  0  0
    4.6953    1.3737  -13.3381 H   0  0  0  0  0  0  0  0  0  0  0  0
    6.0585   -0.3469  -14.5271 H   0  0  0  0  0  0  0  0  0  0  0  0
    8.0805    5.2617  -14.3209 H   0  0  0  0  0  0  0  0  0  0  0  0
    9.2200    4.4240  -13.3043 H   0  0  0  0  0  0  0  0  0  0  0  0
    9.8484    3.0343  -15.7991 H   0  0  0  0  0  0  0  0  0  0  0  0
   10.4075    2.4931  -14.1860 H   0  0  0  0  0  0  0  0  0  0  0  0
    8.5407   -0.7878  -15.5889 H   0  0  0  0  0  0  0  0  0  0  0  0
    7.5611    6.8008  -10.9037 H   0  0  0  0  0  0  0  0  0  0  0  0
  2  1  1  0
  3  2  1  0
  4  3  1  0
  5  4  1  0
  6  5  1  0
  7  6  1  0
  8  7  1  0
  9  8  1  0
 10  9  1  0
 11 10  1  0
 12 11  2  0
 13 12  1  0
 14 13  2  0
 15 14  1  0
 16 11  1  0
 16 15  2  0
 17 10  1  0
 18  7  1  0
 18 17  1  0
 19  4  1  0
 20 19  1  0
 21 20  1  0
 22 21  1  0
 23 22  1  0
 24 23  2  0
 25 24  1  0
 26 25  2  0
 27 22  2  0
 27 26  1  0
 28 19  1  0
 28 27  1  0
 29 26  1  0
 30 29  1  0
 31 30  2  0
 32 25  1  0
 32 30  1  0
 33  1  1  0
 34  1  1  0
 35  1  1  0
 36  2  1  0
 37  2  1  0
 38  3  1  0
 39  3  1  0
 40  5  1  0
 41  5  1  0
 42  6  1  0
 43  6  1  0
 44  8  1  0
 45  8  1  0
 46  9  1  0
 47  9  1  0
 48 12  1  0
 49 13  1  0
 50 14  1  0
 51 15  1  0
 52 16  1  0
 53 17  1  0
 54 17  1  0
 55 18  1  0
 56 18  1  0
 19 57  1  1
 58 20  1  0
 59 20  1  0
 60 21  1  0
 61 21  1  0
 62 23  1  0
 63 24  1  0
 64 28  1  0
 65 28  1  0
 66 29  1  0
 67 29  1  0
 68 32  1  0
  4 69  1  1
M  CHG  1   4   1
M  END
>  <b_m_subgroup_collapsed>  (48) 
0

>  <r_i_docking_score>  (48) 
-9.3883479367154106

>  <s_m_subgroup_title>  (48) 
glide-dock_SP_D22_pv

>  <s_m_subgroupid>  (48) 
glide-dock_SP_D22_pv

>  <Molecule ChEMBL ID>  (48) 
CHEMBL252343

>  <Standard Type>  (48) 
Ki

>  <Standard Value>  (48) 
90.6

>  <label>  (48) 
1

$$$$
CHEMBL553327
     RDKit          3D

 54 57  0  0  1  0  0  0  0  0999 V2000
   10.4859    9.6360   -6.7556 O   0  0  0  0  0  0  0  0  0  0  0  0
   10.9263    8.6135   -6.2425 C   0  0  0  0  0  0  0  0  0  0  0  0
   11.1025    7.3837   -7.1130 C   0  0  0  0  0  0  0  0  0  0  0  0
    9.9468    6.3575   -7.0364 C   0  0  0  0  0  0  0  0  0  0  0  0
    8.6093    6.7604   -7.6956 C   0  0  0  0  0  0  0  0  0  0  0  0
    8.4876    6.5855   -9.1756 N   0  0  2  0  0  0  0  0  0  0  0  0
    8.4739    5.2317   -9.7392 C   0  0  2  0  0  0  0  0  0  0  0  0
    9.9298    4.9324  -10.1120 C   0  0  0  0  0  0  0  0  0  0  0  0
   10.5832    6.3231  -10.1972 C   0  0  0  0  0  0  0  0  0  0  0  0
    9.4441    7.3080  -10.0399 C   0  0  1  0  0  0  0  0  0  0  0  0
    8.8301    7.5640  -11.4457 C   0  0  0  0  0  0  0  0  0  0  0  0
    8.1124    6.3136  -12.0773 C   0  0  1  0  0  0  0  0  0  0  0  0
    6.9447    6.8618  -12.6470 O   0  0  0  0  0  0  0  0  0  0  0  0
    8.9063    5.5013  -13.1269 C   0  0  0  0  0  0  0  0  0  0  0  0
    8.2632    4.4167  -13.7723 C   0  0  0  0  0  0  0  0  0  0  0  0
    8.9606    3.5737  -14.6575 C   0  0  0  0  0  0  0  0  0  0  0  0
   10.3143    3.8178  -14.9423 C   0  0  0  0  0  0  0  0  0  0  0  0
   10.9617    4.9150  -14.3490 C   0  0  0  0  0  0  0  0  0  0  0  0
   10.2640    5.7496  -13.4548 C   0  0  0  0  0  0  0  0  0  0  0  0
    7.5725    5.3489  -10.9820 C   0  0  0  0  0  0  0  0  0  0  0  0
   11.4014    8.5467   -4.8484 C   0  0  0  0  0  0  0  0  0  0  0  0
   11.7928    7.3300   -4.2418 C   0  0  0  0  0  0  0  0  0  0  0  0
   12.3439    7.3356   -2.9488 C   0  0  0  0  0  0  0  0  0  0  0  0
   12.4864    8.5510   -2.2586 C   0  0  0  0  0  0  0  0  0  0  0  0
   13.0677    8.5718   -1.0469 F   0  0  0  0  0  0  0  0  0  0  0  0
   12.0318    9.7489   -2.8295 C   0  0  0  0  0  0  0  0  0  0  0  0
   11.4872    9.7494   -4.1199 C   0  0  0  0  0  0  0  0  0  0  0  0
   12.0463    6.8978   -6.8673 H   0  0  0  0  0  0  0  0  0  0  0  0
   11.2403    7.7983   -8.1037 H   0  0  0  0  0  0  0  0  0  0  0  0
    9.7376    6.1735   -5.9826 H   0  0  0  0  0  0  0  0  0  0  0  0
   10.2811    5.3961   -7.4162 H   0  0  0  0  0  0  0  0  0  0  0  0
    8.3762    7.7963   -7.4471 H   0  0  0  0  0  0  0  0  0  0  0  0
    7.8164    6.1686   -7.2369 H   0  0  0  0  0  0  0  0  0  0  0  0
    8.0860    4.4975   -9.0339 H   0  0  0  0  0  0  0  0  0  0  0  0
   10.0459    4.3484  -11.0237 H   0  0  0  0  0  0  0  0  0  0  0  0
   10.3956    4.3375   -9.3262 H   0  0  0  0  0  0  0  0  0  0  0  0
   11.1802    6.5724  -11.0694 H   0  0  0  0  0  0  0  0  0  0  0  0
   11.2894    6.3631   -9.3912 H   0  0  0  0  0  0  0  0  0  0  0  0
    9.7590    8.2565   -9.6042 H   0  0  0  0  0  0  0  0  0  0  0  0
    9.5555    8.0059  -12.1263 H   0  0  0  0  0  0  0  0  0  0  0  0
    8.1215    8.3854  -11.3318 H   0  0  0  0  0  0  0  0  0  0  0  0
    6.4872    7.3345  -11.9535 H   0  0  0  0  0  0  0  0  0  0  0  0
    7.2213    4.2107  -13.5760 H   0  0  0  0  0  0  0  0  0  0  0  0
    8.4529    2.7404  -15.1209 H   0  0  0  0  0  0  0  0  0  0  0  0
   10.8507    3.1747  -15.6251 H   0  0  0  0  0  0  0  0  0  0  0  0
   11.9953    5.1209  -14.5831 H   0  0  0  0  0  0  0  0  0  0  0  0
   10.8031    6.5931  -13.0653 H   0  0  0  0  0  0  0  0  0  0  0  0
    6.6281    5.7724  -10.6470 H   0  0  0  0  0  0  0  0  0  0  0  0
    7.3159    4.3599  -11.3582 H   0  0  0  0  0  0  0  0  0  0  0  0
   11.7164    6.3832   -4.7562 H   0  0  0  0  0  0  0  0  0  0  0  0
   12.6748    6.4123   -2.4952 H   0  0  0  0  0  0  0  0  0  0  0  0
   12.0859   10.6729   -2.2770 H   0  0  0  0  0  0  0  0  0  0  0  0
   11.1656   10.6865   -4.5515 H   0  0  0  0  0  0  0  0  0  0  0  0
    7.5678    6.9894   -9.3835 H   0  0  0  0  0  0  0  0  0  0  0  0
  2  1  2  0
  3  2  1  0
  4  3  1  0
  5  4  1  0
  6  5  1  0
  7  6  1  0
  8  7  1  0
  9  8  1  0
 10  6  1  0
 10  9  1  0
 11 10  1  0
 12 11  1  0
 12 13  1  6
 14 12  1  0
 15 14  2  0
 16 15  1  0
 17 16  2  0
 18 17  1  0
 19 14  1  0
 19 18  2  0
 20  7  1  0
 20 12  1  0
 21  2  1  0
 22 21  1  0
 23 22  2  0
 24 23  1  0
 25 24  1  0
 26 24  2  0
 27 21  2  0
 27 26  1  0
 28  3  1  0
 29  3  1  0
 30  4  1  0
 31  4  1  0
 32  5  1  0
 33  5  1  0
  7 34  1  1
 35  8  1  0
 36  8  1  0
 37  9  1  0
 38  9  1  0
 10 39  1  1
 40 11  1  0
 41 11  1  0
 42 13  1  0
 43 15  1  0
 44 16  1  0
 45 17  1  0
 46 18  1  0
 47 19  1  0
 48 20  1  0
 49 20  1  0
 50 22  1  0
 51 23  1  0
 52 26  1  0
 53 27  1  0
  6 54  1  6
M  CHG  1   6   1
M  END
>  <b_m_subgroup_collapsed>  (49) 
0

>  <r_i_docking_score>  (49) 
-9.3741780574698392

>  <s_m_subgroup_title>  (49) 
glide-dock_SP_D22_pv

>  <s_m_subgroupid>  (49) 
glide-dock_SP_D22_pv

>  <Molecule ChEMBL ID>  (49) 
CHEMBL553327

>  <Standard Type>  (49) 
Ki

>  <Standard Value>  (49) 
2.3

>  <label>  (49) 
1

$$$$
CHEMBL3942236
     RDKit          3D

 59 63  0  0  1  0  0  0  0  0999 V2000
    8.1324    0.1331  -14.2893 O   0  0  0  0  0  0  0  0  0  0  0  0
    7.1292    0.8373  -14.2547 C   0  0  0  0  0  0  0  0  0  0  0  0
    5.8063    0.1723  -14.3675 C   0  0  0  0  0  0  0  0  0  0  0  0
    4.6460    0.2569  -13.6420 C   0  0  0  0  0  0  0  0  0  0  0  0
    3.7077   -0.6268  -14.2462 C   0  0  0  0  0  0  0  0  0  0  0  0
    4.3777   -1.2354  -15.2675 C   0  0  0  0  0  0  0  0  0  0  0  0
    5.6560   -0.7742  -15.3409 O   0  0  0  0  0  0  0  0  0  0  0  0
    7.2269    2.1895  -14.2472 N   0  0  0  0  0  0  0  0  0  0  0  0
    6.1209    3.1451  -14.0963 C   0  0  0  0  0  0  0  0  0  0  0  0
    6.4157    4.1094  -12.9412 C   0  0  0  0  0  0  0  0  0  0  0  0
    7.7688    4.8147  -13.1299 C   0  0  0  0  0  0  0  0  0  0  0  0
    8.0726    5.7949  -11.9914 C   0  0  0  0  0  0  0  0  0  0  0  0
    8.4224    5.1317  -10.6413 C   0  0  0  0  0  0  0  0  0  0  0  0
    8.4862    6.0873   -9.5116 N   0  0  0  0  0  0  0  0  0  0  0  0
    8.8860    5.4056   -8.2509 C   0  0  0  0  0  0  0  0  0  0  0  0
    9.1121    6.3659   -7.0637 C   0  0  0  0  0  0  0  0  0  0  0  0
    9.9477    7.5014   -7.4442 N   0  0  0  0  0  0  0  0  0  0  0  0
   10.7937    8.2308   -6.5565 C   0  0  0  0  0  0  0  0  0  0  0  0
   11.1928    9.4092   -6.9832 N   0  0  0  0  0  0  0  0  0  0  0  0
   12.0860   10.1903   -5.8470 S   0  0  0  0  0  0  0  0  0  0  0  0
   11.9808    8.9474   -4.6530 C   0  0  0  0  0  0  0  0  0  0  0  0
   12.4855    8.9601   -3.3421 C   0  0  0  0  0  0  0  0  0  0  0  0
   12.3727    7.8132   -2.5491 C   0  0  0  0  0  0  0  0  0  0  0  0
   11.7922    6.6639   -3.0996 C   0  0  0  0  0  0  0  0  0  0  0  0
   11.2848    6.6743   -4.4156 C   0  0  0  0  0  0  0  0  0  0  0  0
   11.2939    7.8335   -5.2313 C   0  0  0  0  0  0  0  0  0  0  0  0
    9.3955    8.1983   -8.6113 C   0  0  0  0  0  0  0  0  0  0  0  0
    9.3225    7.2704   -9.8102 C   0  0  0  0  0  0  0  0  0  0  0  0
    8.9033    3.8099  -13.3945 C   0  0  0  0  0  0  0  0  0  0  0  0
    8.5191    2.8507  -14.5266 C   0  0  0  0  0  0  0  0  0  0  0  0
    4.4865    0.8955  -12.7856 H   0  0  0  0  0  0  0  0  0  0  0  0
    2.6798   -0.8084  -13.9632 H   0  0  0  0  0  0  0  0  0  0  0  0
    4.1128   -1.9903  -15.9954 H   0  0  0  0  0  0  0  0  0  0  0  0
    5.9788    3.6747  -15.0401 H   0  0  0  0  0  0  0  0  0  0  0  0
    5.1714    2.6876  -13.8472 H   0  0  0  0  0  0  0  0  0  0  0  0
    5.6148    4.8453  -12.8681 H   0  0  0  0  0  0  0  0  0  0  0  0
    6.4029    3.5489  -12.0070 H   0  0  0  0  0  0  0  0  0  0  0  0
    7.6859    5.4123  -14.0367 H   0  0  0  0  0  0  0  0  0  0  0  0
    8.9019    6.4209  -12.3203 H   0  0  0  0  0  0  0  0  0  0  0  0
    7.2201    6.4601  -11.8530 H   0  0  0  0  0  0  0  0  0  0  0  0
    7.6860    4.3727  -10.3886 H   0  0  0  0  0  0  0  0  0  0  0  0
    9.3814    4.6188  -10.7216 H   0  0  0  0  0  0  0  0  0  0  0  0
    8.1319    4.6625   -7.9838 H   0  0  0  0  0  0  0  0  0  0  0  0
    9.8156    4.8638   -8.4317 H   0  0  0  0  0  0  0  0  0  0  0  0
    8.1536    6.7378   -6.6959 H   0  0  0  0  0  0  0  0  0  0  0  0
    9.5511    5.7755   -6.2711 H   0  0  0  0  0  0  0  0  0  0  0  0
   12.9673    9.8426   -2.9549 H   0  0  0  0  0  0  0  0  0  0  0  0
   12.7469    7.8068   -1.5366 H   0  0  0  0  0  0  0  0  0  0  0  0
   11.7213    5.7726   -2.4957 H   0  0  0  0  0  0  0  0  0  0  0  0
   10.8424    5.7721   -4.7769 H   0  0  0  0  0  0  0  0  0  0  0  0
    8.4049    8.5755   -8.3572 H   0  0  0  0  0  0  0  0  0  0  0  0
    9.9647    9.0687   -8.9349 H   0  0  0  0  0  0  0  0  0  0  0  0
   10.3250    6.9598  -10.1107 H   0  0  0  0  0  0  0  0  0  0  0  0
    8.8904    7.8428  -10.6295 H   0  0  0  0  0  0  0  0  0  0  0  0
    9.8158    4.3424  -13.6614 H   0  0  0  0  0  0  0  0  0  0  0  0
    9.1434    3.2305  -12.5056 H   0  0  0  0  0  0  0  0  0  0  0  0
    9.3433    2.1520  -14.6729 H   0  0  0  0  0  0  0  0  0  0  0  0
    8.4535    3.3993  -15.4658 H   0  0  0  0  0  0  0  0  0  0  0  0
    7.5527    6.4719   -9.3796 H   0  0  0  0  0  0  0  0  0  0  0  0
  2  1  2  0
  3  2  1  0
  4  3  2  0
  5  4  1  0
  6  5  2  0
  7  3  1  0
  7  6  1  0
  8  2  1  0
  9  8  1  0
 10  9  1  0
 11 10  1  0
 12 11  1  0
 13 12  1  0
 14 13  1  0
 15 14  1  0
 16 15  1  0
 17 16  1  0
 18 17  1  0
 19 18  2  0
 20 19  1  0
 21 20  1  0
 22 21  2  0
 23 22  1  0
 24 23  2  0
 25 24  1  0
 26 18  1  0
 26 21  1  0
 26 25  2  0
 27 17  1  0
 28 14  1  0
 28 27  1  0
 29 11  1  0
 30  8  1  0
 30 29  1  0
 31  4  1  0
 32  5  1  0
 33  6  1  0
 34  9  1  0
 35  9  1  0
 36 10  1  0
 37 10  1  0
 38 11  1  0
 39 12  1  0
 40 12  1  0
 41 13  1  0
 42 13  1  0
 43 15  1  0
 44 15  1  0
 45 16  1  0
 46 16  1  0
 47 22  1  0
 48 23  1  0
 49 24  1  0
 50 25  1  0
 51 27  1  0
 52 27  1  0
 53 28  1  0
 54 28  1  0
 55 29  1  0
 56 29  1  0
 57 30  1  0
 58 30  1  0
 59 14  1  0
M  CHG  1  14   1
M  END
>  <b_m_subgroup_collapsed>  (50) 
0

>  <r_i_docking_score>  (50) 
-9.3732414889485796

>  <s_m_subgroup_title>  (50) 
glide-dock_SP_D22_pv

>  <s_m_subgroupid>  (50) 
glide-dock_SP_D22_pv

>  <Molecule ChEMBL ID>  (50) 
CHEMBL3942236

>  <Standard Type>  (50) 
Ki

>  <Standard Value>  (50) 
15.0

>  <label>  (50) 
1

$$$$
CHEMBL456673
     RDKit          3D

 70 73  0  0  1  0  0  0  0  0999 V2000
   12.8716    7.6053  -14.5954 C   0  0  0  0  0  0  0  0  0  0  0  0
   12.0531    6.5904  -14.0351 O   0  0  0  0  0  0  0  0  0  0  0  0
   11.9399    5.4060  -14.7287 C   0  0  0  0  0  0  0  0  0  0  0  0
   12.6792    5.0848  -15.8950 C   0  0  0  0  0  0  0  0  0  0  0  0
   12.4861    3.8497  -16.5424 C   0  0  0  0  0  0  0  0  0  0  0  0
   11.5524    2.9248  -16.0424 C   0  0  0  0  0  0  0  0  0  0  0  0
   10.8072    3.2351  -14.8876 C   0  0  0  0  0  0  0  0  0  0  0  0
    9.7395    2.2801  -14.3861 C   0  0  0  0  0  0  0  0  0  0  0  0
    8.5006    2.3330  -15.2920 C   0  0  0  0  0  0  0  0  0  0  0  0
    7.3127    1.5639  -14.7465 C   0  0  0  0  0  0  0  0  0  0  0  0
    7.0964    0.2350  -15.1621 C   0  0  0  0  0  0  0  0  0  0  0  0
    5.9698   -0.4768  -14.7137 C   0  0  0  0  0  0  0  0  0  0  0  0
    5.0552    0.1395  -13.8431 C   0  0  0  0  0  0  0  0  0  0  0  0
    5.2858    1.4552  -13.3958 C   0  0  0  0  0  0  0  0  0  0  0  0
    6.4112    2.1861  -13.8471 C   0  0  0  0  0  0  0  0  0  0  0  0
    6.6774    3.4814  -13.4612 O   0  0  0  0  0  0  0  0  0  0  0  0
    5.9703    4.0272  -12.3525 C   0  0  0  0  0  0  0  0  0  0  0  0
    6.7317    5.2729  -11.8706 C   0  0  0  0  0  0  0  0  0  0  0  0
    8.1316    4.9027  -11.3516 C   0  0  0  0  0  0  0  0  0  0  0  0
    9.0640    6.1003  -11.0701 C   0  0  0  0  0  0  0  0  0  0  0  0
    8.8860    6.7823   -9.7589 N   0  0  0  0  0  0  0  0  0  0  0  0
    9.0091    5.8571   -8.5938 C   0  0  0  0  0  0  0  0  0  0  0  0
    9.0516    6.5831   -7.2403 C   0  0  0  0  0  0  0  0  0  0  0  0
   10.0634    7.6293   -7.2547 N   0  0  0  0  0  0  0  0  0  0  0  0
   10.7326    7.9475   -6.0526 C   0  0  0  0  0  0  0  0  0  0  0  0
   11.2745    6.9121   -5.2558 C   0  0  0  0  0  0  0  0  0  0  0  0
   11.9294    7.1862   -4.0412 C   0  0  0  0  0  0  0  0  0  0  0  0
   12.0768    8.5148   -3.6123 C   0  0  0  0  0  0  0  0  0  0  0  0
   12.7013    8.7844   -2.4419 F   0  0  0  0  0  0  0  0  0  0  0  0
   11.5615    9.5579   -4.3996 C   0  0  0  0  0  0  0  0  0  0  0  0
   10.8886    9.2825   -5.6085 C   0  0  0  0  0  0  0  0  0  0  0  0
    9.8430    8.6297   -8.2887 C   0  0  0  0  0  0  0  0  0  0  0  0
    9.8004    7.9579   -9.6741 C   0  0  0  0  0  0  0  0  0  0  0  0
   11.0154    4.4662  -14.2338 C   0  0  0  0  0  0  0  0  0  0  0  0
   12.8878    8.4716  -13.9358 H   0  0  0  0  0  0  0  0  0  0  0  0
   13.8957    7.2605  -14.7145 H   0  0  0  0  0  0  0  0  0  0  0  0
   12.4885    7.9309  -15.5626 H   0  0  0  0  0  0  0  0  0  0  0  0
   13.4006    5.7684  -16.3145 H   0  0  0  0  0  0  0  0  0  0  0  0
   13.0560    3.6133  -17.4288 H   0  0  0  0  0  0  0  0  0  0  0  0
   11.4007    1.9851  -16.5530 H   0  0  0  0  0  0  0  0  0  0  0  0
    9.4691    2.5534  -13.3646 H   0  0  0  0  0  0  0  0  0  0  0  0
   10.1376    1.2656  -14.3377 H   0  0  0  0  0  0  0  0  0  0  0  0
    8.7490    1.9580  -16.2864 H   0  0  0  0  0  0  0  0  0  0  0  0
    8.2087    3.3720  -15.4362 H   0  0  0  0  0  0  0  0  0  0  0  0
    7.7873   -0.2419  -15.8405 H   0  0  0  0  0  0  0  0  0  0  0  0
    5.8055   -1.4920  -15.0470 H   0  0  0  0  0  0  0  0  0  0  0  0
    4.1756   -0.3921  -13.5185 H   0  0  0  0  0  0  0  0  0  0  0  0
    4.5582    1.8995  -12.7317 H   0  0  0  0  0  0  0  0  0  0  0  0
    4.9575    4.2916  -12.6588 H   0  0  0  0  0  0  0  0  0  0  0  0
    5.9034    3.3151  -11.5293 H   0  0  0  0  0  0  0  0  0  0  0  0
    6.8090    5.9858  -12.6923 H   0  0  0  0  0  0  0  0  0  0  0  0
    6.1672    5.7722  -11.0830 H   0  0  0  0  0  0  0  0  0  0  0  0
    8.0555    4.2192  -10.5098 H   0  0  0  0  0  0  0  0  0  0  0  0
    8.6157    4.3128  -12.1271 H   0  0  0  0  0  0  0  0  0  0  0  0
   10.0899    5.7368  -11.1169 H   0  0  0  0  0  0  0  0  0  0  0  0
    8.9652    6.8283  -11.8784 H   0  0  0  0  0  0  0  0  0  0  0  0
    8.1719    5.1605   -8.5728 H   0  0  0  0  0  0  0  0  0  0  0  0
    9.9191    5.2624   -8.7033 H   0  0  0  0  0  0  0  0  0  0  0  0
    8.0859    7.0459   -7.0396 H   0  0  0  0  0  0  0  0  0  0  0  0
    9.2121    5.8606   -6.4440 H   0  0  0  0  0  0  0  0  0  0  0  0
   11.2000    5.8844   -5.5740 H   0  0  0  0  0  0  0  0  0  0  0  0
   12.3227    6.3761   -3.4445 H   0  0  0  0  0  0  0  0  0  0  0  0
   11.6811   10.5719   -4.0577 H   0  0  0  0  0  0  0  0  0  0  0  0
   10.4871   10.1101   -6.1731 H   0  0  0  0  0  0  0  0  0  0  0  0
    8.9065    9.1525   -8.0892 H   0  0  0  0  0  0  0  0  0  0  0  0
   10.6392    9.3735   -8.2845 H   0  0  0  0  0  0  0  0  0  0  0  0
   10.8128    7.6318   -9.9210 H   0  0  0  0  0  0  0  0  0  0  0  0
    9.5185    8.6930  -10.4283 H   0  0  0  0  0  0  0  0  0  0  0  0
   10.4432    4.7134  -13.3542 H   0  0  0  0  0  0  0  0  0  0  0  0
    7.9307    7.1551   -9.7533 H   0  0  0  0  0  0  0  0  0  0  0  0
  2  1  1  0
  3  2  1  0
  4  3  1  0
  5  4  2  0
  6  5  1  0
  7  6  2  0
  8  7  1  0
  9  8  1  0
 10  9  1  0
 11 10  2  0
 12 11  1  0
 13 12  2  0
 14 13  1  0
 15 10  1  0
 15 14  2  0
 16 15  1  0
 17 16  1  0
 18 17  1  0
 19 18  1  0
 20 19  1  0
 21 20  1  0
 22 21  1  0
 23 22  1  0
 24 23  1  0
 25 24  1  0
 26 25  1  0
 27 26  2  0
 28 27  1  0
 29 28  1  0
 30 28  2  0
 31 25  2  0
 31 30  1  0
 32 24  1  0
 33 21  1  0
 33 32  1  0
 34  3  2  0
 34  7  1  0
 35  1  1  0
 36  1  1  0
 37  1  1  0
 38  4  1  0
 39  5  1  0
 40  6  1  0
 41  8  1  0
 42  8  1  0
 43  9  1  0
 44  9  1  0
 45 11  1  0
 46 12  1  0
 47 13  1  0
 48 14  1  0
 49 17  1  0
 50 17  1  0
 51 18  1  0
 52 18  1  0
 53 19  1  0
 54 19  1  0
 55 20  1  0
 56 20  1  0
 57 22  1  0
 58 22  1  0
 59 23  1  0
 60 23  1  0
 61 26  1  0
 62 27  1  0
 63 30  1  0
 64 31  1  0
 65 32  1  0
 66 32  1  0
 67 33  1  0
 68 33  1  0
 69 34  1  0
 70 21  1  0
M  CHG  1  21   1
M  END
>  <b_m_subgroup_collapsed>  (51) 
0

>  <r_i_docking_score>  (51) 
-9.3730809893207301

>  <s_m_subgroup_title>  (51) 
glide-dock_SP_D22_pv

>  <s_m_subgroupid>  (51) 
glide-dock_SP_D22_pv

>  <Molecule ChEMBL ID>  (51) 
CHEMBL456673

>  <Standard Type>  (51) 
Ki

>  <Standard Value>  (51) 
1324000.0

>  <label>  (51) 
0

$$$$
CHEMBL3104522
     RDKit          3D

 59 63  0  0  1  0  0  0  0  0999 V2000
    3.7757   -0.4068  -13.8469 N   0  0  0  0  0  0  0  0  0  0  0  0
    4.9772    0.2984  -13.9364 C   0  0  0  0  0  0  0  0  0  0  0  0
    6.0314   -0.2126  -14.7151 C   0  0  0  0  0  0  0  0  0  0  0  0
    7.2126    0.5353  -14.8751 C   0  0  0  0  0  0  0  0  0  0  0  0
    7.3535    1.7971  -14.2595 C   0  0  0  0  0  0  0  0  0  0  0  0
    6.3063    2.3079  -13.4508 C   0  0  0  0  0  0  0  0  0  0  0  0
    5.1320    1.5399  -13.2850 C   0  0  0  0  0  0  0  0  0  0  0  0
    6.4372    3.6390  -12.7110 C   0  0  2  0  0  0  0  0  0  0  0  0
    5.3159    4.4668  -12.9329 O   0  0  0  0  0  0  0  0  0  0  0  0
    7.7190    4.4586  -13.0327 C   0  0  1  0  0  0  0  0  0  0  0  0
    8.0450    5.5636  -11.9903 C   0  0  0  0  0  0  0  0  0  0  0  0
    8.4832    5.0675  -10.5932 C   0  0  0  0  0  0  0  0  0  0  0  0
    8.7775    6.1721   -9.6368 N   0  0  2  0  0  0  0  0  0  0  0  0
   10.1063    6.8051   -9.8912 C   0  0  0  0  0  0  0  0  0  0  0  0
   10.4636    7.8962   -8.8663 C   0  0  0  0  0  0  0  0  0  0  0  0
   10.3834    7.3464   -7.4298 C   0  0  1  0  0  0  0  0  0  0  0  0
   10.7882    8.3428   -6.3728 C   0  0  0  0  0  0  0  0  0  0  0  0
   10.5610    9.6439   -6.5283 N   0  0  0  0  0  0  0  0  0  0  0  0
   11.0009   10.3056   -5.3487 O   0  0  0  0  0  0  0  0  0  0  0  0
   11.4768    9.3711   -4.4469 C   0  0  0  0  0  0  0  0  0  0  0  0
   11.9941    9.5017   -3.1516 C   0  0  0  0  0  0  0  0  0  0  0  0
   12.3684    8.3247   -2.4742 C   0  0  0  0  0  0  0  0  0  0  0  0
   12.8857    8.4075   -1.2289 F   0  0  0  0  0  0  0  0  0  0  0  0
   12.2031    7.0606   -3.0889 C   0  0  0  0  0  0  0  0  0  0  0  0
   11.6860    6.9582   -4.4008 C   0  0  0  0  0  0  0  0  0  0  0  0
   11.3270    8.1388   -5.0852 C   0  0  0  0  0  0  0  0  0  0  0  0
    8.9684    6.8131   -7.2038 C   0  0  0  0  0  0  0  0  0  0  0  0
    8.6478    5.7122   -8.2265 C   0  0  0  0  0  0  0  0  0  0  0  0
    8.9413    3.5779  -13.3613 C   0  0  0  0  0  0  0  0  0  0  0  0
    8.6328    2.5839  -14.4861 C   0  0  0  0  0  0  0  0  0  0  0  0
    3.6021   -1.1273  -14.5363 H   0  0  0  0  0  0  0  0  0  0  0  0
    2.9418    0.1147  -13.6101 H   0  0  0  0  0  0  0  0  0  0  0  0
    5.9369   -1.1687  -15.2105 H   0  0  0  0  0  0  0  0  0  0  0  0
    8.0082    0.1351  -15.4870 H   0  0  0  0  0  0  0  0  0  0  0  0
    4.3304    1.9357  -12.6798 H   0  0  0  0  0  0  0  0  0  0  0  0
    6.4336    3.3740  -11.6544 H   0  0  0  0  0  0  0  0  0  0  0  0
    5.3904    5.2281  -12.3773 H   0  0  0  0  0  0  0  0  0  0  0  0
    7.5103    4.9743  -13.9705 H   0  0  0  0  0  0  0  0  0  0  0  0
    8.8230    6.1988  -12.4129 H   0  0  0  0  0  0  0  0  0  0  0  0
    7.1745    6.2102  -11.8731 H   0  0  0  0  0  0  0  0  0  0  0  0
    7.6861    4.4513  -10.1829 H   0  0  0  0  0  0  0  0  0  0  0  0
    9.3564    4.4182  -10.6651 H   0  0  0  0  0  0  0  0  0  0  0  0
   10.8846    6.0434   -9.8477 H   0  0  0  0  0  0  0  0  0  0  0  0
   10.1356    7.2315  -10.8938 H   0  0  0  0  0  0  0  0  0  0  0  0
   11.4673    8.2742   -9.0656 H   0  0  0  0  0  0  0  0  0  0  0  0
    9.7848    8.7424   -8.9875 H   0  0  0  0  0  0  0  0  0  0  0  0
   11.0747    6.5043   -7.3626 H   0  0  0  0  0  0  0  0  0  0  0  0
   12.0867   10.4700   -2.6814 H   0  0  0  0  0  0  0  0  0  0  0  0
   12.4814    6.1648   -2.5519 H   0  0  0  0  0  0  0  0  0  0  0  0
   11.5651    5.9911   -4.8666 H   0  0  0  0  0  0  0  0  0  0  0  0
    8.8859    6.4019   -6.1982 H   0  0  0  0  0  0  0  0  0  0  0  0
    8.2403    7.6235   -7.2664 H   0  0  0  0  0  0  0  0  0  0  0  0
    7.6372    5.3675   -8.0406 H   0  0  0  0  0  0  0  0  0  0  0  0
    9.3031    4.8552   -8.0663 H   0  0  0  0  0  0  0  0  0  0  0  0
    9.2845    3.0272  -12.4851 H   0  0  0  0  0  0  0  0  0  0  0  0
    9.7835    4.2032  -13.6596 H   0  0  0  0  0  0  0  0  0  0  0  0
    9.4715    1.8967  -14.6043 H   0  0  0  0  0  0  0  0  0  0  0  0
    8.5287    3.1168  -15.4323 H   0  0  0  0  0  0  0  0  0  0  0  0
    8.0435    6.8701   -9.7712 H   0  0  0  0  0  0  0  0  0  0  0  0
  2  1  1  0
  3  2  1  0
  4  3  2  0
  5  4  1  0
  6  5  2  0
  7  2  2  0
  7  6  1  0
  8  6  1  0
  9  8  1  0
 10  8  1  0
 11 10  1  0
 12 11  1  0
 13 12  1  0
 14 13  1  0
 15 14  1  0
 16 15  1  0
 17 16  1  0
 18 17  2  0
 19 18  1  0
 20 19  1  0
 21 20  2  0
 22 21  1  0
 23 22  1  0
 24 22  2  0
 25 24  1  0
 26 17  1  0
 26 20  1  0
 26 25  2  0
 27 16  1  0
 28 13  1  0
 28 27  1  0
 29 10  1  0
 30  5  1  0
 30 29  1  0
 31  1  1  0
 32  1  1  0
 33  3  1  0
 34  4  1  0
 35  7  1  0
  8 36  1  1
 37  9  1  0
 10 38  1  6
 39 11  1  0
 40 11  1  0
 41 12  1  0
 42 12  1  0
 43 14  1  0
 44 14  1  0
 45 15  1  0
 46 15  1  0
 16 47  1  6
 48 21  1  0
 49 24  1  0
 50 25  1  0
 51 27  1  0
 52 27  1  0
 53 28  1  0
 54 28  1  0
 55 29  1  0
 56 29  1  0
 57 30  1  0
 58 30  1  0
 13 59  1  6
M  CHG  1  13   1
M  END
>  <b_m_subgroup_collapsed>  (52) 
0

>  <r_i_docking_score>  (52) 
-9.3683294746598307

>  <s_m_subgroup_title>  (52) 
glide-dock_SP_D22_pv

>  <s_m_subgroupid>  (52) 
glide-dock_SP_D22_pv

>  <Molecule ChEMBL ID>  (52) 
CHEMBL3104522

>  <Standard Type>  (52) 
Ki

>  <Standard Value>  (52) 
87.1

>  <label>  (52) 
1

$$$$
CHEMBL4470437
     RDKit          3D

 74 79  0  0  1  0  0  0  0  0999 V2000
    5.8055    2.8721  -13.5232 O   0  0  0  0  0  0  0  0  0  0  0  0
    6.9461    2.8761  -13.9936 C   0  0  0  0  0  0  0  0  0  0  0  0
    7.4923    1.7728  -14.7963 C   0  0  0  0  0  0  0  0  0  0  0  0
    6.5810    0.6911  -15.2179 C   0  0  0  0  0  0  0  0  0  0  0  0
    6.0379   -0.1832  -14.2527 C   0  0  0  0  0  0  0  0  0  0  0  0
    5.1181   -1.1701  -14.6469 C   0  0  0  0  0  0  0  0  0  0  0  0
    4.7446   -1.3042  -15.9969 C   0  0  0  0  0  0  0  0  0  0  0  0
    5.2870   -0.4338  -16.9611 C   0  0  0  0  0  0  0  0  0  0  0  0
    6.1977    0.5681  -16.5751 C   0  0  0  0  0  0  0  0  0  0  0  0
    6.6750    1.4307  -17.5062 F   0  0  0  0  0  0  0  0  0  0  0  0
    8.7902    1.8095  -15.2151 C   0  0  0  0  0  0  0  0  0  0  0  0
    9.6358    2.8896  -14.9389 N   0  0  0  0  0  0  0  0  0  0  0  0
    9.1563    4.0025  -14.2078 C   0  0  0  0  0  0  0  0  0  0  0  0
    9.8824    4.9719  -13.9726 O   0  0  0  0  0  0  0  0  0  0  0  0
    7.8200    3.9570  -13.7594 N   0  0  0  0  0  0  0  0  0  0  0  0
    7.2804    5.1027  -13.0356 C   0  0  0  0  0  0  0  0  0  0  0  0
    7.3104    4.9833  -11.4947 C   0  0  0  0  0  0  0  0  0  0  0  0
    8.7156    5.1416  -10.8820 C   0  0  0  0  0  0  0  0  0  0  0  0
    8.7408    6.0786   -9.6563 C   0  0  0  0  0  0  0  0  0  0  0  0
   10.0789    6.6362   -9.3408 N   0  0  1  0  0  0  0  0  0  0  0  0
   10.6234    7.5200  -10.4164 C   0  0  0  0  0  0  0  0  0  0  0  0
   12.0474    7.9707  -10.0895 C   0  0  0  0  0  0  0  0  0  0  0  0
   12.0721    8.7095   -8.7581 C   0  0  0  0  0  0  0  0  0  0  0  0
   11.4373    7.8715   -7.6293 C   0  0  1  0  0  0  0  0  0  0  0  0
   11.3790    8.6563   -6.3492 C   0  0  0  0  0  0  0  0  0  0  0  0
   11.2665   10.0174   -6.2405 C   0  0  0  0  0  0  0  0  0  0  0  0
   11.2860   10.3745   -4.9117 N   0  0  0  0  0  0  0  0  0  0  0  0
   11.6030    9.2873   -4.1334 C   0  0  0  0  0  0  0  0  0  0  0  0
   11.9583    9.1661   -2.7828 C   0  0  0  0  0  0  0  0  0  0  0  0
   12.1859    7.8891   -2.2469 C   0  0  0  0  0  0  0  0  0  0  0  0
   12.0208    6.7524   -3.0549 C   0  0  0  0  0  0  0  0  0  0  0  0
   11.6885    6.8881   -4.4192 C   0  0  0  0  0  0  0  0  0  0  0  0
   11.5316    8.1636   -5.0058 C   0  0  0  0  0  0  0  0  0  0  0  0
   10.0453    7.3532   -8.0370 C   0  0  0  0  0  0  0  0  0  0  0  0
   11.0319    2.9666  -15.3339 C   0  0  0  0  0  0  0  0  0  0  0  0
   11.4620    1.9398  -16.3843 C   0  0  0  0  0  0  0  0  0  0  0  0
   10.9091    0.5727  -16.0238 C   0  0  0  0  0  0  0  0  0  0  0  0
    9.3857    0.6467  -16.0238 C   0  0  0  0  0  0  0  0  0  0  0  0
    6.3130   -0.0890  -13.2128 H   0  0  0  0  0  0  0  0  0  0  0  0
    4.6950   -1.8278  -13.9067 H   0  0  0  0  0  0  0  0  0  0  0  0
    4.0389   -2.0710  -16.2880 H   0  0  0  0  0  0  0  0  0  0  0  0
    4.9910   -0.5258  -17.9955 H   0  0  0  0  0  0  0  0  0  0  0  0
    7.7980    6.0006  -13.3792 H   0  0  0  0  0  0  0  0  0  0  0  0
    6.2553    5.2428  -13.3842 H   0  0  0  0  0  0  0  0  0  0  0  0
    6.6632    5.7723  -11.0988 H   0  0  0  0  0  0  0  0  0  0  0  0
    6.8658    4.0421  -11.1685 H   0  0  0  0  0  0  0  0  0  0  0  0
    9.1380    4.1724  -10.6253 H   0  0  0  0  0  0  0  0  0  0  0  0
    9.3564    5.5248  -11.6617 H   0  0  0  0  0  0  0  0  0  0  0  0
    8.0921    6.9338   -9.7965 H   0  0  0  0  0  0  0  0  0  0  0  0
    8.3420    5.5385   -8.7970 H   0  0  0  0  0  0  0  0  0  0  0  0
   10.6773    7.0296  -11.3833 H   0  0  0  0  0  0  0  0  0  0  0  0
    9.9712    8.3870  -10.5475 H   0  0  0  0  0  0  0  0  0  0  0  0
   12.7071    7.1105  -10.0522 H   0  0  0  0  0  0  0  0  0  0  0  0
   12.4293    8.6215  -10.8790 H   0  0  0  0  0  0  0  0  0  0  0  0
   13.0980    8.9722   -8.4980 H   0  0  0  0  0  0  0  0  0  0  0  0
   11.5233    9.6398   -8.8994 H   0  0  0  0  0  0  0  0  0  0  0  0
   12.0764    7.0012   -7.4671 H   0  0  0  0  0  0  0  0  0  0  0  0
   11.2067   10.7773   -6.9996 H   0  0  0  0  0  0  0  0  0  0  0  0
   11.2635   11.3328   -4.5936 H   0  0  0  0  0  0  0  0  0  0  0  0
   12.0633   10.0456   -2.1643 H   0  0  0  0  0  0  0  0  0  0  0  0
   12.4862    7.7822   -1.2172 H   0  0  0  0  0  0  0  0  0  0  0  0
   12.1743    5.7725   -2.6311 H   0  0  0  0  0  0  0  0  0  0  0  0
   11.6177    6.0032   -5.0341 H   0  0  0  0  0  0  0  0  0  0  0  0
    9.3384    8.1841   -8.0988 H   0  0  0  0  0  0  0  0  0  0  0  0
    9.6696    6.6829   -7.2617 H   0  0  0  0  0  0  0  0  0  0  0  0
   11.2128    3.9677  -15.7309 H   0  0  0  0  0  0  0  0  0  0  0  0
   11.5965    2.8385  -14.4094 H   0  0  0  0  0  0  0  0  0  0  0  0
   11.0924    2.2363  -17.3664 H   0  0  0  0  0  0  0  0  0  0  0  0
   12.5500    1.9067  -16.4581 H   0  0  0  0  0  0  0  0  0  0  0  0
   11.2472   -0.1762  -16.7400 H   0  0  0  0  0  0  0  0  0  0  0  0
   11.2839    0.2661  -15.0456 H   0  0  0  0  0  0  0  0  0  0  0  0
    9.0070   -0.3012  -15.6391 H   0  0  0  0  0  0  0  0  0  0  0  0
    9.0350    0.7284  -17.0514 H   0  0  0  0  0  0  0  0  0  0  0  0
   10.7086    5.8532   -9.2398 H   0  0  0  0  0  0  0  0  0  0  0  0
  2  1  2  0
  3  2  1  0
  4  3  1  0
  5  4  2  0
  6  5  1  0
  7  6  2  0
  8  7  1  0
  9  4  1  0
  9  8  2  0
 10  9  1  0
 11  3  2  0
 12 11  1  0
 13 12  1  0
 14 13  2  0
 15  2  1  0
 15 13  1  0
 16 15  1  0
 17 16  1  0
 18 17  1  0
 19 18  1  0
 20 19  1  0
 21 20  1  0
 22 21  1  0
 23 22  1  0
 24 23  1  0
 25 24  1  0
 26 25  2  0
 27 26  1  0
 28 27  1  0
 29 28  2  0
 30 29  1  0
 31 30  2  0
 32 31  1  0
 33 25  1  0
 33 28  1  0
 33 32  2  0
 34 20  1  0
 34 24  1  0
 35 12  1  0
 36 35  1  0
 37 36  1  0
 38 11  1  0
 38 37  1  0
 39  5  1  0
 40  6  1  0
 41  7  1  0
 42  8  1  0
 43 16  1  0
 44 16  1  0
 45 17  1  0
 46 17  1  0
 47 18  1  0
 48 18  1  0
 49 19  1  0
 50 19  1  0
 51 21  1  0
 52 21  1  0
 53 22  1  0
 54 22  1  0
 55 23  1  0
 56 23  1  0
 24 57  1  1
 58 26  1  0
 59 27  1  0
 60 29  1  0
 61 30  1  0
 62 31  1  0
 63 32  1  0
 64 34  1  0
 65 34  1  0
 66 35  1  0
 67 35  1  0
 68 36  1  0
 69 36  1  0
 70 37  1  0
 71 37  1  0
 72 38  1  0
 73 38  1  0
 20 74  1  1
M  CHG  1  20   1
M  END
>  <b_m_subgroup_collapsed>  (53) 
0

>  <r_i_docking_score>  (53) 
-9.3601662296922896

>  <s_m_subgroup_title>  (53) 
glide-dock_SP_D22_pv

>  <s_m_subgroupid>  (53) 
glide-dock_SP_D22_pv

>  <Molecule ChEMBL ID>  (53) 
CHEMBL4470437

>  <Standard Type>  (53) 
Ki

>  <Standard Value>  (53) 
10000.0

>  <label>  (53) 
0

$$$$
CHEMBL5790341
     RDKit          3D

 60 64  0  0  1  0  0  0  0  0999 V2000
    4.2648   -0.2277  -13.5298 O   0  0  0  0  0  0  0  0  0  0  0  0
    5.1742    0.5976  -13.5485 C   0  0  0  0  0  0  0  0  0  0  0  0
    5.0351    1.9002  -12.7480 C   0  0  0  0  0  0  0  0  0  0  0  0
    5.8243    3.0795  -13.3431 C   0  0  0  0  0  0  0  0  0  0  0  0
    7.1860    2.6561  -13.8497 C   0  0  0  0  0  0  0  0  0  0  0  0
    8.2481    3.5778  -13.8988 C   0  0  0  0  0  0  0  0  0  0  0  0
    9.5099    3.1920  -14.4165 C   0  0  0  0  0  0  0  0  0  0  0  0
   10.5882    4.0453  -14.5328 O   0  0  0  0  0  0  0  0  0  0  0  0
   10.3891    5.4290  -14.2696 C   0  0  0  0  0  0  0  0  0  0  0  0
   10.6125    5.7459  -12.7802 C   0  0  0  0  0  0  0  0  0  0  0  0
   10.0508    7.1157  -12.3584 C   0  0  0  0  0  0  0  0  0  0  0  0
   10.3188    7.5198  -10.9508 N   0  0  2  0  0  0  0  0  0  0  0  0
   11.7504    7.5747  -10.5769 C   0  0  0  0  0  0  0  0  0  0  0  0
   11.9165    8.3712   -9.2869 C   0  0  0  0  0  0  0  0  0  0  0  0
   11.0908    7.7708   -8.1154 C   0  0  1  0  0  0  0  0  0  0  0  0
   11.2175    8.6503   -6.8695 C   0  0  0  0  0  0  0  0  0  0  0  0
   11.7765    9.7726   -6.8719 N   0  0  0  0  0  0  0  0  0  0  0  0
   11.7692   10.3394   -5.5898 O   0  0  0  0  0  0  0  0  0  0  0  0
   10.9773    9.5349   -4.7399 C   0  0  2  0  0  0  0  0  0  0  0  0
   11.6853    9.3290   -3.4161 C   0  0  0  0  0  0  0  0  0  0  0  0
   12.0862    8.1280   -2.9828 C   0  0  0  0  0  0  0  0  0  0  0  0
   12.6622    8.0382   -1.7764 F   0  0  0  0  0  0  0  0  0  0  0  0
   11.9170    6.9396   -3.7897 C   0  0  0  0  0  0  0  0  0  0  0  0
   11.2862    6.9823   -4.9761 C   0  0  0  0  0  0  0  0  0  0  0  0
   10.6664    8.2525   -5.5460 C   0  0  2  0  0  0  0  0  0  0  0  0
    9.6228    7.5788   -8.5674 C   0  0  0  0  0  0  0  0  0  0  0  0
    9.5245    6.8196   -9.9113 C   0  0  0  0  0  0  0  0  0  0  0  0
    9.6873    1.8643  -14.8582 C   0  0  0  0  0  0  0  0  0  0  0  0
    8.6293    0.9340  -14.8017 C   0  0  0  0  0  0  0  0  0  0  0  0
    7.3762    1.3283  -14.2943 C   0  0  0  0  0  0  0  0  0  0  0  0
    6.3162    0.3919  -14.2243 N   0  0  0  0  0  0  0  0  0  0  0  0
    5.4052    1.6889  -11.7460 H   0  0  0  0  0  0  0  0  0  0  0  0
    3.9861    2.1723  -12.6472 H   0  0  0  0  0  0  0  0  0  0  0  0
    5.9384    3.8562  -12.5871 H   0  0  0  0  0  0  0  0  0  0  0  0
    5.2860    3.5339  -14.1730 H   0  0  0  0  0  0  0  0  0  0  0  0
    8.0611    4.5739  -13.5334 H   0  0  0  0  0  0  0  0  0  0  0  0
    9.4215    5.7722  -14.6346 H   0  0  0  0  0  0  0  0  0  0  0  0
   11.1180    5.9847  -14.8602 H   0  0  0  0  0  0  0  0  0  0  0  0
   11.6926    5.7342  -12.6469 H   0  0  0  0  0  0  0  0  0  0  0  0
   10.1828    4.9606  -12.1570 H   0  0  0  0  0  0  0  0  0  0  0  0
    8.9726    7.1427  -12.5239 H   0  0  0  0  0  0  0  0  0  0  0  0
   10.4863    7.8663  -13.0207 H   0  0  0  0  0  0  0  0  0  0  0  0
   12.3393    8.0277  -11.3766 H   0  0  0  0  0  0  0  0  0  0  0  0
   12.1345    6.5725  -10.3985 H   0  0  0  0  0  0  0  0  0  0  0  0
   11.6122    9.4024   -9.4839 H   0  0  0  0  0  0  0  0  0  0  0  0
   12.9756    8.4107   -9.0226 H   0  0  0  0  0  0  0  0  0  0  0  0
   11.5050    6.7920   -7.8702 H   0  0  0  0  0  0  0  0  0  0  0  0
   10.0860   10.1202   -4.5490 H   0  0  0  0  0  0  0  0  0  0  0  0
   11.8375   10.2059   -2.8024 H   0  0  0  0  0  0  0  0  0  0  0  0
   12.3144    6.0015   -3.4320 H   0  0  0  0  0  0  0  0  0  0  0  0
   11.1759    6.0780   -5.5567 H   0  0  0  0  0  0  0  0  0  0  0  0
    9.5957    8.0968   -5.6543 H   0  0  0  0  0  0  0  0  0  0  0  0
    9.0558    7.0375   -7.8064 H   0  0  0  0  0  0  0  0  0  0  0  0
    9.1351    8.5500   -8.6708 H   0  0  0  0  0  0  0  0  0  0  0  0
    8.4858    6.7605  -10.2223 H   0  0  0  0  0  0  0  0  0  0  0  0
    9.8763    5.7933   -9.7988 H   0  0  0  0  0  0  0  0  0  0  0  0
   10.6468    1.5546  -15.2454 H   0  0  0  0  0  0  0  0  0  0  0  0
    8.7892   -0.0799  -15.1390 H   0  0  0  0  0  0  0  0  0  0  0  0
    6.4370   -0.4944  -14.6942 H   0  0  0  0  0  0  0  0  0  0  0  0
    9.9894    8.4734  -10.9077 H   0  0  0  0  0  0  0  0  0  0  0  0
  2  1  2  0
  3  2  1  0
  4  3  1  0
  5  4  1  0
  6  5  1  0
  7  6  2  0
  8  7  1  0
  9  8  1  0
 10  9  1  0
 11 10  1  0
 12 11  1  0
 13 12  1  0
 14 13  1  0
 15 14  1  0
 16 15  1  0
 17 16  2  0
 18 17  1  0
 19 18  1  0
 20 19  1  0
 21 20  2  0
 22 21  1  0
 23 21  1  0
 24 23  2  0
 25 16  1  0
 25 19  1  0
 25 24  1  0
 26 15  1  0
 27 12  1  0
 27 26  1  0
 28  7  1  0
 29 28  2  0
 30  5  2  0
 30 29  1  0
 31  2  1  0
 31 30  1  0
 32  3  1  0
 33  3  1  0
 34  4  1  0
 35  4  1  0
 36  6  1  0
 37  9  1  0
 38  9  1  0
 39 10  1  0
 40 10  1  0
 41 11  1  0
 42 11  1  0
 43 13  1  0
 44 13  1  0
 45 14  1  0
 46 14  1  0
 15 47  1  1
 19 48  1  1
 49 20  1  0
 50 23  1  0
 51 24  1  0
 25 52  1  6
 53 26  1  0
 54 26  1  0
 55 27  1  0
 56 27  1  0
 57 28  1  0
 58 29  1  0
 59 31  1  0
 12 60  1  6
M  CHG  1  12   1
M  END
>  <b_m_subgroup_collapsed>  (54) 
0

>  <r_i_docking_score>  (54) 
-9.3584532573254897

>  <s_m_subgroup_title>  (54) 
glide-dock_SP_D22_pv

>  <s_m_subgroupid>  (54) 
glide-dock_SP_D22_pv

>  <Molecule ChEMBL ID>  (54) 
CHEMBL5790341

>  <Standard Type>  (54) 
Ki

>  <Standard Value>  (54) 
5.6

>  <label>  (54) 
1

$$$$
CHEMBL103983
     RDKit          3D

 70 74  0  0  1  0  0  0  0  0999 V2000
   11.5107    7.3730  -11.6318 O   0  0  0  0  0  0  0  0  0  0  0  0
   10.3203    7.3066  -11.3249 C   0  0  0  0  0  0  0  0  0  0  0  0
    9.7735    8.0689  -10.3665 N   0  0  0  0  0  0  0  0  0  0  0  0
   10.5041    9.1100   -9.6566 C   0  0  0  0  0  0  0  0  0  0  0  0
   11.1623    8.6301   -8.3529 C   0  0  0  0  0  0  0  0  0  0  0  0
   10.1701    8.4872   -7.1918 C   0  0  0  0  0  0  0  0  0  0  0  0
   10.8692    8.3281   -5.8532 C   0  0  0  0  0  0  0  0  0  0  0  0
   11.0828    7.0400   -5.3239 C   0  0  0  0  0  0  0  0  0  0  0  0
   11.6876    6.8881   -4.0603 C   0  0  0  0  0  0  0  0  0  0  0  0
   12.0864    8.0210   -3.3266 C   0  0  0  0  0  0  0  0  0  0  0  0
   11.8889    9.3066   -3.8605 C   0  0  0  0  0  0  0  0  0  0  0  0
   11.2859    9.4624   -5.1228 C   0  0  0  0  0  0  0  0  0  0  0  0
    9.4456    6.3274  -11.9963 C   0  0  0  0  0  0  0  0  0  0  0  0
    9.7541    5.2733  -12.8192 C   0  0  0  0  0  0  0  0  0  0  0  0
    8.5220    4.5987  -13.1246 C   0  0  0  0  0  0  0  0  0  0  0  0
    8.1836    3.4354  -13.8527 C   0  0  0  0  0  0  0  0  0  0  0  0
    6.8326    2.9997  -13.9219 C   0  0  0  0  0  0  0  0  0  0  0  0
    5.8093    3.7591  -13.3250 C   0  0  0  0  0  0  0  0  0  0  0  0
    6.1266    4.9268  -12.6096 C   0  0  0  0  0  0  0  0  0  0  0  0
    7.4693    5.3246  -12.5030 C   0  0  0  0  0  0  0  0  0  0  0  0
    8.0672    6.3721  -11.8425 N   0  0  0  0  0  0  0  0  0  0  0  0
    6.4973    1.8206  -14.5474 O   0  0  0  0  0  0  0  0  0  0  0  0
    7.5924    0.9219  -14.6982 C   0  0  0  0  0  0  0  0  0  0  0  0
    8.7919    1.6627  -15.3196 C   0  0  2  0  0  0  0  0  0  0  0  0
   10.0115    0.7354  -15.4653 C   0  0  0  0  0  0  0  0  0  0  0  0
   11.1638    1.4015  -16.1165 N   0  0  0  0  0  0  0  0  0  0  0  0
   11.1464    1.4095  -17.5951 C   0  0  0  0  0  0  0  0  0  0  0  0
   12.5474    1.7216  -18.1466 C   0  0  0  0  0  0  0  0  0  0  0  0
   12.6848    1.4534  -19.6545 C   0  0  0  0  0  0  0  0  0  0  0  0
   14.1385    1.3128  -20.0704 C   0  0  0  0  0  0  0  0  0  0  0  0
   14.8083    0.0861  -19.8723 C   0  0  0  0  0  0  0  0  0  0  0  0
   16.1609   -0.0525  -20.2397 C   0  0  0  0  0  0  0  0  0  0  0  0
   16.8480    1.0330  -20.8175 C   0  0  0  0  0  0  0  0  0  0  0  0
   16.1792    2.2548  -21.0312 C   0  0  0  0  0  0  0  0  0  0  0  0
   14.8287    2.3963  -20.6530 C   0  0  0  0  0  0  0  0  0  0  0  0
    9.1966    2.7196  -14.4525 O   0  0  0  0  0  0  0  0  0  0  0  0
    8.7929    7.9481  -10.1448 H   0  0  0  0  0  0  0  0  0  0  0  0
    9.7949    9.9029   -9.4473 H   0  0  0  0  0  0  0  0  0  0  0  0
   11.2749    9.5408  -10.2979 H   0  0  0  0  0  0  0  0  0  0  0  0
   11.9091    9.3724   -8.0704 H   0  0  0  0  0  0  0  0  0  0  0  0
   11.7112    7.7005   -8.5103 H   0  0  0  0  0  0  0  0  0  0  0  0
    9.4962    7.6477   -7.3637 H   0  0  0  0  0  0  0  0  0  0  0  0
    9.5351    9.3711   -7.1383 H   0  0  0  0  0  0  0  0  0  0  0  0
   10.7651    6.1704   -5.8780 H   0  0  0  0  0  0  0  0  0  0  0  0
   11.8344    5.8993   -3.6504 H   0  0  0  0  0  0  0  0  0  0  0  0
   12.5438    7.9034   -2.3556 H   0  0  0  0  0  0  0  0  0  0  0  0
   12.1956   10.1718   -3.2897 H   0  0  0  0  0  0  0  0  0  0  0  0
   11.1279   10.4523   -5.5265 H   0  0  0  0  0  0  0  0  0  0  0  0
   10.7438    4.9759  -13.1378 H   0  0  0  0  0  0  0  0  0  0  0  0
    4.7833    3.4271  -13.3885 H   0  0  0  0  0  0  0  0  0  0  0  0
    5.3554    5.5008  -12.1167 H   0  0  0  0  0  0  0  0  0  0  0  0
    7.5547    7.0280  -11.2463 H   0  0  0  0  0  0  0  0  0  0  0  0
    7.8612    0.5074  -13.7240 H   0  0  0  0  0  0  0  0  0  0  0  0
    7.2821    0.0870  -15.3272 H   0  0  0  0  0  0  0  0  0  0  0  0
    8.5058    2.0718  -16.2929 H   0  0  0  0  0  0  0  0  0  0  0  0
   10.3286    0.4225  -14.4685 H   0  0  0  0  0  0  0  0  0  0  0  0
    9.7494   -0.1798  -15.9991 H   0  0  0  0  0  0  0  0  0  0  0  0
   11.2481    2.3452  -15.7607 H   0  0  0  0  0  0  0  0  0  0  0  0
   10.8392    0.4232  -17.9471 H   0  0  0  0  0  0  0  0  0  0  0  0
   10.4091    2.1261  -17.9618 H   0  0  0  0  0  0  0  0  0  0  0  0
   12.8428    2.7477  -17.9167 H   0  0  0  0  0  0  0  0  0  0  0  0
   13.2623    1.0810  -17.6311 H   0  0  0  0  0  0  0  0  0  0  0  0
   12.1760    0.5241  -19.9148 H   0  0  0  0  0  0  0  0  0  0  0  0
   12.2027    2.2409  -20.2361 H   0  0  0  0  0  0  0  0  0  0  0  0
   14.2898   -0.7535  -19.4337 H   0  0  0  0  0  0  0  0  0  0  0  0
   16.6662   -0.9941  -20.0789 H   0  0  0  0  0  0  0  0  0  0  0  0
   17.8877    0.9333  -21.0970 H   0  0  0  0  0  0  0  0  0  0  0  0
   16.7069    3.0872  -21.4757 H   0  0  0  0  0  0  0  0  0  0  0  0
   14.3271    3.3396  -20.8132 H   0  0  0  0  0  0  0  0  0  0  0  0
   11.9917    0.8890  -15.8391 H   0  0  0  0  0  0  0  0  0  0  0  0
  2  1  2  0
  3  2  1  0
  4  3  1  0
  5  4  1  0
  6  5  1  0
  7  6  1  0
  8  7  2  0
  9  8  1  0
 10  9  2  0
 11 10  1  0
 12  7  1  0
 12 11  2  0
 13  2  1  0
 14 13  2  0
 15 14  1  0
 16 15  2  0
 17 16  1  0
 18 17  2  0
 19 18  1  0
 20 15  1  0
 20 19  2  0
 21 13  1  0
 21 20  1  0
 22 17  1  0
 23 22  1  0
 24 23  1  0
 25 24  1  0
 26 25  1  0
 27 26  1  0
 28 27  1  0
 29 28  1  0
 30 29  1  0
 31 30  2  0
 32 31  1  0
 33 32  2  0
 34 33  1  0
 35 30  1  0
 35 34  2  0
 36 16  1  0
 36 24  1  0
 37  3  1  0
 38  4  1  0
 39  4  1  0
 40  5  1  0
 41  5  1  0
 42  6  1  0
 43  6  1  0
 44  8  1  0
 45  9  1  0
 46 10  1  0
 47 11  1  0
 48 12  1  0
 49 14  1  0
 50 18  1  0
 51 19  1  0
 52 21  1  0
 53 23  1  0
 54 23  1  0
 24 55  1  6
 56 25  1  0
 57 25  1  0
 58 26  1  0
 59 27  1  0
 60 27  1  0
 61 28  1  0
 62 28  1  0
 63 29  1  0
 64 29  1  0
 65 31  1  0
 66 32  1  0
 67 33  1  0
 68 34  1  0
 69 35  1  0
 70 26  1  0
M  CHG  1  26   1
M  END
>  <b_m_subgroup_collapsed>  (55) 
0

>  <r_i_docking_score>  (55) 
-9.3513079663806593

>  <s_m_subgroup_title>  (55) 
glide-dock_SP_D22_pv

>  <s_m_subgroupid>  (55) 
glide-dock_SP_D22_pv

>  <Molecule ChEMBL ID>  (55) 
CHEMBL103983

>  <Standard Type>  (55) 
Ki

>  <Standard Value>  (55) 
41.0

>  <label>  (55) 
1

$$$$
CHEMBL2031885
     RDKit          3D

 66 70  0  0  1  0  0  0  0  0999 V2000
    9.3849    1.5912  -18.1517 C   0  0  0  0  0  0  0  0  0  0  0  0
   10.4374    0.8760  -17.2810 C   0  0  2  0  0  0  0  0  0  0  0  0
    9.8473   -0.3734  -16.6049 C   0  0  0  0  0  0  0  0  0  0  0  0
    9.7617   -0.0493  -15.1059 C   0  0  0  0  0  0  0  0  0  0  0  0
   10.1238    1.4140  -14.9819 C   0  0  0  0  0  0  0  0  0  0  0  0
   10.9620    1.6956  -16.1591 N   0  0  2  0  0  0  0  0  0  0  0  0
   11.3254    3.1160  -16.4162 C   0  0  0  0  0  0  0  0  0  0  0  0
   10.1920    4.1542  -16.1802 C   0  0  0  0  0  0  0  0  0  0  0  0
   10.2239    4.7535  -14.8360 N   0  0  0  0  0  0  0  0  0  0  0  0
    9.1581    4.3420  -13.9008 C   0  0  0  0  0  0  0  0  0  0  0  0
    8.7215    5.4377  -12.9267 C   0  0  0  0  0  0  0  0  0  0  0  0
    9.9107    6.1828  -12.3724 C   0  0  0  0  0  0  0  0  0  0  0  0
    9.8322    6.7911  -11.1039 C   0  0  0  0  0  0  0  0  0  0  0  0
   10.9056    7.5660  -10.6034 C   0  0  0  0  0  0  0  0  0  0  0  0
   10.8944    8.1223   -9.2361 C   0  0  0  0  0  0  0  0  0  0  0  0
   12.1174    8.4484   -8.6091 C   0  0  0  0  0  0  0  0  0  0  0  0
   12.1518    8.9729   -7.3147 C   0  0  0  0  0  0  0  0  0  0  0  0
   10.9673    9.1442   -6.5903 C   0  0  0  0  0  0  0  0  0  0  0  0
   11.0660    9.7131   -5.2190 C   0  0  0  0  0  0  0  0  0  0  0  0
   10.8860   10.9147   -5.0484 O   0  0  0  0  0  0  0  0  0  0  0  0
   11.4610    8.8786   -4.2380 N   0  0  0  0  0  0  0  0  0  0  0  0
   11.5133    7.4167   -4.2936 C   0  0  0  0  0  0  0  0  0  0  0  0
   11.7946    6.9449   -2.8631 C   0  0  0  0  0  0  0  0  0  0  0  0
   12.3411    8.1721   -2.1463 C   0  0  0  0  0  0  0  0  0  0  0  0
   11.7958    9.3692   -2.9124 C   0  0  0  0  0  0  0  0  0  0  0  0
    9.7324    8.8204   -7.1842 C   0  0  0  0  0  0  0  0  0  0  0  0
    9.6980    8.3233   -8.5027 C   0  0  0  0  0  0  0  0  0  0  0  0
   12.0223    7.7721  -11.4471 C   0  0  0  0  0  0  0  0  0  0  0  0
   12.1138    7.1435  -12.6990 C   0  0  0  0  0  0  0  0  0  0  0  0
   11.0814    6.3070  -13.1552 C   0  0  0  0  0  0  0  0  0  0  0  0
   11.1973    5.6316  -14.4969 C   0  0  0  0  0  0  0  0  0  0  0  0
   12.1409    5.9023  -15.2427 O   0  0  0  0  0  0  0  0  0  0  0  0
    9.0294    0.9285  -18.9402 H   0  0  0  0  0  0  0  0  0  0  0  0
    8.5135    1.8877  -17.5695 H   0  0  0  0  0  0  0  0  0  0  0  0
    9.7866    2.4764  -18.6449 H   0  0  0  0  0  0  0  0  0  0  0  0
   11.2742    0.5964  -17.9236 H   0  0  0  0  0  0  0  0  0  0  0  0
   10.4854   -1.2442  -16.7684 H   0  0  0  0  0  0  0  0  0  0  0  0
    8.8654   -0.6225  -17.0085 H   0  0  0  0  0  0  0  0  0  0  0  0
   10.4855   -0.6277  -14.5425 H   0  0  0  0  0  0  0  0  0  0  0  0
    8.7722   -0.2281  -14.6874 H   0  0  0  0  0  0  0  0  0  0  0  0
   10.6322    1.6427  -14.0454 H   0  0  0  0  0  0  0  0  0  0  0  0
    9.1909    1.9711  -15.0288 H   0  0  0  0  0  0  0  0  0  0  0  0
   11.6875    3.2003  -17.4409 H   0  0  0  0  0  0  0  0  0  0  0  0
   12.1922    3.3450  -15.7982 H   0  0  0  0  0  0  0  0  0  0  0  0
    9.2097    3.7505  -16.4204 H   0  0  0  0  0  0  0  0  0  0  0  0
   10.3177    4.9685  -16.8974 H   0  0  0  0  0  0  0  0  0  0  0  0
    9.5523    3.5182  -13.3083 H   0  0  0  0  0  0  0  0  0  0  0  0
    8.2782    3.9651  -14.4238 H   0  0  0  0  0  0  0  0  0  0  0  0
    8.1299    5.0108  -12.1140 H   0  0  0  0  0  0  0  0  0  0  0  0
    8.0844    6.1600  -13.4368 H   0  0  0  0  0  0  0  0  0  0  0  0
    8.9404    6.6423  -10.5136 H   0  0  0  0  0  0  0  0  0  0  0  0
   13.0684    8.3126   -9.0990 H   0  0  0  0  0  0  0  0  0  0  0  0
   13.1000    9.2555   -6.8791 H   0  0  0  0  0  0  0  0  0  0  0  0
   10.5778    6.9895   -4.6615 H   0  0  0  0  0  0  0  0  0  0  0  0
   12.3073    7.0929   -4.9603 H   0  0  0  0  0  0  0  0  0  0  0  0
   10.8795    6.6133   -2.3751 H   0  0  0  0  0  0  0  0  0  0  0  0
   12.4919    6.1069   -2.8318 H   0  0  0  0  0  0  0  0  0  0  0  0
   12.0985    8.2066   -1.0832 H   0  0  0  0  0  0  0  0  0  0  0  0
   13.4199    8.1792   -2.2450 H   0  0  0  0  0  0  0  0  0  0  0  0
   12.5289   10.1731   -2.9571 H   0  0  0  0  0  0  0  0  0  0  0  0
   10.8878    9.7672   -2.4721 H   0  0  0  0  0  0  0  0  0  0  0  0
    8.8057    8.9583   -6.6451 H   0  0  0  0  0  0  0  0  0  0  0  0
    8.7355    8.1011   -8.9401 H   0  0  0  0  0  0  0  0  0  0  0  0
   12.8434    8.4066  -11.1528 H   0  0  0  0  0  0  0  0  0  0  0  0
   12.9959    7.3069  -13.3036 H   0  0  0  0  0  0  0  0  0  0  0  0
   11.8464    1.2547  -15.9444 H   0  0  0  0  0  0  0  0  0  0  0  0
  2  1  1  0
  3  2  1  0
  4  3  1  0
  5  4  1  0
  6  2  1  0
  6  5  1  0
  7  6  1  0
  8  7  1  0
  9  8  1  0
 10  9  1  0
 11 10  1  0
 12 11  1  0
 13 12  1  0
 14 13  2  0
 15 14  1  0
 16 15  1  0
 17 16  2  0
 18 17  1  0
 19 18  1  0
 20 19  2  0
 21 19  1  0
 22 21  1  0
 23 22  1  0
 24 23  1  0
 25 21  1  0
 25 24  1  0
 26 18  2  0
 27 15  2  0
 27 26  1  0
 28 14  1  0
 29 28  2  0
 30 12  2  0
 30 29  1  0
 31  9  1  0
 31 30  1  0
 32 31  2  0
 33  1  1  0
 34  1  1  0
 35  1  1  0
  2 36  1  6
 37  3  1  0
 38  3  1  0
 39  4  1  0
 40  4  1  0
 41  5  1  0
 42  5  1  0
 43  7  1  0
 44  7  1  0
 45  8  1  0
 46  8  1  0
 47 10  1  0
 48 10  1  0
 49 11  1  0
 50 11  1  0
 51 13  1  0
 52 16  1  0
 53 17  1  0
 54 22  1  0
 55 22  1  0
 56 23  1  0
 57 23  1  0
 58 24  1  0
 59 24  1  0
 60 25  1  0
 61 25  1  0
 62 26  1  0
 63 27  1  0
 64 28  1  0
 65 29  1  0
  6 66  1  1
M  CHG  1   6   1
M  END
>  <b_m_subgroup_collapsed>  (56) 
0

>  <r_i_docking_score>  (56) 
-9.3317569147196107

>  <s_m_subgroup_title>  (56) 
glide-dock_SP_D22_pv

>  <s_m_subgroupid>  (56) 
glide-dock_SP_D22_pv

>  <Molecule ChEMBL ID>  (56) 
CHEMBL2031885

>  <Standard Type>  (56) 
Ki

>  <Standard Value>  (56) 
10000.0

>  <label>  (56) 
0

$$$$
CHEMBL553311
     RDKit          3D

 55 58  0  0  1  0  0  0  0  0999 V2000
   11.6860    6.6137   -7.0476 O   0  0  0  0  0  0  0  0  0  0  0  0
   10.9065    7.0562   -6.2082 C   0  0  0  0  0  0  0  0  0  0  0  0
    9.4022    6.9264   -6.4102 C   0  0  0  0  0  0  0  0  0  0  0  0
    8.7707    8.1847   -7.0296 C   0  0  0  0  0  0  0  0  0  0  0  0
    9.3268    8.6656   -8.4029 C   0  0  0  0  0  0  0  0  0  0  0  0
    8.8915    7.8851   -9.5989 N   0  0  1  0  0  0  0  0  0  0  0  0
    9.1051    8.6430  -10.8534 C   0  0  0  0  0  0  0  0  0  0  0  0
    8.5814    7.8945  -12.0983 C   0  0  0  0  0  0  0  0  0  0  0  0
    9.0069    6.3977  -12.2133 C   0  0  1  0  0  0  0  0  0  0  0  0
    8.0656    5.6959  -13.2255 C   0  0  0  0  0  0  0  0  0  0  0  0
    8.4681    4.2543  -13.5349 C   0  0  0  0  0  0  0  0  0  0  0  0
    9.8870    4.2163  -14.0635 C   0  0  0  0  0  0  0  0  0  0  0  0
   10.2458    3.2210  -14.9960 C   0  0  0  0  0  0  0  0  0  0  0  0
   11.5360    3.2101  -15.5498 C   0  0  0  0  0  0  0  0  0  0  0  0
   12.4799    4.1730  -15.1571 C   0  0  0  0  0  0  0  0  0  0  0  0
   12.1391    5.1396  -14.1929 C   0  0  0  0  0  0  0  0  0  0  0  0
   10.8369    5.1803  -13.6442 C   0  0  0  0  0  0  0  0  0  0  0  0
   10.4860    6.2591  -12.6684 C   0  0  0  0  0  0  0  0  0  0  0  0
   11.3271    7.0558  -12.2473 O   0  0  0  0  0  0  0  0  0  0  0  0
    8.8189    5.7378  -10.8354 C   0  0  0  0  0  0  0  0  0  0  0  0
    9.4695    6.5235   -9.7001 C   0  0  0  0  0  0  0  0  0  0  0  0
   11.3300    7.6716   -4.9404 C   0  0  0  0  0  0  0  0  0  0  0  0
   11.2968    9.0702   -4.7508 C   0  0  0  0  0  0  0  0  0  0  0  0
   11.6821    9.6056   -3.5028 C   0  0  0  0  0  0  0  0  0  0  0  0
   12.1080    8.7601   -2.4646 C   0  0  0  0  0  0  0  0  0  0  0  0
   12.4850    9.2797   -1.2764 F   0  0  0  0  0  0  0  0  0  0  0  0
   12.1406    7.3708   -2.6541 C   0  0  0  0  0  0  0  0  0  0  0  0
   11.7561    6.8340   -3.8931 C   0  0  0  0  0  0  0  0  0  0  0  0
    8.9519    6.7717   -5.4435 H   0  0  0  0  0  0  0  0  0  0  0  0
    9.1593    6.0006   -6.9274 H   0  0  0  0  0  0  0  0  0  0  0  0
    8.9276    8.9708   -6.2978 H   0  0  0  0  0  0  0  0  0  0  0  0
    7.6882    8.0738   -7.0465 H   0  0  0  0  0  0  0  0  0  0  0  0
   10.4162    8.7488   -8.3938 H   0  0  0  0  0  0  0  0  0  0  0  0
    8.9413    9.6798   -8.5285 H   0  0  0  0  0  0  0  0  0  0  0  0
    8.5708    9.5944  -10.7838 H   0  0  0  0  0  0  0  0  0  0  0  0
   10.1609    8.8855  -10.9605 H   0  0  0  0  0  0  0  0  0  0  0  0
    8.8866    8.4748  -12.9675 H   0  0  0  0  0  0  0  0  0  0  0  0
    7.4955    7.9578  -12.1398 H   0  0  0  0  0  0  0  0  0  0  0  0
    7.0327    5.7211  -12.8774 H   0  0  0  0  0  0  0  0  0  0  0  0
    8.0863    6.2444  -14.1614 H   0  0  0  0  0  0  0  0  0  0  0  0
    7.7844    3.8345  -14.2753 H   0  0  0  0  0  0  0  0  0  0  0  0
    8.3882    3.6226  -12.6495 H   0  0  0  0  0  0  0  0  0  0  0  0
    9.5259    2.4844  -15.3163 H   0  0  0  0  0  0  0  0  0  0  0  0
   11.8029    2.4701  -16.2913 H   0  0  0  0  0  0  0  0  0  0  0  0
   13.4715    4.1664  -15.5901 H   0  0  0  0  0  0  0  0  0  0  0  0
   12.8797    5.8675  -13.9018 H   0  0  0  0  0  0  0  0  0  0  0  0
    7.7513    5.6373  -10.6251 H   0  0  0  0  0  0  0  0  0  0  0  0
    9.2236    4.7273  -10.8347 H   0  0  0  0  0  0  0  0  0  0  0  0
    9.2547    5.9354   -8.8242 H   0  0  0  0  0  0  0  0  0  0  0  0
   10.5561    6.5728   -9.7938 H   0  0  0  0  0  0  0  0  0  0  0  0
   10.9935    9.7315   -5.5510 H   0  0  0  0  0  0  0  0  0  0  0  0
   11.6552   10.6661   -3.3384 H   0  0  0  0  0  0  0  0  0  0  0  0
   12.4672    6.7230   -1.8532 H   0  0  0  0  0  0  0  0  0  0  0  0
   11.7726    5.7702   -4.0400 H   0  0  0  0  0  0  0  0  0  0  0  0
    7.8658    7.7729   -9.5707 H   0  0  0  0  0  0  0  0  0  0  0  0
  2  1  2  0
  3  2  1  0
  4  3  1  0
  5  4  1  0
  6  5  1  0
  7  6  1  0
  8  7  1  0
  9  8  1  1
 10  9  1  0
 11 10  1  0
 12 11  1  0
 13 12  2  0
 14 13  1  0
 15 14  2  0
 16 15  1  0
 17 12  1  0
 17 16  2  0
 18  9  1  0
 18 17  1  0
 19 18  2  0
 20  9  1  0
 21  6  1  0
 21 20  1  0
 22  2  1  0
 23 22  1  0
 24 23  2  0
 25 24  1  0
 26 25  1  0
 27 25  2  0
 28 22  2  0
 28 27  1  0
 29  3  1  0
 30  3  1  0
 31  4  1  0
 32  4  1  0
 33  5  1  0
 34  5  1  0
 35  7  1  0
 36  7  1  0
 37  8  1  0
 38  8  1  0
 39 10  1  0
 40 10  1  0
 41 11  1  0
 42 11  1  0
 43 13  1  0
 44 14  1  0
 45 15  1  0
 46 16  1  0
 47 20  1  0
 48 20  1  0
 49 21  1  0
 50 21  1  0
 51 23  1  0
 52 24  1  0
 53 27  1  0
 54 28  1  0
  6 55  1  1
M  CHG  1   6   1
M  END
>  <b_m_subgroup_collapsed>  (57) 
0

>  <r_i_docking_score>  (57) 
-9.3197989043941796

>  <s_m_subgroup_title>  (57) 
glide-dock_SP_D22_pv

>  <s_m_subgroupid>  (57) 
glide-dock_SP_D22_pv

>  <Molecule ChEMBL ID>  (57) 
CHEMBL553311

>  <Standard Type>  (57) 
Ki

>  <Standard Value>  (57) 
25.0

>  <label>  (57) 
1

$$$$
CHEMBL5958689
     RDKit          3D

 54 58  0  0  1  0  0  0  0  0999 V2000
    9.1260    0.2919  -15.6175 C   0  0  0  0  0  0  0  0  0  0  0  0
    8.0720    1.0249  -14.9461 N   0  0  0  0  0  0  0  0  0  0  0  0
    6.8328    0.5949  -14.6562 C   0  0  0  0  0  0  0  0  0  0  0  0
    6.0863    1.4651  -13.9796 N   0  0  0  0  0  0  0  0  0  0  0  0
    6.9189    2.5771  -13.8499 C   0  0  0  0  0  0  0  0  0  0  0  0
    8.1313    2.3121  -14.4307 C   0  0  0  0  0  0  0  0  0  0  0  0
    9.2980    3.2281  -14.4051 C   0  0  0  0  0  0  0  0  0  0  0  0
    8.8545    4.6463  -13.9734 C   0  0  0  0  0  0  0  0  0  0  0  0
    7.7321    4.6730  -13.0020 N   0  0  0  0  0  0  0  0  0  0  0  0
    7.8264    5.7278  -11.9830 C   0  0  0  0  0  0  0  0  0  0  0  0
    8.4013    5.1593  -10.6640 C   0  0  0  0  0  0  0  0  0  0  0  0
    8.6928    6.2067   -9.6481 N   0  0  2  0  0  0  0  0  0  0  0  0
    9.9783    6.9090   -9.9313 C   0  0  0  0  0  0  0  0  0  0  0  0
   10.3460    7.9545   -8.8624 C   0  0  0  0  0  0  0  0  0  0  0  0
   10.3496    7.3369   -7.4494 C   0  0  1  0  0  0  0  0  0  0  0  0
   10.7532    8.3078   -6.3658 C   0  0  0  0  0  0  0  0  0  0  0  0
   10.5205    9.6111   -6.4924 N   0  0  0  0  0  0  0  0  0  0  0  0
   10.9781   10.2529   -5.3093 O   0  0  0  0  0  0  0  0  0  0  0  0
   11.4702    9.3035   -4.4319 C   0  0  0  0  0  0  0  0  0  0  0  0
   11.9980    9.4125   -3.1378 C   0  0  0  0  0  0  0  0  0  0  0  0
   12.3629    8.2243   -2.4721 C   0  0  0  0  0  0  0  0  0  0  0  0
   12.1975    6.9723   -3.1101 C   0  0  0  0  0  0  0  0  0  0  0  0
   11.6839    6.8912   -4.4260 C   0  0  0  0  0  0  0  0  0  0  0  0
   11.3137    8.0813   -5.0892 C   0  0  0  0  0  0  0  0  0  0  0  0
    8.9680    6.7299   -7.1975 C   0  0  0  0  0  0  0  0  0  0  0  0
    8.6613    5.6646   -8.2625 C   0  0  0  0  0  0  0  0  0  0  0  0
    6.6745    3.8151  -13.0529 C   0  0  0  0  0  0  0  0  0  0  0  0
    5.6371    3.9796  -12.4105 O   0  0  0  0  0  0  0  0  0  0  0  0
    9.5784    0.9192  -16.3863 H   0  0  0  0  0  0  0  0  0  0  0  0
    9.8912    0.0029  -14.8947 H   0  0  0  0  0  0  0  0  0  0  0  0
    8.7205   -0.6062  -16.0863 H   0  0  0  0  0  0  0  0  0  0  0  0
    6.4787   -0.3900  -14.9246 H   0  0  0  0  0  0  0  0  0  0  0  0
   10.0310    2.8423  -13.6952 H   0  0  0  0  0  0  0  0  0  0  0  0
    9.7886    3.2616  -15.3781 H   0  0  0  0  0  0  0  0  0  0  0  0
    8.5053    5.1866  -14.8545 H   0  0  0  0  0  0  0  0  0  0  0  0
    9.7226    5.1995  -13.6112 H   0  0  0  0  0  0  0  0  0  0  0  0
    6.8445    6.1713  -11.8064 H   0  0  0  0  0  0  0  0  0  0  0  0
    8.4388    6.5463  -12.3607 H   0  0  0  0  0  0  0  0  0  0  0  0
    9.3050    4.5790  -10.8591 H   0  0  0  0  0  0  0  0  0  0  0  0
    7.6860    4.4461  -10.2546 H   0  0  0  0  0  0  0  0  0  0  0  0
    9.9335    7.3959  -10.9051 H   0  0  0  0  0  0  0  0  0  0  0  0
   10.7800    6.1729   -9.9858 H   0  0  0  0  0  0  0  0  0  0  0  0
    9.6305    8.7778   -8.9103 H   0  0  0  0  0  0  0  0  0  0  0  0
   11.3249    8.3803   -9.0888 H   0  0  0  0  0  0  0  0  0  0  0  0
   11.0804    6.5266   -7.4474 H   0  0  0  0  0  0  0  0  0  0  0  0
   12.0927   10.3756   -2.6583 H   0  0  0  0  0  0  0  0  0  0  0  0
   12.7583    8.2719   -1.4682 H   0  0  0  0  0  0  0  0  0  0  0  0
   12.4691    6.0655   -2.5879 H   0  0  0  0  0  0  0  0  0  0  0  0
   11.5577    5.9311   -4.9047 H   0  0  0  0  0  0  0  0  0  0  0  0
    8.9363    6.2687   -6.2105 H   0  0  0  0  0  0  0  0  0  0  0  0
    8.2014    7.5073   -7.1946 H   0  0  0  0  0  0  0  0  0  0  0  0
    7.6831    5.2559   -8.0510 H   0  0  0  0  0  0  0  0  0  0  0  0
    9.3674    4.8371   -8.1809 H   0  0  0  0  0  0  0  0  0  0  0  0
    7.9295    6.8841   -9.7126 H   0  0  0  0  0  0  0  0  0  0  0  0
  2  1  1  0
  3  2  1  0
  4  3  2  0
  5  4  1  0
  6  2  1  0
  6  5  2  0
  7  6  1  0
  8  7  1  0
  9  8  1  0
 10  9  1  0
 11 10  1  0
 12 11  1  0
 13 12  1  0
 14 13  1  0
 15 14  1  0
 16 15  1  0
 17 16  2  0
 18 17  1  0
 19 18  1  0
 20 19  2  0
 21 20  1  0
 22 21  2  0
 23 22  1  0
 24 16  1  0
 24 19  1  0
 24 23  2  0
 25 15  1  0
 26 12  1  0
 26 25  1  0
 27  5  1  0
 27  9  1  0
 28 27  2  0
 29  1  1  0
 30  1  1  0
 31  1  1  0
 32  3  1  0
 33  7  1  0
 34  7  1  0
 35  8  1  0
 36  8  1  0
 37 10  1  0
 38 10  1  0
 39 11  1  0
 40 11  1  0
 41 13  1  0
 42 13  1  0
 43 14  1  0
 44 14  1  0
 15 45  1  6
 46 20  1  0
 47 21  1  0
 48 22  1  0
 49 23  1  0
 50 25  1  0
 51 25  1  0
 52 26  1  0
 53 26  1  0
 12 54  1  1
M  CHG  1  12   1
M  END
>  <b_m_subgroup_collapsed>  (58) 
0

>  <r_i_docking_score>  (58) 
-9.3096736185448705

>  <s_m_subgroup_title>  (58) 
glide-dock_SP_D22_pv

>  <s_m_subgroupid>  (58) 
glide-dock_SP_D22_pv

>  <Molecule ChEMBL ID>  (58) 
CHEMBL5958689

>  <Standard Type>  (58) 
Ki

>  <Standard Value>  (58) 
34023.0

>  <label>  (58) 
0

$$$$
CHEMBL3423340
     RDKit          3D

 68 72  0  0  1  0  0  0  0  0999 V2000
    5.0700    0.4403  -13.5934 C   0  0  0  0  0  0  0  0  0  0  0  0
    6.3363    0.8810  -14.2480 C   0  0  0  0  0  0  0  0  0  0  0  0
    7.2684    0.1677  -14.9722 C   0  0  0  0  0  0  0  0  0  0  0  0
    8.2611    0.9811  -15.3901 N   0  0  0  0  0  0  0  0  0  0  0  0
    9.4358    1.1001  -16.1096 C   0  0  0  0  0  0  0  0  0  0  0  0
   10.1555    0.1214  -16.9113 C   0  0  0  0  0  0  0  0  0  0  0  0
    9.7326   -1.0272  -17.0459 O   0  0  0  0  0  0  0  0  0  0  0  0
   11.2804    0.6211  -17.5073 N   0  0  0  0  0  0  0  0  0  0  0  0
   12.0441   -0.2731  -18.3983 C   0  0  0  0  0  0  0  0  0  0  0  0
   11.7261    1.9259  -17.3836 C   0  0  0  0  0  0  0  0  0  0  0  0
   12.7444    2.3083  -17.9679 O   0  0  0  0  0  0  0  0  0  0  0  0
   11.0045    2.7990  -16.6051 N   0  0  0  0  0  0  0  0  0  0  0  0
   11.4656    4.1811  -16.4407 C   0  0  0  0  0  0  0  0  0  0  0  0
    9.8007    2.3929  -15.9699 C   0  0  0  0  0  0  0  0  0  0  0  0
    8.8856    3.1444  -15.2267 N   0  0  0  0  0  0  0  0  0  0  0  0
    7.9888    2.2350  -14.9233 C   0  0  0  0  0  0  0  0  0  0  0  0
    6.8036    2.2115  -14.2560 N   0  0  0  0  0  0  0  0  0  0  0  0
    6.2064    3.4567  -13.7910 C   0  0  0  0  0  0  0  0  0  0  0  0
    6.9821    4.0916  -12.6281 C   0  0  0  0  0  0  0  0  0  0  0  0
    6.6077    5.5630  -12.3427 C   0  0  0  0  0  0  0  0  0  0  0  0
    7.8043    6.5336  -12.4213 C   0  0  0  0  0  0  0  0  0  0  0  0
    8.9707    6.1865  -11.4742 C   0  0  0  0  0  0  0  0  0  0  0  0
    8.8861    6.8673  -10.1558 N   0  0  0  0  0  0  0  0  0  0  0  0
    9.8123    8.0292  -10.1005 C   0  0  0  0  0  0  0  0  0  0  0  0
    9.9031    8.6742   -8.7113 C   0  0  0  0  0  0  0  0  0  0  0  0
   10.1799    7.6714   -7.6847 N   0  0  0  0  0  0  0  0  0  0  0  0
   10.7259    8.0868   -6.4453 C   0  0  0  0  0  0  0  0  0  0  0  0
   10.8178    9.4588   -6.1038 C   0  0  0  0  0  0  0  0  0  0  0  0
   11.2796    9.8723   -4.8432 C   0  0  0  0  0  0  0  0  0  0  0  0
   11.6871    8.9150   -3.9067 C   0  0  0  0  0  0  0  0  0  0  0  0
   12.1338    9.3726   -2.3124 Cl  0  0  0  0  0  0  0  0  0  0  0  0
   11.6802    7.5585   -4.2445 C   0  0  0  0  0  0  0  0  0  0  0  0
   12.1795    6.4334   -3.0471 Cl  0  0  0  0  0  0  0  0  0  0  0  0
   11.2001    7.1389   -5.5020 C   0  0  0  0  0  0  0  0  0  0  0  0
    9.1849    6.5997   -7.6560 C   0  0  0  0  0  0  0  0  0  0  0  0
    9.0870    5.9113   -9.0298 C   0  0  0  0  0  0  0  0  0  0  0  0
    4.9048   -0.6250  -13.7540 H   0  0  0  0  0  0  0  0  0  0  0  0
    5.1097    0.6238  -12.5196 H   0  0  0  0  0  0  0  0  0  0  0  0
    4.2090    0.9719  -13.9976 H   0  0  0  0  0  0  0  0  0  0  0  0
    7.2592   -0.8856  -15.2145 H   0  0  0  0  0  0  0  0  0  0  0  0
   11.8371   -0.0182  -19.4383 H   0  0  0  0  0  0  0  0  0  0  0  0
   13.1205   -0.1770  -18.2464 H   0  0  0  0  0  0  0  0  0  0  0  0
   11.8166   -1.3326  -18.2729 H   0  0  0  0  0  0  0  0  0  0  0  0
   10.8464    4.7514  -15.7467 H   0  0  0  0  0  0  0  0  0  0  0  0
   12.4870    4.2029  -16.0558 H   0  0  0  0  0  0  0  0  0  0  0  0
   11.4505    4.7044  -17.3975 H   0  0  0  0  0  0  0  0  0  0  0  0
    5.1769    3.2676  -13.4852 H   0  0  0  0  0  0  0  0  0  0  0  0
    6.1533    4.1343  -14.6442 H   0  0  0  0  0  0  0  0  0  0  0  0
    8.0435    4.0139  -12.8506 H   0  0  0  0  0  0  0  0  0  0  0  0
    6.8251    3.5023  -11.7232 H   0  0  0  0  0  0  0  0  0  0  0  0
    6.1440    5.6432  -11.3616 H   0  0  0  0  0  0  0  0  0  0  0  0
    5.8425    5.8978  -13.0458 H   0  0  0  0  0  0  0  0  0  0  0  0
    7.4686    7.5551  -12.2474 H   0  0  0  0  0  0  0  0  0  0  0  0
    8.1723    6.5356  -13.4469 H   0  0  0  0  0  0  0  0  0  0  0  0
    9.9048    6.4507  -11.9711 H   0  0  0  0  0  0  0  0  0  0  0  0
    9.0508    5.1105  -11.3269 H   0  0  0  0  0  0  0  0  0  0  0  0
    9.5051    8.7732  -10.8366 H   0  0  0  0  0  0  0  0  0  0  0  0
   10.8167    7.7042  -10.3810 H   0  0  0  0  0  0  0  0  0  0  0  0
    8.9732    9.1925   -8.4712 H   0  0  0  0  0  0  0  0  0  0  0  0
   10.6994    9.4170   -8.7485 H   0  0  0  0  0  0  0  0  0  0  0  0
   10.4878   10.2247   -6.7812 H   0  0  0  0  0  0  0  0  0  0  0  0
   11.2838   10.9213   -4.5894 H   0  0  0  0  0  0  0  0  0  0  0  0
   11.1860    6.0842   -5.7242 H   0  0  0  0  0  0  0  0  0  0  0  0
    9.4090    5.8436   -6.9047 H   0  0  0  0  0  0  0  0  0  0  0  0
    8.2191    7.0280   -7.3819 H   0  0  0  0  0  0  0  0  0  0  0  0
    8.2702    5.1870   -9.0240 H   0  0  0  0  0  0  0  0  0  0  0  0
   10.0066    5.3503   -9.1990 H   0  0  0  0  0  0  0  0  0  0  0  0
    7.9312    7.2379  -10.0733 H   0  0  0  0  0  0  0  0  0  0  0  0
  2  1  1  0
  3  2  2  0
  4  3  1  0
  5  4  1  0
  6  5  1  0
  7  6  2  0
  8  6  1  0
  9  8  1  0
 10  8  1  0
 11 10  2  0
 12 10  1  0
 13 12  1  0
 14  5  2  0
 14 12  1  0
 15 14  1  0
 16  4  1  0
 16 15  2  0
 17  2  1  0
 17 16  1  0
 18 17  1  0
 19 18  1  0
 20 19  1  0
 21 20  1  0
 22 21  1  0
 23 22  1  0
 24 23  1  0
 25 24  1  0
 26 25  1  0
 27 26  1  0
 28 27  1  0
 29 28  2  0
 30 29  1  0
 31 30  1  0
 32 30  2  0
 33 32  1  0
 34 27  2  0
 34 32  1  0
 35 26  1  0
 36 23  1  0
 36 35  1  0
 37  1  1  0
 38  1  1  0
 39  1  1  0
 40  3  1  0
 41  9  1  0
 42  9  1  0
 43  9  1  0
 44 13  1  0
 45 13  1  0
 46 13  1  0
 47 18  1  0
 48 18  1  0
 49 19  1  0
 50 19  1  0
 51 20  1  0
 52 20  1  0
 53 21  1  0
 54 21  1  0
 55 22  1  0
 56 22  1  0
 57 24  1  0
 58 24  1  0
 59 25  1  0
 60 25  1  0
 61 28  1  0
 62 29  1  0
 63 34  1  0
 64 35  1  0
 65 35  1  0
 66 36  1  0
 67 36  1  0
 68 23  1  0
M  CHG  1  23   1
M  END
>  <b_m_subgroup_collapsed>  (59) 
0

>  <r_i_docking_score>  (59) 
-9.3017219153570796

>  <s_m_subgroup_title>  (59) 
glide-dock_SP_D22_pv

>  <s_m_subgroupid>  (59) 
glide-dock_SP_D22_pv

>  <Molecule ChEMBL ID>  (59) 
CHEMBL3423340

>  <Standard Type>  (59) 
Ki

>  <Standard Value>  (59) 
59.0

>  <label>  (59) 
1

$$$$
CHEMBL5796612
     RDKit          3D

 53 57  0  0  1  0  0  0  0  0999 V2000
   11.2860    6.1723   -6.5559 O   0  0  0  0  0  0  0  0  0  0  0  0
   11.1139    7.2849   -6.0796 C   0  0  0  0  0  0  0  0  0  0  0  0
   11.6199    7.6557   -4.7027 C   0  0  0  0  0  0  0  0  0  0  0  0
   12.0343    6.6570   -3.8922 N   0  0  0  0  0  0  0  0  0  0  0  0
   12.4441    6.9611   -2.6469 C   0  0  0  0  0  0  0  0  0  0  0  0
   12.4860    8.2749   -2.1470 C   0  0  0  0  0  0  0  0  0  0  0  0
   12.0817    9.3227   -2.9883 C   0  0  0  0  0  0  0  0  0  0  0  0
   11.6174    9.0061   -4.2780 C   0  0  0  0  0  0  0  0  0  0  0  0
   11.0370   10.0839   -5.1617 C   0  0  0  0  0  0  0  0  0  0  0  0
   10.8212    9.6049   -6.6001 C   0  0  0  0  0  0  0  0  0  0  0  0
   10.3992    8.2168   -6.7281 N   0  0  0  0  0  0  0  0  0  0  0  0
    9.3495    7.8646   -7.7109 C   0  0  0  0  0  0  0  0  0  0  0  0
    9.8835    7.6885   -9.1533 C   0  0  0  0  0  0  0  0  0  0  0  0
    8.8860    7.0890  -10.0939 N   0  0  2  0  0  0  0  0  0  0  0  0
    8.9147    5.6021  -10.0640 C   0  0  0  0  0  0  0  0  0  0  0  0
    7.8427    5.0058  -10.9892 C   0  0  0  0  0  0  0  0  0  0  0  0
    7.9623    5.4644  -12.4376 C   0  0  2  0  0  0  0  0  0  0  0  0
    9.1013    4.7940  -13.1727 C   0  0  0  0  0  0  0  0  0  0  0  0
   10.3615    5.2170  -13.0658 N   0  0  0  0  0  0  0  0  0  0  0  0
   11.1796    4.3199  -13.8087 O   0  0  0  0  0  0  0  0  0  0  0  0
   10.3974    3.3074  -14.3384 C   0  0  0  0  0  0  0  0  0  0  0  0
   10.7200    2.1723  -15.0962 C   0  0  0  0  0  0  0  0  0  0  0  0
    9.6704    1.2971  -15.4485 C   0  0  0  0  0  0  0  0  0  0  0  0
    9.9405    0.1800  -16.1651 F   0  0  0  0  0  0  0  0  0  0  0  0
    8.3393    1.5811  -15.0530 C   0  0  0  0  0  0  0  0  0  0  0  0
    7.3402    0.7347  -15.3969 F   0  0  0  0  0  0  0  0  0  0  0  0
    8.0407    2.7402  -14.2993 C   0  0  0  0  0  0  0  0  0  0  0  0
    9.0939    3.6097  -13.9403 C   0  0  0  0  0  0  0  0  0  0  0  0
    7.9625    7.0007  -12.4525 C   0  0  0  0  0  0  0  0  0  0  0  0
    8.9952    7.6292  -11.4784 C   0  0  0  0  0  0  0  0  0  0  0  0
   12.7540    6.1307   -2.0295 H   0  0  0  0  0  0  0  0  0  0  0  0
   12.8245    8.4766   -1.1419 H   0  0  0  0  0  0  0  0  0  0  0  0
   12.0860   10.3439   -2.6353 H   0  0  0  0  0  0  0  0  0  0  0  0
   10.0860   10.3914   -4.7265 H   0  0  0  0  0  0  0  0  0  0  0  0
   11.6763   10.9641   -5.1687 H   0  0  0  0  0  0  0  0  0  0  0  0
   10.0860   10.2231   -7.0469 H   0  0  0  0  0  0  0  0  0  0  0  0
   11.7420    9.7297   -7.1722 H   0  0  0  0  0  0  0  0  0  0  0  0
    8.8556    6.9482   -7.3814 H   0  0  0  0  0  0  0  0  0  0  0  0
    8.5649    8.6231   -7.6966 H   0  0  0  0  0  0  0  0  0  0  0  0
   10.1802    8.6743   -9.5149 H   0  0  0  0  0  0  0  0  0  0  0  0
   10.7941    7.0872   -9.1593 H   0  0  0  0  0  0  0  0  0  0  0  0
    9.9037    5.2372  -10.3435 H   0  0  0  0  0  0  0  0  0  0  0  0
    8.7334    5.2588   -9.0449 H   0  0  0  0  0  0  0  0  0  0  0  0
    7.7996    3.9208  -10.9295 H   0  0  0  0  0  0  0  0  0  0  0  0
    6.8860    5.3723  -10.6469 H   0  0  0  0  0  0  0  0  0  0  0  0
    7.0444    5.1584  -12.9409 H   0  0  0  0  0  0  0  0  0  0  0  0
   11.7384    1.9673  -15.3890 H   0  0  0  0  0  0  0  0  0  0  0  0
    7.0247    2.9442  -13.9950 H   0  0  0  0  0  0  0  0  0  0  0  0
    8.0860    7.3723  -13.4469 H   0  0  0  0  0  0  0  0  0  0  0  0
    6.9537    7.3511  -12.2469 H   0  0  0  0  0  0  0  0  0  0  0  0
    8.8333    8.7076  -11.4489 H   0  0  0  0  0  0  0  0  0  0  0  0
   10.0110    7.4844  -11.8452 H   0  0  0  0  0  0  0  0  0  0  0  0
    7.9359    7.3723   -9.8281 H   0  0  0  0  0  0  0  0  0  0  0  0
  2  1  2  0
  3  2  1  0
  4  3  1  0
  5  4  2  0
  6  5  1  0
  7  6  2  0
  8  3  2  0
  8  7  1  0
  9  8  1  0
 10  9  1  0
 11  2  1  0
 11 10  1  0
 12 11  1  0
 13 12  1  0
 14 13  1  0
 15 14  1  0
 16 15  1  0
 17 16  1  0
 18 17  1  0
 19 18  2  0
 20 19  1  0
 21 20  1  0
 22 21  2  0
 23 22  1  0
 24 23  1  0
 25 23  2  0
 26 25  1  0
 27 25  1  0
 28 18  1  0
 28 21  1  0
 28 27  2  0
 29 17  1  0
 30 14  1  0
 30 29  1  0
 31  5  1  0
 32  6  1  0
 33  7  1  0
 34  9  1  0
 35  9  1  0
 36 10  1  0
 37 10  1  0
 38 12  1  0
 39 12  1  0
 40 13  1  0
 41 13  1  0
 42 15  1  0
 43 15  1  0
 44 16  1  0
 45 16  1  0
 17 46  1  6
 47 22  1  0
 48 27  1  0
 49 29  1  0
 50 29  1  0
 51 30  1  0
 52 30  1  0
 14 53  1  1
M  CHG  1  14   1
M  END
>  <b_m_subgroup_collapsed>  (60) 
0

>  <r_i_docking_score>  (60) 
-9.2997551946495491

>  <s_m_subgroup_title>  (60) 
glide-dock_SP_D22_pv

>  <s_m_subgroupid>  (60) 
glide-dock_SP_D22_pv

>  <Molecule ChEMBL ID>  (60) 
CHEMBL5796612

>  <Standard Type>  (60) 
Ki

>  <Standard Value>  (60) 
10000.0

>  <label>  (60) 
0

$$$$
CHEMBL4795213
     RDKit          3D

 62 66  0  0  1  0  0  0  0  0999 V2000
    4.6065   -1.9947  -16.1448 C   0  0  0  0  0  0  0  0  0  0  0  0
    5.6059   -0.9251  -16.1645 N   0  0  0  0  0  0  0  0  0  0  0  0
    6.3319   -0.7383  -17.4310 C   0  0  0  0  0  0  0  0  0  0  0  0
    7.7681   -0.2104  -17.2467 C   0  0  0  0  0  0  0  0  0  0  0  0
    7.8387    0.8735  -16.1894 C   0  0  0  0  0  0  0  0  0  0  0  0
    8.8832    1.8208  -16.2070 C   0  0  0  0  0  0  0  0  0  0  0  0
    8.9327    2.8346  -15.2300 C   0  0  0  0  0  0  0  0  0  0  0  0
    7.9255    2.9441  -14.2507 C   0  0  0  0  0  0  0  0  0  0  0  0
    8.0399    3.9711  -13.3363 O   0  0  0  0  0  0  0  0  0  0  0  0
    6.8576    4.4319  -12.6843 C   0  0  0  0  0  0  0  0  0  0  0  0
    7.2178    5.4876  -11.6256 C   0  0  2  0  0  0  0  0  0  0  0  0
    7.6716    6.6692  -12.2469 O   0  0  0  0  0  0  0  0  0  0  0  0
    8.2032    4.9609  -10.5655 C   0  0  0  0  0  0  0  0  0  0  0  0
    8.6161    5.9868   -9.5672 N   0  0  2  0  0  0  0  0  0  0  0  0
    9.9407    6.5778   -9.9009 C   0  0  0  0  0  0  0  0  0  0  0  0
   10.3743    7.6626   -8.8980 C   0  0  0  0  0  0  0  0  0  0  0  0
   10.3385    7.1330   -7.4468 C   0  0  1  0  0  0  0  0  0  0  0  0
   10.7399    8.1611   -6.4213 C   0  0  0  0  0  0  0  0  0  0  0  0
   10.4861    9.4472   -6.6172 N   0  0  0  0  0  0  0  0  0  0  0  0
   10.9479   10.1625   -5.4761 O   0  0  0  0  0  0  0  0  0  0  0  0
   11.4478    9.2681   -4.5460 C   0  0  0  0  0  0  0  0  0  0  0  0
   11.9851    9.4522   -3.2673 C   0  0  0  0  0  0  0  0  0  0  0  0
   12.3692    8.3057   -2.5458 C   0  0  0  0  0  0  0  0  0  0  0  0
   12.8856    8.4402   -1.3051 F   0  0  0  0  0  0  0  0  0  0  0  0
   12.2119    7.0175   -3.1094 C   0  0  0  0  0  0  0  0  0  0  0  0
   11.6859    6.8604   -4.4124 C   0  0  0  0  0  0  0  0  0  0  0  0
   11.3005    8.0101   -5.1340 C   0  0  0  0  0  0  0  0  0  0  0  0
    8.9448    6.5683   -7.1630 C   0  0  0  0  0  0  0  0  0  0  0  0
    8.6283    5.4599   -8.1787 C   0  0  0  0  0  0  0  0  0  0  0  0
    6.8829    1.9858  -14.2466 C   0  0  0  0  0  0  0  0  0  0  0  0
    6.8508    0.9307  -15.1835 C   0  0  0  0  0  0  0  0  0  0  0  0
    5.7949   -0.1435  -15.0764 C   0  0  0  0  0  0  0  0  0  0  0  0
    5.1372   -0.2629  -14.0388 O   0  0  0  0  0  0  0  0  0  0  0  0
    3.6302   -1.6196  -15.8294 H   0  0  0  0  0  0  0  0  0  0  0  0
    4.4661   -2.4574  -17.1226 H   0  0  0  0  0  0  0  0  0  0  0  0
    4.9073   -2.7795  -15.4477 H   0  0  0  0  0  0  0  0  0  0  0  0
    6.3615   -1.6632  -18.0090 H   0  0  0  0  0  0  0  0  0  0  0  0
    5.7597   -0.0217  -18.0211 H   0  0  0  0  0  0  0  0  0  0  0  0
    8.1412    0.1762  -18.1948 H   0  0  0  0  0  0  0  0  0  0  0  0
    8.4371   -1.0206  -16.9604 H   0  0  0  0  0  0  0  0  0  0  0  0
    9.6514    1.7697  -16.9631 H   0  0  0  0  0  0  0  0  0  0  0  0
    9.7398    3.5511  -15.2458 H   0  0  0  0  0  0  0  0  0  0  0  0
    6.3599    3.6174  -12.1616 H   0  0  0  0  0  0  0  0  0  0  0  0
    6.1544    4.8349  -13.4160 H   0  0  0  0  0  0  0  0  0  0  0  0
    6.2912    5.7643  -11.1230 H   0  0  0  0  0  0  0  0  0  0  0  0
    7.3121    7.3755  -11.7124 H   0  0  0  0  0  0  0  0  0  0  0  0
    7.6864    4.1500  -10.0554 H   0  0  0  0  0  0  0  0  0  0  0  0
    9.0799    4.5085  -11.0327 H   0  0  0  0  0  0  0  0  0  0  0  0
   10.6774    5.7749   -9.8856 H   0  0  0  0  0  0  0  0  0  0  0  0
    9.9339    6.9875  -10.9104 H   0  0  0  0  0  0  0  0  0  0  0  0
   11.3769    8.0128   -9.1437 H   0  0  0  0  0  0  0  0  0  0  0  0
    9.7081    8.5225   -9.0031 H   0  0  0  0  0  0  0  0  0  0  0  0
   11.0521    6.3092   -7.3798 H   0  0  0  0  0  0  0  0  0  0  0  0
   12.0882   10.4378   -2.8362 H   0  0  0  0  0  0  0  0  0  0  0  0
   12.5001    6.1444   -2.5399 H   0  0  0  0  0  0  0  0  0  0  0  0
   11.5700    5.8754   -4.8403 H   0  0  0  0  0  0  0  0  0  0  0  0
    8.9089    6.1722   -6.1485 H   0  0  0  0  0  0  0  0  0  0  0  0
    8.1918    7.3578   -7.2036 H   0  0  0  0  0  0  0  0  0  0  0  0
    7.6844    5.0045   -7.9194 H   0  0  0  0  0  0  0  0  0  0  0  0
    9.3657    4.6591   -8.1081 H   0  0  0  0  0  0  0  0  0  0  0  0
    6.1132    2.0162  -13.4941 H   0  0  0  0  0  0  0  0  0  0  0  0
    7.9098    6.7217   -9.6056 H   0  0  0  0  0  0  0  0  0  0  0  0
  2  1  1  0
  3  2  1  0
  4  3  1  0
  5  4  1  0
  6  5  1  0
  7  6  2  0
  8  7  1  0
  9  8  1  0
 10  9  1  0
 11 10  1  0
 12 11  1  0
 13 11  1  0
 14 13  1  0
 15 14  1  0
 16 15  1  0
 17 16  1  0
 18 17  1  0
 19 18  2  0
 20 19  1  0
 21 20  1  0
 22 21  2  0
 23 22  1  0
 24 23  1  0
 25 23  2  0
 26 25  1  0
 27 18  1  0
 27 21  1  0
 27 26  2  0
 28 17  1  0
 29 14  1  0
 29 28  1  0
 30  8  2  0
 31  5  2  0
 31 30  1  0
 32  2  1  0
 32 31  1  0
 33 32  2  0
 34  1  1  0
 35  1  1  0
 36  1  1  0
 37  3  1  0
 38  3  1  0
 39  4  1  0
 40  4  1  0
 41  6  1  0
 42  7  1  0
 43 10  1  0
 44 10  1  0
 11 45  1  1
 46 12  1  0
 47 13  1  0
 48 13  1  0
 49 15  1  0
 50 15  1  0
 51 16  1  0
 52 16  1  0
 17 53  1  6
 54 22  1  0
 55 25  1  0
 56 26  1  0
 57 28  1  0
 58 28  1  0
 59 29  1  0
 60 29  1  0
 61 30  1  0
 14 62  1  1
M  CHG  1  14   1
M  END
>  <b_m_subgroup_collapsed>  (61) 
0

>  <r_i_docking_score>  (61) 
-9.2675873103324999

>  <s_m_subgroup_title>  (61) 
glide-dock_SP_D22_pv

>  <s_m_subgroupid>  (61) 
glide-dock_SP_D22_pv

>  <Molecule ChEMBL ID>  (61) 
CHEMBL4795213

>  <Standard Type>  (61) 
Ki

>  <Standard Value>  (61) 
15.1

>  <label>  (61) 
1

$$$$
CHEMBL568103
     RDKit          3D

 63 68  0  0  1  0  0  0  0  0999 V2000
    4.8703    0.1724  -13.5601 O   0  0  0  0  0  0  0  0  0  0  0  0
    5.9783    0.4745  -13.9986 C   0  0  0  0  0  0  0  0  0  0  0  0
    6.9108   -0.3517  -14.6072 N   0  0  0  0  0  0  0  0  0  0  0  0
    8.0648    0.3661  -14.8784 C   0  0  0  0  0  0  0  0  0  0  0  0
    9.2861   -0.0265  -15.4468 C   0  0  0  0  0  0  0  0  0  0  0  0
   10.3001    0.9418  -15.5564 C   0  0  0  0  0  0  0  0  0  0  0  0
   10.0606    2.2658  -15.1313 C   0  0  0  0  0  0  0  0  0  0  0  0
    8.8027    2.6517  -14.5914 C   0  0  0  0  0  0  0  0  0  0  0  0
    8.5312    3.9823  -14.2450 N   0  0  0  0  0  0  0  0  0  0  0  0
    7.9958    4.2937  -12.9233 C   0  0  0  0  0  0  0  0  0  0  0  0
    9.1030    4.8663  -12.0209 C   0  0  0  0  0  0  0  0  0  0  0  0
    9.7716    6.0192  -12.6918 N   0  0  0  0  0  0  0  0  0  0  0  0
   10.7289    6.7639  -11.8398 C   0  0  0  0  0  0  0  0  0  0  0  0
   10.2225    8.1425  -11.3948 C   0  0  0  0  0  0  0  0  0  0  0  0
    9.1062    8.0640  -10.3501 C   0  0  0  0  0  0  0  0  0  0  0  0
    9.4569    7.8327   -8.8654 C   0  0  1  0  0  0  0  0  0  0  0  0
   10.3488    6.6018   -8.5819 C   0  0  0  0  0  0  0  0  0  0  0  0
   10.5390    6.3129   -7.0930 C   0  0  0  0  0  0  0  0  0  0  0  0
   10.7929    7.5717   -6.3424 C   0  0  0  0  0  0  0  0  0  0  0  0
   10.5402    8.8200   -6.8270 C   0  0  0  0  0  0  0  0  0  0  0  0
   10.8860    9.7611   -5.8683 N   0  0  0  0  0  0  0  0  0  0  0  0
   11.3158    9.1262   -4.7166 C   0  0  0  0  0  0  0  0  0  0  0  0
   11.7048    9.5901   -3.4469 C   0  0  0  0  0  0  0  0  0  0  0  0
   12.1044    8.6626   -2.4657 C   0  0  0  0  0  0  0  0  0  0  0  0
   12.0977    7.2861   -2.7624 C   0  0  0  0  0  0  0  0  0  0  0  0
   12.4860    6.3791   -1.8469 F   0  0  0  0  0  0  0  0  0  0  0  0
   11.6860    6.8311   -4.0208 C   0  0  0  0  0  0  0  0  0  0  0  0
   11.2860    7.7343   -5.0199 C   0  0  0  0  0  0  0  0  0  0  0  0
    9.9621    9.1101   -8.1683 C   0  0  0  0  0  0  0  0  0  0  0  0
   10.3702    5.5985  -13.9846 C   0  0  0  0  0  0  0  0  0  0  0  0
    9.2784    5.0335  -14.9093 C   0  0  0  0  0  0  0  0  0  0  0  0
    7.8162    1.6525  -14.4637 C   0  0  0  0  0  0  0  0  0  0  0  0
    6.5427    1.7226  -13.9607 O   0  0  0  0  0  0  0  0  0  0  0  0
    6.7669   -1.3383  -14.7804 H   0  0  0  0  0  0  0  0  0  0  0  0
    9.4614   -1.0277  -15.7858 H   0  0  0  0  0  0  0  0  0  0  0  0
   11.2605    0.6736  -15.9726 H   0  0  0  0  0  0  0  0  0  0  0  0
   10.8663    2.9752  -15.2387 H   0  0  0  0  0  0  0  0  0  0  0  0
    7.1954    5.0260  -13.0388 H   0  0  0  0  0  0  0  0  0  0  0  0
    7.5415    3.4257  -12.4516 H   0  0  0  0  0  0  0  0  0  0  0  0
    8.6678    5.1501  -11.0644 H   0  0  0  0  0  0  0  0  0  0  0  0
    9.8407    4.0916  -11.8033 H   0  0  0  0  0  0  0  0  0  0  0  0
   10.8860    6.1723  -10.9611 H   0  0  0  0  0  0  0  0  0  0  0  0
   11.6970    6.8740  -12.3318 H   0  0  0  0  0  0  0  0  0  0  0  0
   11.0464    8.7450  -11.0117 H   0  0  0  0  0  0  0  0  0  0  0  0
    9.8287    8.6593  -12.2687 H   0  0  0  0  0  0  0  0  0  0  0  0
    8.4860    8.9589  -10.4252 H   0  0  0  0  0  0  0  0  0  0  0  0
    8.4860    7.2394  -10.6553 H   0  0  0  0  0  0  0  0  0  0  0  0
    8.5069    7.5999   -8.3789 H   0  0  0  0  0  0  0  0  0  0  0  0
    9.9524    5.7056   -9.0587 H   0  0  0  0  0  0  0  0  0  0  0  0
   11.3363    6.8021   -8.9925 H   0  0  0  0  0  0  0  0  0  0  0  0
   11.3688    5.6191   -6.9627 H   0  0  0  0  0  0  0  0  0  0  0  0
    9.6452    5.8283   -6.7006 H   0  0  0  0  0  0  0  0  0  0  0  0
   10.7931   10.7566   -6.0042 H   0  0  0  0  0  0  0  0  0  0  0  0
   11.6860   10.6417   -3.2113 H   0  0  0  0  0  0  0  0  0  0  0  0
   12.4084    9.0062   -1.4875 H   0  0  0  0  0  0  0  0  0  0  0  0
   11.6676    5.7723   -4.2251 H   0  0  0  0  0  0  0  0  0  0  0  0
   10.7103    9.6105   -8.7836 H   0  0  0  0  0  0  0  0  0  0  0  0
    9.1082    9.7723   -8.0611 H   0  0  0  0  0  0  0  0  0  0  0  0
   10.8860    6.4280  -14.4701 H   0  0  0  0  0  0  0  0  0  0  0  0
   11.1332    4.8417  -13.7951 H   0  0  0  0  0  0  0  0  0  0  0  0
    9.6898    4.7181  -15.8686 H   0  0  0  0  0  0  0  0  0  0  0  0
    8.5264    5.7723  -15.1448 H   0  0  0  0  0  0  0  0  0  0  0  0
    9.0331    6.6710  -12.9163 H   0  0  0  0  0  0  0  0  0  0  0  0
  2  1  2  0
  3  2  1  0
  4  3  1  0
  5  4  2  0
  6  5  1  0
  7  6  2  0
  8  7  1  0
  9  8  1  0
 10  9  1  0
 11 10  1  0
 12 11  1  0
 13 12  1  0
 14 13  1  0
 15 14  1  0
 16 15  1  0
 17 16  1  0
 18 17  1  0
 19 18  1  0
 20 19  2  0
 21 20  1  0
 22 21  1  0
 23 22  2  0
 24 23  1  0
 25 24  2  0
 26 25  1  0
 27 25  1  0
 28 19  1  0
 28 22  1  0
 28 27  2  0
 29 16  1  0
 29 20  1  0
 30 12  1  0
 31  9  1  0
 31 30  1  0
 32  4  1  0
 32  8  2  0
 33  2  1  0
 33 32  1  0
 34  3  1  0
 35  5  1  0
 36  6  1  0
 37  7  1  0
 38 10  1  0
 39 10  1  0
 40 11  1  0
 41 11  1  0
 42 13  1  0
 43 13  1  0
 44 14  1  0
 45 14  1  0
 46 15  1  0
 47 15  1  0
 16 48  1  1
 49 17  1  0
 50 17  1  0
 51 18  1  0
 52 18  1  0
 53 21  1  0
 54 23  1  0
 55 24  1  0
 56 27  1  0
 57 29  1  0
 58 29  1  0
 59 30  1  0
 60 30  1  0
 61 31  1  0
 62 31  1  0
 63 12  1  0
M  CHG  1  12   1
M  END
>  <b_m_subgroup_collapsed>  (62) 
0

>  <r_i_docking_score>  (62) 
-9.25640624633286

>  <s_m_subgroup_title>  (62) 
glide-dock_SP_D22_pv

>  <s_m_subgroupid>  (62) 
glide-dock_SP_D22_pv

>  <Molecule ChEMBL ID>  (62) 
CHEMBL568103

>  <Standard Type>  (62) 
Ki

>  <Standard Value>  (62) 
50.0

>  <label>  (62) 
1

$$$$
CHEMBL4091507
     RDKit          3D

 63 67  0  0  1  0  0  0  0  0999 V2000
    5.3631   -1.0284  -14.2778 O   0  0  0  0  0  0  0  0  0  0  0  0
    6.1508   -0.0935  -14.3823 C   0  0  0  0  0  0  0  0  0  0  0  0
    5.9236    1.2145  -13.7765 C   0  0  0  0  0  0  0  0  0  0  0  0
    6.8291    2.2064  -13.8635 C   0  0  0  0  0  0  0  0  0  0  0  0
    8.1097    2.0460  -14.5766 C   0  0  0  0  0  0  0  0  0  0  0  0
    9.1442    3.0282  -14.6086 C   0  0  0  0  0  0  0  0  0  0  0  0
    9.0802    4.2382  -13.8922 N   0  0  0  0  0  0  0  0  0  0  0  0
    8.0862    5.2422  -14.2255 C   0  0  0  0  0  0  0  0  0  0  0  0
    7.7858    6.2255  -13.0727 C   0  0  0  0  0  0  0  0  0  0  0  0
    7.4929    5.5364  -11.7423 C   0  0  0  0  0  0  0  0  0  0  0  0
    8.7413    5.3544  -10.9671 N   0  0  1  0  0  0  0  0  0  0  0  0
    8.4668    5.1790   -9.5206 C   0  0  0  0  0  0  0  0  0  0  0  0
    9.6945    5.4408   -8.6456 C   0  0  0  0  0  0  0  0  0  0  0  0
   10.2359    6.8816   -8.7344 C   0  0  0  0  0  0  0  0  0  0  0  0
    9.3957    7.8809   -7.9145 C   0  0  0  0  0  0  0  0  0  0  0  0
   10.2146    8.8293   -7.2380 O   0  0  0  0  0  0  0  0  0  0  0  0
   10.7923    8.4440   -6.0455 C   0  0  0  0  0  0  0  0  0  0  0  0
   10.9960    7.0841   -5.6612 C   0  0  0  0  0  0  0  0  0  0  0  0
   11.5608    6.7624   -4.4547 C   0  0  0  0  0  0  0  0  0  0  0  0
   11.8810    7.7497   -3.5959 N   0  0  0  0  0  0  0  0  0  0  0  0
   12.3907    7.5734   -2.3388 N   0  0  0  0  0  0  0  0  0  0  0  0
   12.4874    8.7953   -1.8754 C   0  0  0  0  0  0  0  0  0  0  0  0
   12.0860    9.7849   -2.7973 C   0  0  0  0  0  0  0  0  0  0  0  0
   11.6944    9.1057   -3.9059 C   0  0  0  0  0  0  0  0  0  0  0  0
   11.1710    9.4463   -5.1803 C   0  0  0  0  0  0  0  0  0  0  0  0
    9.5975    4.2756  -11.5210 C   0  0  0  0  0  0  0  0  0  0  0  0
   10.1303    4.5315  -12.9303 C   0  0  0  0  0  0  0  0  0  0  0  0
   10.3215    2.7546  -15.3379 C   0  0  0  0  0  0  0  0  0  0  0  0
   10.4885    1.5310  -16.0067 C   0  0  0  0  0  0  0  0  0  0  0  0
    9.4866    0.5497  -15.9386 C   0  0  0  0  0  0  0  0  0  0  0  0
    9.6857   -0.6282  -16.5915 O   0  0  0  0  0  0  0  0  0  0  0  0
    8.3040    0.7924  -15.2064 C   0  0  0  0  0  0  0  0  0  0  0  0
    7.3066   -0.2251  -15.0658 N   0  0  0  0  0  0  0  0  0  0  0  0
    5.0036    1.3824  -13.2365 H   0  0  0  0  0  0  0  0  0  0  0  0
    6.6088    3.1399  -13.3827 H   0  0  0  0  0  0  0  0  0  0  0  0
    8.4645    5.7723  -15.0946 H   0  0  0  0  0  0  0  0  0  0  0  0
    7.1632    4.7573  -14.5273 H   0  0  0  0  0  0  0  0  0  0  0  0
    8.6028    6.9356  -12.9502 H   0  0  0  0  0  0  0  0  0  0  0  0
    6.9295    6.8495  -13.3202 H   0  0  0  0  0  0  0  0  0  0  0  0
    6.8063    6.1722  -11.2000 H   0  0  0  0  0  0  0  0  0  0  0  0
    6.9608    4.5946  -11.8612 H   0  0  0  0  0  0  0  0  0  0  0  0
    7.6863    5.8700   -9.2026 H   0  0  0  0  0  0  0  0  0  0  0  0
    8.0864    4.1729   -9.3390 H   0  0  0  0  0  0  0  0  0  0  0  0
    9.4063    5.2184   -7.6193 H   0  0  0  0  0  0  0  0  0  0  0  0
   10.4860    4.7295   -8.8628 H   0  0  0  0  0  0  0  0  0  0  0  0
   11.2614    6.8796   -8.3659 H   0  0  0  0  0  0  0  0  0  0  0  0
   10.3195    7.2202   -9.7669 H   0  0  0  0  0  0  0  0  0  0  0  0
    8.7209    8.4192   -8.5809 H   0  0  0  0  0  0  0  0  0  0  0  0
    8.7455    7.3800   -7.1940 H   0  0  0  0  0  0  0  0  0  0  0  0
   10.7210    6.2572   -6.2961 H   0  0  0  0  0  0  0  0  0  0  0  0
   11.7366    5.7592   -4.1100 H   0  0  0  0  0  0  0  0  0  0  0  0
   12.8714    8.9602   -0.8822 H   0  0  0  0  0  0  0  0  0  0  0  0
   12.0857   10.8540   -2.6463 H   0  0  0  0  0  0  0  0  0  0  0  0
   11.0265   10.4887   -5.4409 H   0  0  0  0  0  0  0  0  0  0  0  0
   10.4293    4.0661  -10.8668 H   0  0  0  0  0  0  0  0  0  0  0  0
    9.0167    3.3725  -11.5560 H   0  0  0  0  0  0  0  0  0  0  0  0
   10.9870    3.8803  -13.1001 H   0  0  0  0  0  0  0  0  0  0  0  0
   10.4993    5.5506  -13.0454 H   0  0  0  0  0  0  0  0  0  0  0  0
   11.1139    3.4876  -15.3881 H   0  0  0  0  0  0  0  0  0  0  0  0
   11.3955    1.3401  -16.5614 H   0  0  0  0  0  0  0  0  0  0  0  0
    8.9568   -1.2203  -16.5005 H   0  0  0  0  0  0  0  0  0  0  0  0
    7.4945   -1.1471  -15.4457 H   0  0  0  0  0  0  0  0  0  0  0  0
    9.2426    6.2255  -11.0451 H   0  0  0  0  0  0  0  0  0  0  0  0
  2  1  2  0
  3  2  1  0
  4  3  2  0
  5  4  1  0
  6  5  2  0
  7  6  1  0
  8  7  1  0
  9  8  1  0
 10  9  1  0
 11 10  1  0
 12 11  1  0
 13 12  1  0
 14 13  1  0
 15 14  1  0
 16 15  1  0
 17 16  1  0
 18 17  1  0
 19 18  2  0
 20 19  1  0
 21 20  1  0
 22 21  2  0
 23 22  1  0
 24 20  1  0
 24 23  2  0
 25 17  2  0
 25 24  1  0
 26 11  1  0
 27  7  1  0
 27 26  1  0
 28  6  1  0
 29 28  2  0
 30 29  1  0
 31 30  1  0
 32  5  1  0
 32 30  2  0
 33  2  1  0
 33 32  1  0
 34  3  1  0
 35  4  1  0
 36  8  1  0
 37  8  1  0
 38  9  1  0
 39  9  1  0
 40 10  1  0
 41 10  1  0
 42 12  1  0
 43 12  1  0
 44 13  1  0
 45 13  1  0
 46 14  1  0
 47 14  1  0
 48 15  1  0
 49 15  1  0
 50 18  1  0
 51 19  1  0
 52 22  1  0
 53 23  1  0
 54 25  1  0
 55 26  1  0
 56 26  1  0
 57 27  1  0
 58 27  1  0
 59 28  1  0
 60 29  1  0
 61 31  1  0
 62 33  1  0
 11 63  1  1
M  CHG  1  11   1
M  END
>  <b_m_subgroup_collapsed>  (63) 
0

>  <r_i_docking_score>  (63) 
-9.2557502249715906

>  <s_m_subgroup_title>  (63) 
glide-dock_SP_D22_pv

>  <s_m_subgroupid>  (63) 
glide-dock_SP_D22_pv

>  <Molecule ChEMBL ID>  (63) 
CHEMBL4091507

>  <Standard Type>  (63) 
Ki

>  <Standard Value>  (63) 
46.0

>  <label>  (63) 
1

$$$$
CHEMBL5905068
     RDKit          3D

 57 61  0  0  1  0  0  0  0  0999 V2000
   11.8562    1.5880  -16.8317 C   0  0  0  0  0  0  0  0  0  0  0  0
   11.5774    2.4995  -15.7793 O   0  0  0  0  0  0  0  0  0  0  0  0
   10.2787    2.5987  -15.3334 C   0  0  0  0  0  0  0  0  0  0  0  0
    9.2021    1.8093  -15.8364 C   0  0  0  0  0  0  0  0  0  0  0  0
    7.8887    1.9920  -15.3540 C   0  0  0  0  0  0  0  0  0  0  0  0
    7.6838    2.9719  -14.3738 C   0  0  0  0  0  0  0  0  0  0  0  0
    6.5388    3.4049  -13.7274 O   0  0  0  0  0  0  0  0  0  0  0  0
    6.8726    4.4328  -12.8026 N   0  0  0  0  0  0  0  0  0  0  0  0
    8.1922    4.6214  -12.8766 C   0  0  0  0  0  0  0  0  0  0  0  0
    8.8911    5.5740  -11.9374 C   0  0  1  0  0  0  0  0  0  0  0  0
    8.3860    7.0208  -12.0403 C   0  0  0  0  0  0  0  0  0  0  0  0
    9.1060    7.9412  -11.0274 C   0  0  0  0  0  0  0  0  0  0  0  0
    8.8862    7.4261   -9.6554 N   0  0  2  0  0  0  0  0  0  0  0  0
    9.2412    8.3317   -8.5305 C   0  0  0  0  0  0  0  0  0  0  0  0
   10.7631    8.5469   -8.3432 C   0  0  0  0  0  0  0  0  0  0  0  0
   11.1558    8.2856   -6.9508 N   0  0  0  0  0  0  0  0  0  0  0  0
   11.4707    6.8684   -6.7178 C   0  0  0  0  0  0  0  0  0  0  0  0
   11.2867    6.4106   -5.2765 C   0  0  0  0  0  0  0  0  0  0  0  0
   11.6877    7.4452   -4.2721 C   0  0  0  0  0  0  0  0  0  0  0  0
   12.0866    7.0432   -2.9849 C   0  0  0  0  0  0  0  0  0  0  0  0
   12.4140    8.0354   -2.0545 C   0  0  0  0  0  0  0  0  0  0  0  0
   12.2801    9.3728   -2.4487 C   0  0  0  0  0  0  0  0  0  0  0  0
   11.9122    9.7708   -3.6853 N   0  0  0  0  0  0  0  0  0  0  0  0
   11.6471    8.8173   -4.6068 C   0  0  0  0  0  0  0  0  0  0  0  0
   11.2643    9.2544   -6.0039 C   0  0  0  0  0  0  0  0  0  0  0  0
   11.0709   10.4464   -6.2467 O   0  0  0  0  0  0  0  0  0  0  0  0
    9.3594    6.0343   -9.4739 C   0  0  0  0  0  0  0  0  0  0  0  0
    8.7400    5.0854  -10.4920 C   0  0  0  0  0  0  0  0  0  0  0  0
    8.7168    3.7496  -13.8513 C   0  0  0  0  0  0  0  0  0  0  0  0
   10.0325    3.5590  -14.3230 C   0  0  0  0  0  0  0  0  0  0  0  0
   12.9044    1.6725  -17.1127 H   0  0  0  0  0  0  0  0  0  0  0  0
   11.6797    0.5583  -16.5195 H   0  0  0  0  0  0  0  0  0  0  0  0
   11.2620    1.8066  -17.7203 H   0  0  0  0  0  0  0  0  0  0  0  0
    9.3602    1.0609  -16.5973 H   0  0  0  0  0  0  0  0  0  0  0  0
    7.0660    1.4030  -15.7307 H   0  0  0  0  0  0  0  0  0  0  0  0
    9.9548    5.5794  -12.1770 H   0  0  0  0  0  0  0  0  0  0  0  0
    8.4867    7.4067  -13.0468 H   0  0  0  0  0  0  0  0  0  0  0  0
    7.3152    7.0150  -11.8476 H   0  0  0  0  0  0  0  0  0  0  0  0
    8.6977    8.9499  -11.1032 H   0  0  0  0  0  0  0  0  0  0  0  0
   10.1736    8.0069  -11.2437 H   0  0  0  0  0  0  0  0  0  0  0  0
    8.7869    7.9241   -7.6242 H   0  0  0  0  0  0  0  0  0  0  0  0
    8.7498    9.2938   -8.6820 H   0  0  0  0  0  0  0  0  0  0  0  0
   11.0238    9.5650   -8.6340 H   0  0  0  0  0  0  0  0  0  0  0  0
   11.3583    7.9212   -9.0086 H   0  0  0  0  0  0  0  0  0  0  0  0
   12.4860    6.6730   -7.0470 H   0  0  0  0  0  0  0  0  0  0  0  0
   10.8649    6.2139   -7.3323 H   0  0  0  0  0  0  0  0  0  0  0  0
   11.8881    5.5240   -5.1115 H   0  0  0  0  0  0  0  0  0  0  0  0
   10.2393    6.1723   -5.0917 H   0  0  0  0  0  0  0  0  0  0  0  0
   12.1357    5.9982   -2.7131 H   0  0  0  0  0  0  0  0  0  0  0  0
   12.7374    7.7901   -1.0550 H   0  0  0  0  0  0  0  0  0  0  0  0
   12.4837   10.1563   -1.7367 H   0  0  0  0  0  0  0  0  0  0  0  0
   10.4443    5.9835   -9.5648 H   0  0  0  0  0  0  0  0  0  0  0  0
    9.0846    5.6845   -8.4783 H   0  0  0  0  0  0  0  0  0  0  0  0
    9.2415    4.1316  -10.3903 H   0  0  0  0  0  0  0  0  0  0  0  0
    7.6863    4.9327  -10.2489 H   0  0  0  0  0  0  0  0  0  0  0  0
   10.8472    4.1508  -13.9314 H   0  0  0  0  0  0  0  0  0  0  0  0
    7.8617    7.3774   -9.6302 H   0  0  0  0  0  0  0  0  0  0  0  0
  2  1  1  0
  3  2  1  0
  4  3  2  0
  5  4  1  0
  6  5  2  0
  7  6  1  0
  8  7  1  0
  9  8  2  0
 10  9  1  0
 11 10  1  0
 12 11  1  0
 13 12  1  0
 14 13  1  0
 15 14  1  0
 16 15  1  0
 17 16  1  0
 18 17  1  0
 19 18  1  0
 20 19  1  0
 21 20  2  0
 22 21  1  0
 23 22  2  0
 24 19  2  0
 24 23  1  0
 25 16  1  0
 25 24  1  0
 26 25  2  0
 27 13  1  0
 28 10  1  0
 28 27  1  0
 29  6  1  0
 29  9  1  0
 30  3  1  0
 30 29  2  0
 31  1  1  0
 32  1  1  0
 33  1  1  0
 34  4  1  0
 35  5  1  0
 10 36  1  6
 37 11  1  0
 38 11  1  0
 39 12  1  0
 40 12  1  0
 41 14  1  0
 42 14  1  0
 43 15  1  0
 44 15  1  0
 45 17  1  0
 46 17  1  0
 47 18  1  0
 48 18  1  0
 49 20  1  0
 50 21  1  0
 51 22  1  0
 52 27  1  0
 53 27  1  0
 54 28  1  0
 55 28  1  0
 56 30  1  0
 13 57  1  6
M  CHG  1  13   1
M  END
>  <b_m_subgroup_collapsed>  (64) 
0

>  <r_i_docking_score>  (64) 
-9.2525531805783903

>  <s_m_subgroup_title>  (64) 
glide-dock_SP_D22_pv

>  <s_m_subgroupid>  (64) 
glide-dock_SP_D22_pv

>  <Molecule ChEMBL ID>  (64) 
CHEMBL5905068

>  <Standard Type>  (64) 
Ki

>  <Standard Value>  (64) 
10000.0

>  <label>  (64) 
0

$$$$
CHEMBL109897
     RDKit          3D

 91 98  0  0  1  0  0  0  0  0999 V2000
    9.1022    4.4004   -9.0976 C   0  0  0  0  0  0  0  0  0  0  0  0
    8.7089    5.4514   -8.0653 C   0  0  0  0  0  0  0  0  0  0  0  0
    8.8855    6.9061   -8.5131 C   0  0  0  0  0  0  0  0  0  0  0  0
   10.3075    7.3422   -8.6232 N   0  0  1  0  0  0  0  0  0  0  0  0
   10.6257    8.2513   -9.7834 C   0  0  0  0  0  0  0  0  0  0  0  0
    9.7744    8.1687  -11.0839 C   0  0  0  0  0  0  0  0  0  0  0  0
    9.8977    6.8994  -11.9128 C   0  0  0  0  0  0  0  0  0  0  0  0
   11.0757    6.6358  -12.6456 C   0  0  0  0  0  0  0  0  0  0  0  0
   11.1682    5.4820  -13.4470 C   0  0  0  0  0  0  0  0  0  0  0  0
   10.0777    4.5894  -13.5481 C   0  0  0  0  0  0  0  0  0  0  0  0
   10.1520    3.4269  -14.3253 N   0  0  0  0  0  0  0  0  0  0  0  0
   10.6775    3.1779  -15.5859 C   0  0  0  0  0  0  0  0  0  0  0  0
   10.4532    1.4233  -16.0514 S   0  0  0  0  0  0  0  0  0  0  0  0
   11.2397    4.0510  -16.3663 N   0  0  0  0  0  0  0  0  0  0  0  0
   11.8755    3.6804  -17.5614 C   0  0  0  0  0  0  0  0  0  0  0  0
   12.9757    2.7846  -17.5503 C   0  0  0  0  0  0  0  0  0  0  0  0
   13.6932    2.4672  -18.7213 C   0  0  0  0  0  0  0  0  0  0  0  0
   13.2935    3.0779  -19.9165 C   0  0  0  0  0  0  0  0  0  0  0  0
   12.2179    3.9480  -19.9484 C   0  0  0  0  0  0  0  0  0  0  0  0
   11.4940    4.2818  -18.7864 C   0  0  0  0  0  0  0  0  0  0  0  0
   12.0360    4.3768  -21.3378 C   0  0  0  0  0  0  0  0  0  0  0  0
   11.1831    5.1489  -21.7695 O   0  0  0  0  0  0  0  0  0  0  0  0
   12.9981    3.7427  -22.0752 O   0  0  0  0  0  0  0  0  0  0  0  0
   13.8695    2.9031  -21.2971 C   0  0  2  0  0  0  0  0  0  0  0  0
   13.7632    1.4383  -21.7153 C   0  0  0  0  0  0  0  0  0  0  0  0
   12.5101    0.8699  -22.0409 C   0  0  0  0  0  0  0  0  0  0  0  0
   12.4081   -0.4964  -22.3614 C   0  0  0  0  0  0  0  0  0  0  0  0
   13.5587   -1.3061  -22.3553 C   0  0  0  0  0  0  0  0  0  0  0  0
   13.4641   -2.6292  -22.6644 O   0  0  0  0  0  0  0  0  0  0  0  0
   14.8089   -0.7499  -22.0319 C   0  0  0  0  0  0  0  0  0  0  0  0
   14.9194    0.6189  -21.7147 C   0  0  0  0  0  0  0  0  0  0  0  0
   16.1617    1.1130  -21.3978 O   0  0  0  0  0  0  0  0  0  0  0  0
   16.3849    2.4649  -21.4416 C   0  0  0  0  0  0  0  0  0  0  0  0
   17.7180    2.9201  -21.5519 C   0  0  0  0  0  0  0  0  0  0  0  0
   18.0023    4.3014  -21.5668 C   0  0  0  0  0  0  0  0  0  0  0  0
   19.2854    4.7610  -21.6869 O   0  0  0  0  0  0  0  0  0  0  0  0
   16.9480    5.2261  -21.4521 C   0  0  0  0  0  0  0  0  0  0  0  0
   15.6148    4.7781  -21.3556 C   0  0  0  0  0  0  0  0  0  0  0  0
   15.3188    3.3966  -21.3678 C   0  0  0  0  0  0  0  0  0  0  0  0
    8.8933    4.8670  -12.8356 C   0  0  0  0  0  0  0  0  0  0  0  0
    8.7982    6.0233  -12.0382 C   0  0  0  0  0  0  0  0  0  0  0  0
   10.8888    7.8886   -7.3414 C   0  0  1  0  0  0  0  0  0  0  0  0
   10.0936    9.0645   -6.7363 C   0  0  0  0  0  0  0  0  0  0  0  0
   10.9089    9.7788   -5.6551 C   0  0  0  0  0  0  0  0  0  0  0  0
   11.4774    8.8121   -4.6247 C   0  0  0  0  0  0  0  0  0  0  0  0
   11.8596    9.2738   -3.3515 C   0  0  0  0  0  0  0  0  0  0  0  0
   11.6861   10.5722   -3.0468 O   0  0  0  0  0  0  0  0  0  0  0  0
   12.3764    8.4125   -2.3689 C   0  0  0  0  0  0  0  0  0  0  0  0
   12.4825    7.0451   -2.6482 C   0  0  0  0  0  0  0  0  0  0  0  0
   12.0856    6.5724   -3.9076 C   0  0  0  0  0  0  0  0  0  0  0  0
   11.6002    7.4364   -4.9064 C   0  0  0  0  0  0  0  0  0  0  0  0
   11.1126    6.8496   -6.2194 C   0  0  0  0  0  0  0  0  0  0  0  0
    9.1053    3.4085   -8.6460 H   0  0  0  0  0  0  0  0  0  0  0  0
    8.3853    4.3835   -9.9175 H   0  0  0  0  0  0  0  0  0  0  0  0
   10.0937    4.5797   -9.5105 H   0  0  0  0  0  0  0  0  0  0  0  0
    9.2496    5.2567   -7.1592 H   0  0  0  0  0  0  0  0  0  0  0  0
    7.6634    5.3000   -7.8032 H   0  0  0  0  0  0  0  0  0  0  0  0
    8.3246    7.5635   -7.8555 H   0  0  0  0  0  0  0  0  0  0  0  0
    8.3639    6.9551   -9.4536 H   0  0  0  0  0  0  0  0  0  0  0  0
   11.6768    8.1093  -10.0381 H   0  0  0  0  0  0  0  0  0  0  0  0
   10.5548    9.2850   -9.4507 H   0  0  0  0  0  0  0  0  0  0  0  0
   10.0858    8.9722  -11.7437 H   0  0  0  0  0  0  0  0  0  0  0  0
    8.7278    8.4107  -10.9008 H   0  0  0  0  0  0  0  0  0  0  0  0
   11.9185    7.3104  -12.5894 H   0  0  0  0  0  0  0  0  0  0  0  0
   12.0846    5.2868  -13.9862 H   0  0  0  0  0  0  0  0  0  0  0  0
    9.6103    2.6888  -13.9028 H   0  0  0  0  0  0  0  0  0  0  0  0
    9.8709    1.0003  -14.9275 H   0  0  0  0  0  0  0  0  0  0  0  0
   13.2853    2.3267  -16.6282 H   0  0  0  0  0  0  0  0  0  0  0  0
   14.5168    1.7715  -18.6972 H   0  0  0  0  0  0  0  0  0  0  0  0
   10.6746    4.9849  -18.8297 H   0  0  0  0  0  0  0  0  0  0  0  0
   11.6156    1.4745  -22.0346 H   0  0  0  0  0  0  0  0  0  0  0  0
   11.4463   -0.9229  -22.6041 H   0  0  0  0  0  0  0  0  0  0  0  0
   15.6870   -1.3796  -22.0254 H   0  0  0  0  0  0  0  0  0  0  0  0
   18.5210    2.2016  -21.6218 H   0  0  0  0  0  0  0  0  0  0  0  0
   19.9135    4.1708  -22.0853 H   0  0  0  0  0  0  0  0  0  0  0  0
   17.1567    6.2854  -21.4567 H   0  0  0  0  0  0  0  0  0  0  0  0
   14.8208    5.5057  -21.2851 H   0  0  0  0  0  0  0  0  0  0  0  0
    8.0459    4.1993  -12.9032 H   0  0  0  0  0  0  0  0  0  0  0  0
    7.8692    6.2340  -11.5257 H   0  0  0  0  0  0  0  0  0  0  0  0
   11.8811    8.2658   -7.5991 H   0  0  0  0  0  0  0  0  0  0  0  0
    9.7689    9.7685   -7.4948 H   0  0  0  0  0  0  0  0  0  0  0  0
    9.1844    8.6992   -6.2540 H   0  0  0  0  0  0  0  0  0  0  0  0
   10.2756   10.5162   -5.1615 H   0  0  0  0  0  0  0  0  0  0  0  0
   11.7376   10.3255   -6.1058 H   0  0  0  0  0  0  0  0  0  0  0  0
   12.2043   10.8538   -2.3030 H   0  0  0  0  0  0  0  0  0  0  0  0
   12.6598    8.7922   -1.3982 H   0  0  0  0  0  0  0  0  0  0  0  0
   12.8459    6.3546   -1.9000 H   0  0  0  0  0  0  0  0  0  0  0  0
   12.1423    5.5179   -4.1113 H   0  0  0  0  0  0  0  0  0  0  0  0
   10.1671    6.4325   -5.8908 H   0  0  0  0  0  0  0  0  0  0  0  0
   11.7586    6.0341   -6.5467 H   0  0  0  0  0  0  0  0  0  0  0  0
   10.8078    6.4918   -8.8380 H   0  0  0  0  0  0  0  0  0  0  0  0
  2  1  1  0
  3  2  1  0
  4  3  1  0
  5  4  1  0
  6  5  1  0
  7  6  1  0
  8  7  1  0
  9  8  2  0
 10  9  1  0
 11 10  1  0
 12 11  1  0
 13 12  1  0
 14 12  2  0
 15 14  1  0
 16 15  1  0
 17 16  2  0
 18 17  1  0
 19 18  2  0
 20 15  2  0
 20 19  1  0
 21 19  1  0
 22 21  2  0
 23 21  1  0
 24 18  1  0
 24 23  1  6
 25 24  1  0
 26 25  1  0
 27 26  2  0
 28 27  1  0
 29 28  1  0
 30 28  2  0
 31 25  2  0
 31 30  1  0
 32 31  1  0
 33 32  1  0
 34 33  1  0
 35 34  2  0
 36 35  1  0
 37 35  1  0
 38 37  2  0
 39 24  1  0
 39 33  2  0
 39 38  1  0
 40 10  2  0
 41  7  2  0
 41 40  1  0
 42  4  1  0
 43 42  1  0
 44 43  1  0
 45 44  1  0
 46 45  2  0
 47 46  1  0
 48 46  1  0
 49 48  2  0
 50 49  1  0
 51 45  1  0
 51 50  2  0
 52 42  1  0
 52 51  1  0
 53  1  1  0
 54  1  1  0
 55  1  1  0
 56  2  1  0
 57  2  1  0
 58  3  1  0
 59  3  1  0
 60  5  1  0
 61  5  1  0
 62  6  1  0
 63  6  1  0
 64  8  1  0
 65  9  1  0
 66 11  1  0
 67 13  1  0
 68 16  1  0
 69 17  1  0
 70 20  1  0
 71 26  1  0
 72 27  1  0
 73 30  1  0
 74 34  1  0
 75 36  1  0
 76 37  1  0
 77 38  1  0
 78 40  1  0
 79 41  1  0
 42 80  1  6
 81 43  1  0
 82 43  1  0
 83 44  1  0
 84 44  1  0
 85 47  1  0
 86 48  1  0
 87 49  1  0
 88 50  1  0
 89 52  1  0
 90 52  1  0
  4 91  1  6
M  CHG  2   4   1  29  -1
M  END
>  <b_m_subgroup_collapsed>  (65) 
0

>  <r_i_docking_score>  (65) 
-9.2501339607367701

>  <s_m_subgroup_title>  (65) 
glide-dock_SP_D22_pv

>  <s_m_subgroupid>  (65) 
glide-dock_SP_D22_pv

>  <Molecule ChEMBL ID>  (65) 
CHEMBL109897

>  <Standard Type>  (65) 
Ki

>  <Standard Value>  (65) 
4.8

>  <label>  (65) 
1

$$$$
CHEMBL3409246
     RDKit          3D

 69 73  0  0  1  0  0  0  0  0999 V2000
   12.0860   10.3746   -6.2469 N   0  0  0  0  0  0  0  0  0  0  0  0
   11.3559   10.1748   -5.1602 C   0  0  0  0  0  0  0  0  0  0  0  0
   10.4860   10.9482   -4.8110 O   0  0  0  0  0  0  0  0  0  0  0  0
   11.6780    8.9771   -4.3559 C   0  0  0  0  0  0  0  0  0  0  0  0
   12.0860    9.1170   -3.0165 C   0  0  0  0  0  0  0  0  0  0  0  0
   12.3104    7.9715   -2.2378 C   0  0  0  0  0  0  0  0  0  0  0  0
   12.1015    6.6960   -2.7921 C   0  0  0  0  0  0  0  0  0  0  0  0
   11.6860    6.5723   -4.1320 C   0  0  0  0  0  0  0  0  0  0  0  0
   11.4704    7.7138   -4.9271 C   0  0  0  0  0  0  0  0  0  0  0  0
   11.0483    7.6913   -6.2362 O   0  0  0  0  0  0  0  0  0  0  0  0
   10.4280    6.5344   -6.7261 C   0  0  0  0  0  0  0  0  0  0  0  0
    9.7540    6.9037   -8.0488 C   0  0  0  0  0  0  0  0  0  0  0  0
    9.2946    5.6394   -8.7720 C   0  0  0  0  0  0  0  0  0  0  0  0
    8.4862    5.8738   -9.9926 N   0  0  2  0  0  0  0  0  0  0  0  0
    8.0859    4.5722  -10.5529 C   0  0  0  0  0  0  0  0  0  0  0  0
    7.0544    4.7457  -11.6598 C   0  0  0  0  0  0  0  0  0  0  0  0
    7.6626    5.5176  -12.8278 C   0  0  2  0  0  0  0  0  0  0  0  0
    8.6223    4.6949  -13.6642 C   0  0  0  0  0  0  0  0  0  0  0  0
    9.9127    5.0136  -14.0036 C   0  0  0  0  0  0  0  0  0  0  0  0
   10.4518    4.0520  -14.8427 N   0  0  0  0  0  0  0  0  0  0  0  0
   12.0523    4.1786  -15.4815 S   0  0  0  0  0  0  0  0  0  0  0  0
   12.3151    2.9444  -16.2352 O   0  0  0  0  0  0  0  0  0  0  0  0
   12.8860    4.5723  -14.3348 O   0  0  0  0  0  0  0  0  0  0  0  0
   11.9997    5.5163  -16.6643 C   0  0  0  0  0  0  0  0  0  0  0  0
   11.1764    5.4006  -17.8016 C   0  0  0  0  0  0  0  0  0  0  0  0
   11.2192    6.4001  -18.7937 C   0  0  0  0  0  0  0  0  0  0  0  0
   12.0851    7.5030  -18.6470 C   0  0  0  0  0  0  0  0  0  0  0  0
   12.8881    7.6254  -17.4950 C   0  0  0  0  0  0  0  0  0  0  0  0
   12.8474    6.6306  -16.4983 C   0  0  0  0  0  0  0  0  0  0  0  0
    9.5258    3.0302  -15.0286 C   0  0  0  0  0  0  0  0  0  0  0  0
    9.5613    1.8110  -15.7414 C   0  0  0  0  0  0  0  0  0  0  0  0
    8.4367    0.9682  -15.7537 C   0  0  0  0  0  0  0  0  0  0  0  0
    7.2694    1.3546  -15.0756 C   0  0  0  0  0  0  0  0  0  0  0  0
    7.2310    2.5722  -14.3710 C   0  0  0  0  0  0  0  0  0  0  0  0
    8.3584    3.4299  -14.3046 C   0  0  0  0  0  0  0  0  0  0  0  0
    8.2353    6.8469  -12.2822 C   0  0  0  0  0  0  0  0  0  0  0  0
    9.1420    6.6956  -11.0404 C   0  0  0  0  0  0  0  0  0  0  0  0
   11.9049   11.1910   -6.8083 H   0  0  0  0  0  0  0  0  0  0  0  0
   12.8290    9.7337   -6.4851 H   0  0  0  0  0  0  0  0  0  0  0  0
   12.2180   10.0991   -2.5837 H   0  0  0  0  0  0  0  0  0  0  0  0
   12.6273    8.0782   -1.2112 H   0  0  0  0  0  0  0  0  0  0  0  0
   12.2588    5.8107   -2.1928 H   0  0  0  0  0  0  0  0  0  0  0  0
   11.5299    5.5947   -4.5450 H   0  0  0  0  0  0  0  0  0  0  0  0
    9.6821    6.1724   -6.0182 H   0  0  0  0  0  0  0  0  0  0  0  0
   11.1901    5.7721   -6.8803 H   0  0  0  0  0  0  0  0  0  0  0  0
   10.4634    7.4537   -8.6673 H   0  0  0  0  0  0  0  0  0  0  0  0
    8.9092    7.5688   -7.8604 H   0  0  0  0  0  0  0  0  0  0  0  0
    8.6935    5.0507   -8.0763 H   0  0  0  0  0  0  0  0  0  0  0  0
   10.1636    5.0291   -9.0243 H   0  0  0  0  0  0  0  0  0  0  0  0
    7.6860    3.9341   -9.7671 H   0  0  0  0  0  0  0  0  0  0  0  0
    8.9753    4.0820  -10.9516 H   0  0  0  0  0  0  0  0  0  0  0  0
    6.2023    5.3151  -11.2875 H   0  0  0  0  0  0  0  0  0  0  0  0
    6.6587    3.7785  -11.9589 H   0  0  0  0  0  0  0  0  0  0  0  0
    6.8105    5.7724  -13.4469 H   0  0  0  0  0  0  0  0  0  0  0  0
   10.5045    5.8779  -13.7399 H   0  0  0  0  0  0  0  0  0  0  0  0
   10.5370    4.5385  -17.9246 H   0  0  0  0  0  0  0  0  0  0  0  0
   10.5982    6.3150  -19.6735 H   0  0  0  0  0  0  0  0  0  0  0  0
   12.1183    8.2701  -19.4076 H   0  0  0  0  0  0  0  0  0  0  0  0
   13.5382    8.4809  -17.3817 H   0  0  0  0  0  0  0  0  0  0  0  0
   13.4846    6.7119  -15.6295 H   0  0  0  0  0  0  0  0  0  0  0  0
   10.4428    1.4995  -16.2781 H   0  0  0  0  0  0  0  0  0  0  0  0
    8.4649    0.0294  -16.2888 H   0  0  0  0  0  0  0  0  0  0  0  0
    6.3989    0.7145  -15.0977 H   0  0  0  0  0  0  0  0  0  0  0  0
    6.3129    2.8497  -13.8777 H   0  0  0  0  0  0  0  0  0  0  0  0
    8.7539    7.4019  -13.0469 H   0  0  0  0  0  0  0  0  0  0  0  0
    7.3952    7.4872  -12.0324 H   0  0  0  0  0  0  0  0  0  0  0  0
    9.3639    7.6893  -10.6516 H   0  0  0  0  0  0  0  0  0  0  0  0
   10.0936    6.2413  -11.3185 H   0  0  0  0  0  0  0  0  0  0  0  0
    7.6401    6.3797   -9.7340 H   0  0  0  0  0  0  0  0  0  0  0  0
  2  1  1  0
  3  2  2  0
  4  2  1  0
  5  4  2  0
  6  5  1  0
  7  6  2  0
  8  7  1  0
  9  4  1  0
  9  8  2  0
 10  9  1  0
 11 10  1  0
 12 11  1  0
 13 12  1  0
 14 13  1  0
 15 14  1  0
 16 15  1  0
 17 16  1  0
 18 17  1  0
 19 18  2  0
 20 19  1  0
 21 20  1  0
 22 21  2  0
 23 21  2  0
 24 21  1  0
 25 24  2  0
 26 25  1  0
 27 26  2  0
 28 27  1  0
 29 24  1  0
 29 28  2  0
 30 20  1  0
 31 30  2  0
 32 31  1  0
 33 32  2  0
 34 33  1  0
 35 18  1  0
 35 30  1  0
 35 34  2  0
 36 17  1  0
 37 14  1  0
 37 36  1  0
 38  1  1  0
 39  1  1  0
 40  5  1  0
 41  6  1  0
 42  7  1  0
 43  8  1  0
 44 11  1  0
 45 11  1  0
 46 12  1  0
 47 12  1  0
 48 13  1  0
 49 13  1  0
 50 15  1  0
 51 15  1  0
 52 16  1  0
 53 16  1  0
 17 54  1  6
 55 19  1  0
 56 25  1  0
 57 26  1  0
 58 27  1  0
 59 28  1  0
 60 29  1  0
 61 31  1  0
 62 32  1  0
 63 33  1  0
 64 34  1  0
 65 36  1  0
 66 36  1  0
 67 37  1  0
 68 37  1  0
 14 69  1  1
M  CHG  1  14   1
M  END
>  <b_m_subgroup_collapsed>  (66) 
0

>  <r_i_docking_score>  (66) 
-9.2378029245971707

>  <s_m_subgroup_title>  (66) 
glide-dock_SP_D22_pv

>  <s_m_subgroupid>  (66) 
glide-dock_SP_D22_pv

>  <Molecule ChEMBL ID>  (66) 
CHEMBL3409246

>  <Standard Type>  (66) 
Ki

>  <Standard Value>  (66) 
62.0

>  <label>  (66) 
1

$$$$
CHEMBL5965086
     RDKit          3D

 53 57  0  0  1  0  0  0  0  0999 V2000
    5.4170    4.0725  -12.1006 O   0  0  0  0  0  0  0  0  0  0  0  0
    6.4009    3.8038  -12.7879 C   0  0  0  0  0  0  0  0  0  0  0  0
    6.4525    2.5147  -13.5704 C   0  0  0  0  0  0  0  0  0  0  0  0
    5.3959    1.6721  -13.4470 N   0  0  0  0  0  0  0  0  0  0  0  0
    5.4428    0.4761  -14.0677 C   0  0  0  0  0  0  0  0  0  0  0  0
    6.5380    0.0510  -14.8385 C   0  0  0  0  0  0  0  0  0  0  0  0
    7.6471    0.9072  -14.9556 C   0  0  0  0  0  0  0  0  0  0  0  0
    7.6117    2.1543  -14.3003 C   0  0  0  0  0  0  0  0  0  0  0  0
    8.8320    3.0517  -14.3007 C   0  0  0  0  0  0  0  0  0  0  0  0
    8.5105    4.4947  -13.8800 C   0  0  0  0  0  0  0  0  0  0  0  0
    7.5068    4.5881  -12.8146 N   0  0  0  0  0  0  0  0  0  0  0  0
    7.7196    5.6688  -11.8433 C   0  0  0  0  0  0  0  0  0  0  0  0
    8.3529    5.1139  -10.5486 C   0  0  0  0  0  0  0  0  0  0  0  0
    8.6472    6.1767   -9.5528 N   0  0  2  0  0  0  0  0  0  0  0  0
    9.9489    6.8449   -9.8367 C   0  0  0  0  0  0  0  0  0  0  0  0
   10.3219    7.9172   -8.8010 C   0  0  0  0  0  0  0  0  0  0  0  0
   10.3093    7.3375   -7.3762 C   0  0  1  0  0  0  0  0  0  0  0  0
   10.7325    8.3332   -6.3217 C   0  0  0  0  0  0  0  0  0  0  0  0
   10.4871    9.6323   -6.4681 N   0  0  0  0  0  0  0  0  0  0  0  0
   10.9500   10.2992   -5.3019 O   0  0  0  0  0  0  0  0  0  0  0  0
   11.4552    9.3708   -4.4117 C   0  0  0  0  0  0  0  0  0  0  0  0
   11.9930    9.5068   -3.1256 C   0  0  0  0  0  0  0  0  0  0  0  0
   12.3741    8.3321   -2.4483 C   0  0  0  0  0  0  0  0  0  0  0  0
   12.8858    8.4205   -1.2008 F   0  0  0  0  0  0  0  0  0  0  0  0
   12.2151    7.0667   -3.0598 C   0  0  0  0  0  0  0  0  0  0  0  0
   11.6860    6.9582   -4.3661 C   0  0  0  0  0  0  0  0  0  0  0  0
   11.3052    8.1354   -5.0475 C   0  0  0  0  0  0  0  0  0  0  0  0
    8.9141    6.7706   -7.1102 C   0  0  0  0  0  0  0  0  0  0  0  0
    8.5571    5.6921   -8.1477 C   0  0  0  0  0  0  0  0  0  0  0  0
    4.5771   -0.1593  -13.9492 H   0  0  0  0  0  0  0  0  0  0  0  0
    6.5330   -0.9172  -15.3202 H   0  0  0  0  0  0  0  0  0  0  0  0
    8.5183    0.5963  -15.5170 H   0  0  0  0  0  0  0  0  0  0  0  0
    9.5522    2.6241  -13.5998 H   0  0  0  0  0  0  0  0  0  0  0  0
    9.3065    3.0416  -15.2825 H   0  0  0  0  0  0  0  0  0  0  0  0
    9.4370    5.0052  -13.6166 H   0  0  0  0  0  0  0  0  0  0  0  0
    8.0936    5.0408  -14.7238 H   0  0  0  0  0  0  0  0  0  0  0  0
    8.3509    6.4420  -12.2804 H   0  0  0  0  0  0  0  0  0  0  0  0
    6.7763    6.1708  -11.6188 H   0  0  0  0  0  0  0  0  0  0  0  0
    7.6860    4.3721  -10.1133 H   0  0  0  0  0  0  0  0  0  0  0  0
    9.2667    4.5669  -10.7835 H   0  0  0  0  0  0  0  0  0  0  0  0
   10.7409    6.0994   -9.8509 H   0  0  0  0  0  0  0  0  0  0  0  0
    9.9258    7.2976  -10.8273 H   0  0  0  0  0  0  0  0  0  0  0  0
   11.3075    8.3204   -9.0330 H   0  0  0  0  0  0  0  0  0  0  0  0
    9.6194    8.7477   -8.8765 H   0  0  0  0  0  0  0  0  0  0  0  0
   11.0168    6.5088   -7.3463 H   0  0  0  0  0  0  0  0  0  0  0  0
   12.0916   10.4751   -2.6576 H   0  0  0  0  0  0  0  0  0  0  0  0
   12.5036    6.1745   -2.5230 H   0  0  0  0  0  0  0  0  0  0  0  0
   11.5649    5.9888   -4.8271 H   0  0  0  0  0  0  0  0  0  0  0  0
    8.8843    6.3319   -6.1132 H   0  0  0  0  0  0  0  0  0  0  0  0
    8.1672    7.5671   -7.1173 H   0  0  0  0  0  0  0  0  0  0  0  0
    7.5418    5.3707   -7.9404 H   0  0  0  0  0  0  0  0  0  0  0  0
    9.2027    4.8234   -8.0218 H   0  0  0  0  0  0  0  0  0  0  0  0
    7.9021    6.8679   -9.6563 H   0  0  0  0  0  0  0  0  0  0  0  0
  2  1  2  0
  3  2  1  0
  4  3  1  0
  5  4  2  0
  6  5  1  0
  7  6  2  0
  8  3  2  0
  8  7  1  0
  9  8  1  0
 10  9  1  0
 11  2  1  0
 11 10  1  0
 12 11  1  0
 13 12  1  0
 14 13  1  0
 15 14  1  0
 16 15  1  0
 17 16  1  0
 18 17  1  0
 19 18  2  0
 20 19  1  0
 21 20  1  0
 22 21  2  0
 23 22  1  0
 24 23  1  0
 25 23  2  0
 26 25  1  0
 27 18  1  0
 27 21  1  0
 27 26  2  0
 28 17  1  0
 29 14  1  0
 29 28  1  0
 30  5  1  0
 31  6  1  0
 32  7  1  0
 33  9  1  0
 34  9  1  0
 35 10  1  0
 36 10  1  0
 37 12  1  0
 38 12  1  0
 39 13  1  0
 40 13  1  0
 41 15  1  0
 42 15  1  0
 43 16  1  0
 44 16  1  0
 17 45  1  6
 46 22  1  0
 47 25  1  0
 48 26  1  0
 49 28  1  0
 50 28  1  0
 51 29  1  0
 52 29  1  0
 14 53  1  1
M  CHG  1  14   1
M  END
>  <b_m_subgroup_collapsed>  (67) 
0

>  <r_i_docking_score>  (67) 
-9.2227439991748295

>  <s_m_subgroup_title>  (67) 
glide-dock_SP_D22_pv

>  <s_m_subgroupid>  (67) 
glide-dock_SP_D22_pv

>  <Molecule ChEMBL ID>  (67) 
CHEMBL5965086

>  <Standard Type>  (67) 
Ki

>  <Standard Value>  (67) 
87.0

>  <label>  (67) 
1

$$$$
CHEMBL2298819
     RDKit          3D

 53 56  0  0  1  0  0  0  0  0999 V2000
   10.8861    6.5724   -2.2471 F   0  0  0  0  0  0  0  0  0  0  0  0
   11.9938    7.1380   -2.7163 C   0  0  0  0  0  0  0  0  0  0  0  0
   12.8860    6.1724   -2.8418 F   0  0  0  0  0  0  0  0  0  0  0  0
   12.4432    8.0008   -1.8060 F   0  0  0  0  0  0  0  0  0  0  0  0
   11.7774    7.8406   -4.0573 C   0  0  0  0  0  0  0  0  0  0  0  0
   12.2836    9.1421   -4.2569 C   0  0  0  0  0  0  0  0  0  0  0  0
   12.0849    9.7939   -5.4846 C   0  0  0  0  0  0  0  0  0  0  0  0
   11.3600    9.1790   -6.5113 C   0  0  0  0  0  0  0  0  0  0  0  0
   10.8486    7.8724   -6.3491 C   0  0  0  0  0  0  0  0  0  0  0  0
   10.1346    7.2477   -7.3946 N   0  0  0  0  0  0  0  0  0  0  0  0
   10.1089    7.8605   -8.7213 C   0  0  0  0  0  0  0  0  0  0  0  0
    9.7273    6.8442   -9.8124 C   0  0  0  0  0  0  0  0  0  0  0  0
    8.5241    6.0327   -9.4790 N   0  0  0  0  0  0  0  0  0  0  0  0
    8.2828    4.9454  -10.4684 C   0  0  0  0  0  0  0  0  0  0  0  0
    7.4948    5.3916  -11.7136 C   0  0  0  0  0  0  0  0  0  0  0  0
    8.3468    5.8614  -12.9045 C   0  0  0  0  0  0  0  0  0  0  0  0
    9.1543    4.7596  -13.5630 C   0  0  0  0  0  0  0  0  0  0  0  0
   10.5754    4.8219  -13.5649 C   0  0  0  0  0  0  0  0  0  0  0  0
   11.3467    3.8507  -14.2469 C   0  0  0  0  0  0  0  0  0  0  0  0
   10.6442    2.8337  -14.9105 C   0  0  0  0  0  0  0  0  0  0  0  0
   11.0827    1.7747  -15.7092 N   0  0  0  0  0  0  0  0  0  0  0  0
   10.0306    1.0667  -16.1930 C   0  0  0  0  0  0  0  0  0  0  0  0
   10.0855   -0.2285  -17.2230 S   0  0  0  0  0  0  0  0  0  0  0  0
    8.9222    1.6568  -15.6778 N   0  0  0  0  0  0  0  0  0  0  0  0
    9.2696    2.7602  -14.8947 C   0  0  0  0  0  0  0  0  0  0  0  0
    8.4793    3.7051  -14.2268 C   0  0  0  0  0  0  0  0  0  0  0  0
    8.6029    5.4899   -8.0961 C   0  0  0  0  0  0  0  0  0  0  0  0
    8.8859    6.5843   -7.0568 C   0  0  0  0  0  0  0  0  0  0  0  0
   11.0862    7.2045   -5.1174 C   0  0  0  0  0  0  0  0  0  0  0  0
   12.8341    9.6488   -3.4775 H   0  0  0  0  0  0  0  0  0  0  0  0
   12.4814   10.7800   -5.6605 H   0  0  0  0  0  0  0  0  0  0  0  0
   11.2150    9.7434   -7.4194 H   0  0  0  0  0  0  0  0  0  0  0  0
    9.3953    8.6863   -8.7162 H   0  0  0  0  0  0  0  0  0  0  0  0
   11.0854    8.2732   -8.9766 H   0  0  0  0  0  0  0  0  0  0  0  0
    9.5666    7.3926  -10.7360 H   0  0  0  0  0  0  0  0  0  0  0  0
   10.5721    6.1745   -9.9758 H   0  0  0  0  0  0  0  0  0  0  0  0
    9.2143    4.4464  -10.7403 H   0  0  0  0  0  0  0  0  0  0  0  0
    7.6862    4.1723   -9.9868 H   0  0  0  0  0  0  0  0  0  0  0  0
    6.8739    4.5584  -12.0447 H   0  0  0  0  0  0  0  0  0  0  0  0
    6.7838    6.1710  -11.4474 H   0  0  0  0  0  0  0  0  0  0  0  0
    7.6862    6.2693  -13.6625 H   0  0  0  0  0  0  0  0  0  0  0  0
    8.9992    6.6877  -12.6380 H   0  0  0  0  0  0  0  0  0  0  0  0
   11.0806    5.6338  -13.0622 H   0  0  0  0  0  0  0  0  0  0  0  0
   12.4253    3.9038  -14.2733 H   0  0  0  0  0  0  0  0  0  0  0  0
   12.0508    1.5744  -15.9160 H   0  0  0  0  0  0  0  0  0  0  0  0
    7.9768    1.3531  -15.8597 H   0  0  0  0  0  0  0  0  0  0  0  0
    7.4010    3.6472  -14.2468 H   0  0  0  0  0  0  0  0  0  0  0  0
    7.6861    4.9739   -7.8388 H   0  0  0  0  0  0  0  0  0  0  0  0
    9.3932    4.7397   -8.0579 H   0  0  0  0  0  0  0  0  0  0  0  0
    8.9001    6.1715   -6.0519 H   0  0  0  0  0  0  0  0  0  0  0  0
    8.0861    7.3254   -7.0562 H   0  0  0  0  0  0  0  0  0  0  0  0
   10.7351    6.1948   -4.9635 H   0  0  0  0  0  0  0  0  0  0  0  0
    7.7216    6.6616   -9.5062 H   0  0  0  0  0  0  0  0  0  0  0  0
  2  1  1  0
  3  2  1  0
  4  2  1  0
  5  2  1  0
  6  5  2  0
  7  6  1  0
  8  7  2  0
  9  8  1  0
 10  9  1  0
 11 10  1  0
 12 11  1  0
 13 12  1  0
 14 13  1  0
 15 14  1  0
 16 15  1  0
 17 16  1  0
 18 17  2  0
 19 18  1  0
 20 19  2  0
 21 20  1  0
 22 21  1  0
 23 22  2  0
 24 22  1  0
 25 20  1  0
 25 24  1  0
 26 17  1  0
 26 25  2  0
 27 13  1  0
 28 10  1  0
 28 27  1  0
 29  5  1  0
 29  9  2  0
 30  6  1  0
 31  7  1  0
 32  8  1  0
 33 11  1  0
 34 11  1  0
 35 12  1  0
 36 12  1  0
 37 14  1  0
 38 14  1  0
 39 15  1  0
 40 15  1  0
 41 16  1  0
 42 16  1  0
 43 18  1  0
 44 19  1  0
 45 21  1  0
 46 24  1  0
 47 26  1  0
 48 27  1  0
 49 27  1  0
 50 28  1  0
 51 28  1  0
 52 29  1  0
 53 13  1  0
M  CHG  1  13   1
M  END
>  <b_m_subgroup_collapsed>  (68) 
0

>  <r_i_docking_score>  (68) 
-9.2222226603911697

>  <s_m_subgroup_title>  (68) 
glide-dock_SP_D22_pv

>  <s_m_subgroupid>  (68) 
glide-dock_SP_D22_pv

>  <Molecule ChEMBL ID>  (68) 
CHEMBL2298819

>  <Standard Type>  (68) 
Ki

>  <Standard Value>  (68) 
5.8

>  <label>  (68) 
1

$$$$
CHEMBL3765426
     RDKit          3D

 61 64  0  0  1  0  0  0  0  0999 V2000
   10.4664    1.6244  -14.2519 C   0  0  0  0  0  0  0  0  0  0  0  0
    9.6452    2.8213  -14.2305 N   0  0  0  0  0  0  0  0  0  0  0  0
   10.0467    4.1064  -14.1070 C   0  0  0  0  0  0  0  0  0  0  0  0
   11.7408    4.5600  -13.8466 S   0  0  0  0  0  0  0  0  0  0  0  0
   11.7044    6.3866  -13.9184 C   0  0  0  0  0  0  0  0  0  0  0  0
   10.8856    7.1289  -12.8345 C   0  0  0  0  0  0  0  0  0  0  0  0
   11.3257    7.0114  -11.3730 C   0  0  0  0  0  0  0  0  0  0  0  0
   10.8793    8.0615  -10.4698 N   0  0  0  0  0  0  0  0  0  0  0  0
    9.4219    8.1567  -10.4324 C   0  0  0  0  0  0  0  0  0  0  0  0
    9.0074    9.2736   -9.4861 C   0  0  0  0  0  0  0  0  0  0  0  0
    9.4296    8.9641   -8.1650 O   0  0  0  0  0  0  0  0  0  0  0  0
   10.8400    8.8090   -8.0519 C   0  0  1  0  0  0  0  0  0  0  0  0
   11.2050    8.4263   -6.6219 C   0  0  0  0  0  0  0  0  0  0  0  0
   10.9390    7.1252   -6.1456 C   0  0  0  0  0  0  0  0  0  0  0  0
   11.2613    6.7722   -4.8243 C   0  0  0  0  0  0  0  0  0  0  0  0
   11.8030    7.7189   -3.9355 C   0  0  0  0  0  0  0  0  0  0  0  0
   12.0916    7.3025   -2.5001 C   0  0  0  0  0  0  0  0  0  0  0  0
   10.9731    6.9720   -1.8515 F   0  0  0  0  0  0  0  0  0  0  0  0
   12.8859    6.2343   -2.5194 F   0  0  0  0  0  0  0  0  0  0  0  0
   12.6950    8.2790   -1.8229 F   0  0  0  0  0  0  0  0  0  0  0  0
   12.0555    9.0294   -4.4018 C   0  0  0  0  0  0  0  0  0  0  0  0
   11.7623    9.3785   -5.7387 C   0  0  0  0  0  0  0  0  0  0  0  0
   11.3558    7.7938   -9.1078 C   0  0  0  0  0  0  0  0  0  0  0  0
    9.0398    4.9709  -14.1705 N   0  0  0  0  0  0  0  0  0  0  0  0
    7.9060    4.2149  -14.2360 N   0  0  0  0  0  0  0  0  0  0  0  0
    8.2981    2.9443  -14.2876 C   0  0  0  0  0  0  0  0  0  0  0  0
    7.3016    1.8773  -14.3772 C   0  0  0  0  0  0  0  0  0  0  0  0
    7.4466    0.7919  -15.2683 C   0  0  0  0  0  0  0  0  0  0  0  0
    6.4268   -0.1756  -15.3795 C   0  0  0  0  0  0  0  0  0  0  0  0
    5.2513   -0.0693  -14.5987 C   0  0  0  0  0  0  0  0  0  0  0  0
    4.1050   -1.0272  -14.7298 C   0  0  0  0  0  0  0  0  0  0  0  0
    4.0841   -1.8274  -15.8005 N   0  0  0  0  0  0  0  0  0  0  0  0
    3.2150   -1.0297  -13.8845 O   0  0  0  0  0  0  0  0  0  0  0  0
    5.1451    0.9782  -13.6622 C   0  0  0  0  0  0  0  0  0  0  0  0
    6.1417    1.9591  -13.5740 C   0  0  0  0  0  0  0  0  0  0  0  0
   11.2862    1.7288  -13.5458 H   0  0  0  0  0  0  0  0  0  0  0  0
    9.8810    0.7498  -13.9708 H   0  0  0  0  0  0  0  0  0  0  0  0
   10.8731    1.4738  -15.2515 H   0  0  0  0  0  0  0  0  0  0  0  0
   12.7372    6.7343  -13.8852 H   0  0  0  0  0  0  0  0  0  0  0  0
   11.3285    6.6594  -14.9056 H   0  0  0  0  0  0  0  0  0  0  0  0
   10.8864    8.1682  -13.1225 H   0  0  0  0  0  0  0  0  0  0  0  0
    9.8377    6.8562  -12.8697 H   0  0  0  0  0  0  0  0  0  0  0  0
   10.8860    6.1033  -10.9913 H   0  0  0  0  0  0  0  0  0  0  0  0
   12.4137    6.9511  -11.3297 H   0  0  0  0  0  0  0  0  0  0  0  0
    9.0233    8.3804  -11.4234 H   0  0  0  0  0  0  0  0  0  0  0  0
    8.9739    7.2126  -10.1157 H   0  0  0  0  0  0  0  0  0  0  0  0
    9.4896   10.1714   -9.8468 H   0  0  0  0  0  0  0  0  0  0  0  0
    7.9408    9.4557   -9.5060 H   0  0  0  0  0  0  0  0  0  0  0  0
   11.2904    9.7747   -8.2703 H   0  0  0  0  0  0  0  0  0  0  0  0
   10.4791    6.3864   -6.7851 H   0  0  0  0  0  0  0  0  0  0  0  0
   11.0503    5.7741   -4.4746 H   0  0  0  0  0  0  0  0  0  0  0  0
   12.4751    9.7727   -3.7398 H   0  0  0  0  0  0  0  0  0  0  0  0
   11.9608   10.3834   -6.0814 H   0  0  0  0  0  0  0  0  0  0  0  0
   11.0397    6.7911   -8.8259 H   0  0  0  0  0  0  0  0  0  0  0  0
   12.4465    7.7861   -9.0949 H   0  0  0  0  0  0  0  0  0  0  0  0
    8.3222    0.7128  -15.8948 H   0  0  0  0  0  0  0  0  0  0  0  0
    6.5569   -0.9840  -16.0827 H   0  0  0  0  0  0  0  0  0  0  0  0
    4.8218   -1.7794  -16.4828 H   0  0  0  0  0  0  0  0  0  0  0  0
    3.3647   -2.5437  -15.8896 H   0  0  0  0  0  0  0  0  0  0  0  0
    4.2646    1.0841  -13.0477 H   0  0  0  0  0  0  0  0  0  0  0  0
    6.0149    2.7814  -12.8848 H   0  0  0  0  0  0  0  0  0  0  0  0
  2  1  1  0
  3  2  1  0
  4  3  1  0
  5  4  1  0
  6  5  1  0
  7  6  1  0
  8  7  1  0
  9  8  1  0
 10  9  1  0
 11 10  1  0
 12 11  1  0
 13 12  1  0
 14 13  1  0
 15 14  2  0
 16 15  1  0
 17 16  1  0
 18 17  1  0
 19 17  1  0
 20 17  1  0
 21 16  2  0
 22 13  2  0
 22 21  1  0
 23  8  1  0
 23 12  1  0
 24  3  2  0
 25 24  1  0
 26  2  1  0
 26 25  2  0
 27 26  1  0
 28 27  1  0
 29 28  2  0
 30 29  1  0
 31 30  1  0
 32 31  1  0
 33 31  2  0
 34 30  2  0
 35 27  2  0
 35 34  1  0
 36  1  1  0
 37  1  1  0
 38  1  1  0
 39  5  1  0
 40  5  1  0
 41  6  1  0
 42  6  1  0
 43  7  1  0
 44  7  1  0
 45  9  1  0
 46  9  1  0
 47 10  1  0
 48 10  1  0
 12 49  1  6
 50 14  1  0
 51 15  1  0
 52 21  1  0
 53 22  1  0
 54 23  1  0
 55 23  1  0
 56 28  1  0
 57 29  1  0
 58 32  1  0
 59 32  1  0
 60 34  1  0
 61 35  1  0
M  END
>  <b_m_subgroup_collapsed>  (69) 
0

>  <r_i_docking_score>  (69) 
-9.2209652937700692

>  <s_m_subgroup_title>  (69) 
glide-dock_SP_D22_pv

>  <s_m_subgroupid>  (69) 
glide-dock_SP_D22_pv

>  <Molecule ChEMBL ID>  (69) 
CHEMBL3765426

>  <Standard Type>  (69) 
Ki

>  <Standard Value>  (69) 
10000.0

>  <label>  (69) 
0

$$$$
CHEMBL62601
     RDKit          3D

 63 67  0  0  1  0  0  0  0  0999 V2000
    7.7946    1.5121  -15.4636 C   0  0  0  0  0  0  0  0  0  0  0  0
    9.0970    1.3182  -14.9279 O   0  0  0  0  0  0  0  0  0  0  0  0
   10.1118    1.7734  -15.7338 C   0  0  0  0  0  0  0  0  0  0  0  0
   10.6919    3.0465  -15.5084 C   0  0  0  0  0  0  0  0  0  0  0  0
   10.2224    3.9626  -14.4750 C   0  0  0  0  0  0  0  0  0  0  0  0
    9.0235    4.0823  -13.8952 N   0  0  0  0  0  0  0  0  0  0  0  0
    9.0853    5.2583  -13.1619 C   0  0  0  0  0  0  0  0  0  0  0  0
    7.8755    5.8501  -12.4727 C   0  0  0  0  0  0  0  0  0  0  0  0
    8.0866    6.1723  -11.0398 N   0  0  0  0  0  0  0  0  0  0  0  0
    9.3214    6.9453  -10.7612 C   0  0  0  0  0  0  0  0  0  0  0  0
    9.3551    7.7040   -9.4292 C   0  0  2  0  0  0  0  0  0  0  0  0
   10.5928    8.6187   -9.3495 C   0  0  0  0  0  0  0  0  0  0  0  0
   11.2977    8.2485   -8.0472 C   0  0  0  0  0  0  0  0  0  0  0  0
   10.2662    7.5796   -7.2297 N   0  0  2  0  0  0  0  0  0  0  0  0
   10.7813    6.7938   -6.0855 C   0  0  0  0  0  0  0  0  0  0  0  0
   11.2860    7.6440   -4.9282 C   0  0  0  0  0  0  0  0  0  0  0  0
   11.8935    6.9909   -3.8344 C   0  0  0  0  0  0  0  0  0  0  0  0
   12.2949    7.7199   -2.6987 C   0  0  0  0  0  0  0  0  0  0  0  0
   12.0891    9.1103   -2.6460 C   0  0  0  0  0  0  0  0  0  0  0  0
   11.4899    9.7701   -3.7330 C   0  0  0  0  0  0  0  0  0  0  0  0
   11.1004    9.0478   -4.8728 C   0  0  0  0  0  0  0  0  0  0  0  0
    9.4428    6.8125   -8.1811 C   0  0  0  0  0  0  0  0  0  0  0  0
   10.3508    5.7699  -13.3260 C   0  0  0  0  0  0  0  0  0  0  0  0
   11.0815    4.9503  -14.1166 O   0  0  0  0  0  0  0  0  0  0  0  0
   11.7614    3.4797  -16.3203 C   0  0  0  0  0  0  0  0  0  0  0  0
   12.2512    2.6870  -17.3660 C   0  0  0  0  0  0  0  0  0  0  0  0
   13.6889    3.3720  -18.4181 Br  0  0  0  0  0  0  0  0  0  0  0  0
   11.6697    1.4268  -17.6141 C   0  0  0  0  0  0  0  0  0  0  0  0
   12.1345    0.6227  -18.6766 C   0  0  0  0  0  0  0  0  0  0  0  0
   11.5468   -0.6271  -18.9251 C   0  0  0  0  0  0  0  0  0  0  0  0
   10.5060   -1.0946  -18.1032 C   0  0  0  0  0  0  0  0  0  0  0  0
   10.0511   -0.3105  -17.0298 C   0  0  0  0  0  0  0  0  0  0  0  0
   10.6094    0.9637  -16.7865 C   0  0  0  0  0  0  0  0  0  0  0  0
    7.0613    1.0499  -14.8036 H   0  0  0  0  0  0  0  0  0  0  0  0
    7.5507    2.5696  -15.5371 H   0  0  0  0  0  0  0  0  0  0  0  0
    7.6828    1.0652  -16.4516 H   0  0  0  0  0  0  0  0  0  0  0  0
    7.5788    6.7652  -12.9870 H   0  0  0  0  0  0  0  0  0  0  0  0
    7.0202    5.1757  -12.5459 H   0  0  0  0  0  0  0  0  0  0  0  0
    7.3035    6.7677  -10.7230 H   0  0  0  0  0  0  0  0  0  0  0  0
   10.1826    6.2776  -10.7944 H   0  0  0  0  0  0  0  0  0  0  0  0
    9.4299    7.6895  -11.5523 H   0  0  0  0  0  0  0  0  0  0  0  0
    8.4861    8.3530   -9.3460 H   0  0  0  0  0  0  0  0  0  0  0  0
   11.2693    8.5064  -10.1986 H   0  0  0  0  0  0  0  0  0  0  0  0
   10.2780    9.6637   -9.3338 H   0  0  0  0  0  0  0  0  0  0  0  0
   12.1060    7.5478   -8.2588 H   0  0  0  0  0  0  0  0  0  0  0  0
   11.7409    9.1180   -7.5629 H   0  0  0  0  0  0  0  0  0  0  0  0
    9.9710    6.1761   -5.6951 H   0  0  0  0  0  0  0  0  0  0  0  0
   11.5671    6.1131   -6.4171 H   0  0  0  0  0  0  0  0  0  0  0  0
   12.0281    5.9189   -3.8500 H   0  0  0  0  0  0  0  0  0  0  0  0
   12.7432    7.2084   -1.8614 H   0  0  0  0  0  0  0  0  0  0  0  0
   12.3792    9.6708   -1.7685 H   0  0  0  0  0  0  0  0  0  0  0  0
   11.2878   10.8294   -3.6830 H   0  0  0  0  0  0  0  0  0  0  0  0
   10.6088    9.5937   -5.6627 H   0  0  0  0  0  0  0  0  0  0  0  0
    8.4622    6.5780   -7.7659 H   0  0  0  0  0  0  0  0  0  0  0  0
    9.9440    5.8704   -8.4119 H   0  0  0  0  0  0  0  0  0  0  0  0
   10.8600    6.6686  -13.0132 H   0  0  0  0  0  0  0  0  0  0  0  0
   12.2175    4.4464  -16.1649 H   0  0  0  0  0  0  0  0  0  0  0  0
   12.9386    0.9469  -19.3183 H   0  0  0  0  0  0  0  0  0  0  0  0
   11.9098   -1.2277  -19.7440 H   0  0  0  0  0  0  0  0  0  0  0  0
   10.0607   -2.0627  -18.2858 H   0  0  0  0  0  0  0  0  0  0  0  0
    9.2583   -0.6933  -16.4046 H   0  0  0  0  0  0  0  0  0  0  0  0
    8.0713    5.3217  -10.4950 H   0  0  0  0  0  0  0  0  0  0  0  0
    9.6591    8.2961   -6.8564 H   0  0  0  0  0  0  0  0  0  0  0  0
  2  1  1  0
  3  2  1  0
  4  3  2  0
  5  4  1  0
  6  5  2  0
  7  6  1  0
  8  7  1  0
  9  8  1  0
 10  9  1  0
 11 10  1  0
 12 11  1  0
 13 12  1  0
 14 13  1  0
 15 14  1  0
 16 15  1  0
 17 16  2  0
 18 17  1  0
 19 18  2  0
 20 19  1  0
 21 16  1  0
 21 20  2  0
 22 11  1  0
 22 14  1  0
 23  7  2  0
 24  5  1  0
 24 23  1  0
 25  4  1  0
 26 25  2  0
 27 26  1  0
 28 26  1  0
 29 28  2  0
 30 29  1  0
 31 30  2  0
 32 31  1  0
 33  3  1  0
 33 28  1  0
 33 32  2  0
 34  1  1  0
 35  1  1  0
 36  1  1  0
 37  8  1  0
 38  8  1  0
 39  9  1  0
 40 10  1  0
 41 10  1  0
 11 42  1  1
 43 12  1  0
 44 12  1  0
 45 13  1  0
 46 13  1  0
 47 15  1  0
 48 15  1  0
 49 17  1  0
 50 18  1  0
 51 19  1  0
 52 20  1  0
 53 21  1  0
 54 22  1  0
 55 22  1  0
 56 23  1  0
 57 25  1  0
 58 29  1  0
 59 30  1  0
 60 31  1  0
 61 32  1  0
 62  9  1  0
 14 63  1  1
M  CHG  2   9   1  14   1
M  END
>  <b_m_subgroup_collapsed>  (70) 
0

>  <r_i_docking_score>  (70) 
-9.2087252642437907

>  <s_m_subgroup_title>  (70) 
glide-dock_SP_D22_pv

>  <s_m_subgroupid>  (70) 
glide-dock_SP_D22_pv

>  <Molecule ChEMBL ID>  (70) 
CHEMBL62601

>  <Standard Type>  (70) 
Ki

>  <Standard Value>  (70) 
17500.0

>  <label>  (70) 
0

$$$$
CHEMBL1237149
     RDKit          3D

 58 64  0  0  1  0  0  0  0  0999 V2000
    5.2619    0.3391  -13.9055 O   0  0  0  0  0  0  0  0  0  0  0  0
    6.3632    0.7861  -14.2174 C   0  0  0  0  0  0  0  0  0  0  0  0
    7.3577    0.1718  -14.9641 N   0  0  0  0  0  0  0  0  0  0  0  0
    8.4827    0.9770  -14.9830 C   0  0  0  0  0  0  0  0  0  0  0  0
    9.7525    0.7463  -15.5280 C   0  0  0  0  0  0  0  0  0  0  0  0
   10.7236    1.7478  -15.3158 C   0  0  0  0  0  0  0  0  0  0  0  0
   10.4181    2.9066  -14.5580 C   0  0  0  0  0  0  0  0  0  0  0  0
    9.1224    3.1158  -14.0142 C   0  0  0  0  0  0  0  0  0  0  0  0
    8.8445    4.2504  -13.2294 N   0  0  0  0  0  0  0  0  0  0  0  0
    9.8387    5.1517  -12.6716 C   0  0  0  0  0  0  0  0  0  0  0  0
    8.9573    6.2584  -12.0496 C   0  0  1  0  0  0  0  0  0  0  0  0
    7.8111    6.3098  -13.0469 C   0  0  0  0  0  0  0  0  0  0  0  0
    7.5380    4.8237  -12.9461 C   0  0  2  0  0  0  0  0  0  0  0  0
    7.2806    4.7606  -11.4467 C   0  0  0  0  0  0  0  0  0  0  0  0
    8.2033    5.7722  -10.8677 N   0  0  1  0  0  0  0  0  0  0  0  0
    8.9483    5.3664   -9.6429 C   0  0  0  0  0  0  0  0  0  0  0  0
    9.8858    6.4606   -9.0525 C   0  0  1  0  0  0  0  0  0  0  0  0
    9.2861    7.8718   -9.1395 C   0  0  0  0  0  0  0  0  0  0  0  0
   10.1943    8.9675   -8.6140 C   0  0  0  0  0  0  0  0  0  0  0  0
   10.7791    8.5948   -7.3119 C   0  0  0  0  0  0  0  0  0  0  0  0
   11.3778    9.4659   -6.4242 N   0  0  0  0  0  0  0  0  0  0  0  0
   11.6995    8.7964   -5.2629 C   0  0  0  0  0  0  0  0  0  0  0  0
   12.3302    9.2052   -4.0796 C   0  0  0  0  0  0  0  0  0  0  0  0
   12.4860    8.3234   -3.0096 C   0  0  0  0  0  0  0  0  0  0  0  0
   12.0493    7.0063   -3.1516 C   0  0  0  0  0  0  0  0  0  0  0  0
   12.2081    6.1697   -2.1124 F   0  0  0  0  0  0  0  0  0  0  0  0
   11.4669    6.5724   -4.3611 C   0  0  0  0  0  0  0  0  0  0  0  0
   11.2822    7.4485   -5.4542 C   0  0  0  0  0  0  0  0  0  0  0  0
   10.7739    7.3369   -6.7964 C   0  0  0  0  0  0  0  0  0  0  0  0
   10.2638    6.1561   -7.5690 C   0  0  0  0  0  0  0  0  0  0  0  0
    8.1565    2.1174  -14.2764 C   0  0  0  0  0  0  0  0  0  0  0  0
    6.8605    2.0082  -13.8469 O   0  0  0  0  0  0  0  0  0  0  0  0
    7.2847   -0.7713  -15.3278 H   0  0  0  0  0  0  0  0  0  0  0  0
    9.9802   -0.1575  -16.0738 H   0  0  0  0  0  0  0  0  0  0  0  0
   11.7178    1.6186  -15.7172 H   0  0  0  0  0  0  0  0  0  0  0  0
   11.2023    3.6308  -14.4003 H   0  0  0  0  0  0  0  0  0  0  0  0
   10.4834    4.6519  -11.9492 H   0  0  0  0  0  0  0  0  0  0  0  0
   10.4608    5.5634  -13.4673 H   0  0  0  0  0  0  0  0  0  0  0  0
    9.4828    7.2022  -11.9215 H   0  0  0  0  0  0  0  0  0  0  0  0
    6.9762    6.9439  -12.7365 H   0  0  0  0  0  0  0  0  0  0  0  0
    8.0861    6.5723  -14.0604 H   0  0  0  0  0  0  0  0  0  0  0  0
    6.7216    4.4743  -13.5778 H   0  0  0  0  0  0  0  0  0  0  0  0
    6.2563    5.0771  -11.2600 H   0  0  0  0  0  0  0  0  0  0  0  0
    7.4159    3.7720  -11.0255 H   0  0  0  0  0  0  0  0  0  0  0  0
    8.1888    5.1057   -8.9035 H   0  0  0  0  0  0  0  0  0  0  0  0
    9.5164    4.4545   -9.8302 H   0  0  0  0  0  0  0  0  0  0  0  0
   10.8037    6.4801   -9.6420 H   0  0  0  0  0  0  0  0  0  0  0  0
    8.9343    8.1633  -10.1242 H   0  0  0  0  0  0  0  0  0  0  0  0
    8.4020    7.8661   -8.5062 H   0  0  0  0  0  0  0  0  0  0  0  0
    9.5040    9.7723   -8.4618 H   0  0  0  0  0  0  0  0  0  0  0  0
   10.9607    9.2584   -9.3330 H   0  0  0  0  0  0  0  0  0  0  0  0
   11.5226   10.4468   -6.6113 H   0  0  0  0  0  0  0  0  0  0  0  0
   12.7387   10.1723   -3.9751 H   0  0  0  0  0  0  0  0  0  0  0  0
   12.9572    8.6502   -2.0937 H   0  0  0  0  0  0  0  0  0  0  0  0
   11.1415    5.5550   -4.4574 H   0  0  0  0  0  0  0  0  0  0  0  0
    9.3880    5.7718   -7.0472 H   0  0  0  0  0  0  0  0  0  0  0  0
   11.0146    5.3723   -7.5464 H   0  0  0  0  0  0  0  0  0  0  0  0
    7.5963    6.5435  -10.5864 H   0  0  0  0  0  0  0  0  0  0  0  0
  2  1  2  0
  3  2  1  0
  4  3  1  0
  5  4  2  0
  6  5  1  0
  7  6  2  0
  8  7  1  0
  9  8  1  0
 10  9  1  0
 11 10  1  0
 12 11  1  0
 13  9  1  0
 13 12  1  0
 14 13  1  0
 15 11  1  0
 15 14  1  0
 16 15  1  0
 17 16  1  0
 18 17  1  0
 19 18  1  0
 20 19  1  0
 21 20  1  0
 22 21  1  0
 23 22  2  0
 24 23  1  0
 25 24  2  0
 26 25  1  0
 27 25  1  0
 28 22  1  0
 28 27  2  0
 29 20  2  0
 29 28  1  0
 30 17  1  0
 30 29  1  0
 31  4  1  0
 31  8  2  0
 32  2  1  0
 32 31  1  0
 33  3  1  0
 34  5  1  0
 35  6  1  0
 36  7  1  0
 37 10  1  0
 38 10  1  0
 11 39  1  1
 40 12  1  0
 41 12  1  0
 13 42  1  6
 43 14  1  0
 44 14  1  0
 45 16  1  0
 46 16  1  0
 17 47  1  6
 48 18  1  0
 49 18  1  0
 50 19  1  0
 51 19  1  0
 52 21  1  0
 53 23  1  0
 54 24  1  0
 55 27  1  0
 56 30  1  0
 57 30  1  0
 15 58  1  1
M  CHG  1  15   1
M  END
>  <b_m_subgroup_collapsed>  (71) 
0

>  <r_i_docking_score>  (71) 
-9.2075448957861603

>  <s_m_subgroup_title>  (71) 
glide-dock_SP_D22_pv

>  <s_m_subgroupid>  (71) 
glide-dock_SP_D22_pv

>  <Molecule ChEMBL ID>  (71) 
CHEMBL1237149

>  <Standard Type>  (71) 
Ki

>  <Standard Value>  (71) 
12.0

>  <label>  (71) 
1

$$$$
CHEMBL4635603
     RDKit          3D

 60 64  0  0  1  0  0  0  0  0999 V2000
   10.6827    0.4536  -16.4257 C   0  0  0  0  0  0  0  0  0  0  0  0
   10.0112    0.4080  -17.6683 C   0  0  0  0  0  0  0  0  0  0  0  0
    8.6087    0.2699  -17.7100 C   0  0  0  0  0  0  0  0  0  0  0  0
    7.9149    0.1773  -16.4932 C   0  0  0  0  0  0  0  0  0  0  0  0
    6.5547    0.0695  -16.2770 O   0  0  0  0  0  0  0  0  0  0  0  0
    6.4628    0.0366  -14.9126 C   0  0  0  0  0  0  0  0  0  0  0  0
    4.8350    0.1155  -14.2458 S   0  0  0  0  0  0  0  0  0  0  0  0
    5.0740    1.4192  -12.9886 C   0  0  0  0  0  0  0  0  0  0  0  0
    5.8347    2.6590  -13.4774 C   0  0  0  0  0  0  0  0  0  0  0  0
    6.1207    3.6451  -12.3591 C   0  0  0  0  0  0  0  0  0  0  0  0
    7.1935    4.6329  -12.8163 C   0  0  0  0  0  0  0  0  0  0  0  0
    7.4912    5.6862  -11.7649 C   0  0  0  0  0  0  0  0  0  0  0  0
    8.2426    5.1118  -10.5510 C   0  0  0  0  0  0  0  0  0  0  0  0
    8.4913    6.1748   -9.5617 N   0  0  0  0  0  0  0  0  0  0  0  0
    8.6144    5.6828   -8.1639 C   0  0  0  0  0  0  0  0  0  0  0  0
    8.9430    6.8211   -7.1730 C   0  0  0  0  0  0  0  0  0  0  0  0
   10.0891    7.6100   -7.6200 N   0  0  0  0  0  0  0  0  0  0  0  0
   10.7290    8.4713   -6.6954 C   0  0  0  0  0  0  0  0  0  0  0  0
   10.9155    9.7248   -7.0436 N   0  0  0  0  0  0  0  0  0  0  0  0
   11.6818   10.5713   -5.8468 S   0  0  0  0  0  0  0  0  0  0  0  0
   11.7482    9.2373   -4.7239 C   0  0  0  0  0  0  0  0  0  0  0  0
   12.2277    9.2075   -3.4031 C   0  0  0  0  0  0  0  0  0  0  0  0
   12.2381    7.9941   -2.6970 C   0  0  0  0  0  0  0  0  0  0  0  0
   11.7840    6.8235   -3.3280 C   0  0  0  0  0  0  0  0  0  0  0  0
   11.2866    6.8699   -4.6474 C   0  0  0  0  0  0  0  0  0  0  0  0
   11.2219    8.0819   -5.3794 C   0  0  0  0  0  0  0  0  0  0  0  0
    9.9217    8.1159   -8.9815 C   0  0  0  0  0  0  0  0  0  0  0  0
    9.6670    6.9833   -9.9620 C   0  0  0  0  0  0  0  0  0  0  0  0
    7.6191    0.0914  -14.2346 N   0  0  0  0  0  0  0  0  0  0  0  0
    8.5613    0.2016  -15.2369 C   0  0  0  0  0  0  0  0  0  0  0  0
    9.9655    0.3446  -15.2132 C   0  0  0  0  0  0  0  0  0  0  0  0
   11.7570    0.5719  -16.4020 H   0  0  0  0  0  0  0  0  0  0  0  0
   10.5746    0.4905  -18.5874 H   0  0  0  0  0  0  0  0  0  0  0  0
    8.0767    0.2412  -18.6491 H   0  0  0  0  0  0  0  0  0  0  0  0
    4.0978    1.7699  -12.6526 H   0  0  0  0  0  0  0  0  0  0  0  0
    5.5831    0.9733  -12.1337 H   0  0  0  0  0  0  0  0  0  0  0  0
    6.7870    2.3984  -13.9264 H   0  0  0  0  0  0  0  0  0  0  0  0
    5.2861    3.1843  -14.2468 H   0  0  0  0  0  0  0  0  0  0  0  0
    5.2049    4.1660  -12.0750 H   0  0  0  0  0  0  0  0  0  0  0  0
    6.4602    3.1093  -11.4743 H   0  0  0  0  0  0  0  0  0  0  0  0
    8.1135    4.1053  -13.0741 H   0  0  0  0  0  0  0  0  0  0  0  0
    6.8627    5.1200  -13.7313 H   0  0  0  0  0  0  0  0  0  0  0  0
    8.0768    6.4701  -12.2451 H   0  0  0  0  0  0  0  0  0  0  0  0
    6.5608    6.1597  -11.4495 H   0  0  0  0  0  0  0  0  0  0  0  0
    7.6858    4.3064  -10.0815 H   0  0  0  0  0  0  0  0  0  0  0  0
    9.1828    4.6548  -10.8626 H   0  0  0  0  0  0  0  0  0  0  0  0
    7.6888    5.1960   -7.8569 H   0  0  0  0  0  0  0  0  0  0  0  0
    9.4016    4.9308   -8.1231 H   0  0  0  0  0  0  0  0  0  0  0  0
    8.0868    7.4905   -7.0708 H   0  0  0  0  0  0  0  0  0  0  0  0
    9.1135    6.3994   -6.1856 H   0  0  0  0  0  0  0  0  0  0  0  0
   12.5905   10.1122   -2.9380 H   0  0  0  0  0  0  0  0  0  0  0  0
   12.6044    7.9603   -1.6813 H   0  0  0  0  0  0  0  0  0  0  0  0
   11.8031    5.8842   -2.7940 H   0  0  0  0  0  0  0  0  0  0  0  0
   10.9402    5.9538   -5.0985 H   0  0  0  0  0  0  0  0  0  0  0  0
    9.0942    8.8275   -9.0047 H   0  0  0  0  0  0  0  0  0  0  0  0
   10.8153    8.6519   -9.3066 H   0  0  0  0  0  0  0  0  0  0  0  0
   10.5500    6.3452  -10.0115 H   0  0  0  0  0  0  0  0  0  0  0  0
    9.5318    7.4132  -10.9529 H   0  0  0  0  0  0  0  0  0  0  0  0
   10.4807    0.3805  -14.2645 H   0  0  0  0  0  0  0  0  0  0  0  0
    7.6731    6.7900   -9.5908 H   0  0  0  0  0  0  0  0  0  0  0  0
  2  1  2  0
  3  2  1  0
  4  3  2  0
  5  4  1  0
  6  5  1  0
  7  6  1  0
  8  7  1  0
  9  8  1  0
 10  9  1  0
 11 10  1  0
 12 11  1  0
 13 12  1  0
 14 13  1  0
 15 14  1  0
 16 15  1  0
 17 16  1  0
 18 17  1  0
 19 18  2  0
 20 19  1  0
 21 20  1  0
 22 21  2  0
 23 22  1  0
 24 23  2  0
 25 24  1  0
 26 18  1  0
 26 21  1  0
 26 25  2  0
 27 17  1  0
 28 14  1  0
 28 27  1  0
 29  6  2  0
 30  4  1  0
 30 29  1  0
 31  1  1  0
 31 30  2  0
 32  1  1  0
 33  2  1  0
 34  3  1  0
 35  8  1  0
 36  8  1  0
 37  9  1  0
 38  9  1  0
 39 10  1  0
 40 10  1  0
 41 11  1  0
 42 11  1  0
 43 12  1  0
 44 12  1  0
 45 13  1  0
 46 13  1  0
 47 15  1  0
 48 15  1  0
 49 16  1  0
 50 16  1  0
 51 22  1  0
 52 23  1  0
 53 24  1  0
 54 25  1  0
 55 27  1  0
 56 27  1  0
 57 28  1  0
 58 28  1  0
 59 31  1  0
 60 14  1  0
M  CHG  1  14   1
M  END
>  <b_m_subgroup_collapsed>  (72) 
0

>  <r_i_docking_score>  (72) 
-9.1983688216730108

>  <s_m_subgroup_title>  (72) 
glide-dock_SP_D22_pv

>  <s_m_subgroupid>  (72) 
glide-dock_SP_D22_pv

>  <Molecule ChEMBL ID>  (72) 
CHEMBL4635603

>  <Standard Type>  (72) 
Ki

>  <Standard Value>  (72) 
33.0

>  <label>  (72) 
1

$$$$
CHEMBL5845180
     RDKit          3D

 66 70  0  0  1  0  0  0  0  0999 V2000
    6.7533    0.7778  -14.5965 C   0  0  0  0  0  0  0  0  0  0  0  0
    7.8683    1.6194  -15.0153 N   0  0  0  0  0  0  0  0  0  0  0  0
    8.2015    2.8618  -14.6139 C   0  0  0  0  0  0  0  0  0  0  0  0
    7.2545    3.7729  -13.4470 S   0  0  0  0  0  0  0  0  0  0  0  0
    8.6009    4.2509  -12.3249 C   0  0  0  0  0  0  0  0  0  0  0  0
    8.0346    4.8560  -11.0355 C   0  0  0  0  0  0  0  0  0  0  0  0
    9.0726    5.0628   -9.9218 C   0  0  0  0  0  0  0  0  0  0  0  0
    8.8866    6.3451   -9.1979 N   0  0  2  0  0  0  0  0  0  0  0  0
    9.2896    7.5238   -9.9934 C   0  0  0  0  0  0  0  0  0  0  0  0
    9.7317    8.5938   -8.9907 C   0  0  2  0  0  0  0  0  0  0  0  0
   11.1486    9.1333   -9.2174 C   0  0  0  0  0  0  0  0  0  0  0  0
   11.6412    9.3717   -7.8016 C   0  0  0  0  0  0  0  0  0  0  0  0
   11.0537    8.3026   -7.0176 N   0  0  0  0  0  0  0  0  0  0  0  0
   11.2868    8.2739   -5.6316 C   0  0  0  0  0  0  0  0  0  0  0  0
   11.6577    9.4404   -4.9169 C   0  0  0  0  0  0  0  0  0  0  0  0
   12.0484    9.3687   -3.5686 C   0  0  0  0  0  0  0  0  0  0  0  0
   12.0865    8.1296   -2.9125 C   0  0  0  0  0  0  0  0  0  0  0  0
   12.4865    8.0662   -1.6228 F   0  0  0  0  0  0  0  0  0  0  0  0
   11.6949    6.9646   -3.5979 C   0  0  0  0  0  0  0  0  0  0  0  0
   11.2860    7.0372   -4.9468 C   0  0  0  0  0  0  0  0  0  0  0  0
    9.7781    7.9183   -7.6157 C   0  0  2  0  0  0  0  0  0  0  0  0
    9.6378    6.4218   -7.9248 C   0  0  0  0  0  0  0  0  0  0  0  0
    9.2919    3.3487  -15.2079 N   0  0  0  0  0  0  0  0  0  0  0  0
    9.7050    2.3628  -16.0751 N   0  0  0  0  0  0  0  0  0  0  0  0
    8.8426    1.3527  -15.9143 C   0  0  0  0  0  0  0  0  0  0  0  0
    8.8934    0.0684  -16.7049 C   0  0  0  0  0  0  0  0  0  0  0  0
    8.3838    0.2275  -18.1524 C   0  0  0  0  0  0  0  0  0  0  0  0
    9.4278    0.8521  -19.0954 C   0  0  0  0  0  0  0  0  0  0  0  0
   10.7477    0.0666  -19.0606 C   0  0  0  0  0  0  0  0  0  0  0  0
   11.3019   -0.0196  -17.6300 C   0  0  0  0  0  0  0  0  0  0  0  0
   10.2719   -0.6282  -16.6586 C   0  0  0  0  0  0  0  0  0  0  0  0
    6.1601    0.4952  -15.4667 H   0  0  0  0  0  0  0  0  0  0  0  0
    7.1341   -0.1229  -14.1139 H   0  0  0  0  0  0  0  0  0  0  0  0
    6.1068    1.3006  -13.8905 H   0  0  0  0  0  0  0  0  0  0  0  0
    9.2519    4.9659  -12.8305 H   0  0  0  0  0  0  0  0  0  0  0  0
    9.2098    3.3723  -12.1043 H   0  0  0  0  0  0  0  0  0  0  0  0
    7.2734    4.1783  -10.6508 H   0  0  0  0  0  0  0  0  0  0  0  0
    7.5118    5.7830  -11.2796 H   0  0  0  0  0  0  0  0  0  0  0  0
   10.0854    5.0163  -10.3236 H   0  0  0  0  0  0  0  0  0  0  0  0
    8.9947    4.2369   -9.2142 H   0  0  0  0  0  0  0  0  0  0  0  0
    8.4865    7.8791  -10.6363 H   0  0  0  0  0  0  0  0  0  0  0  0
   10.1157    7.2666  -10.6582 H   0  0  0  0  0  0  0  0  0  0  0  0
    9.0093    9.4085   -8.9569 H   0  0  0  0  0  0  0  0  0  0  0  0
   11.1833   10.0289   -9.8379 H   0  0  0  0  0  0  0  0  0  0  0  0
   11.7875    8.3807   -9.6830 H   0  0  0  0  0  0  0  0  0  0  0  0
   11.2867   10.3347   -7.4457 H   0  0  0  0  0  0  0  0  0  0  0  0
   12.7282    9.3472   -7.7381 H   0  0  0  0  0  0  0  0  0  0  0  0
   11.6745   10.4100   -5.3883 H   0  0  0  0  0  0  0  0  0  0  0  0
   12.3359   10.2619   -3.0344 H   0  0  0  0  0  0  0  0  0  0  0  0
   11.7165    6.0090   -3.0931 H   0  0  0  0  0  0  0  0  0  0  0  0
   11.0214    6.1308   -5.4671 H   0  0  0  0  0  0  0  0  0  0  0  0
    8.9422    8.2573   -7.0017 H   0  0  0  0  0  0  0  0  0  0  0  0
    9.1274    5.8805   -7.1272 H   0  0  0  0  0  0  0  0  0  0  0  0
   10.6242    5.9737   -8.0592 H   0  0  0  0  0  0  0  0  0  0  0  0
    8.2083   -0.6276  -16.2196 H   0  0  0  0  0  0  0  0  0  0  0  0
    8.1304   -0.7614  -18.5381 H   0  0  0  0  0  0  0  0  0  0  0  0
    7.4560    0.8012  -18.1654 H   0  0  0  0  0  0  0  0  0  0  0  0
    9.0389    0.8693  -20.1140 H   0  0  0  0  0  0  0  0  0  0  0  0
    9.6094    1.8912  -18.8184 H   0  0  0  0  0  0  0  0  0  0  0  0
   10.5875   -0.9386  -19.4556 H   0  0  0  0  0  0  0  0  0  0  0  0
   11.4794    0.5404  -19.7150 H   0  0  0  0  0  0  0  0  0  0  0  0
   12.2122   -0.6205  -17.6296 H   0  0  0  0  0  0  0  0  0  0  0  0
   11.6025    0.9705  -17.2920 H   0  0  0  0  0  0  0  0  0  0  0  0
   10.6566   -0.6275  -15.6372 H   0  0  0  0  0  0  0  0  0  0  0  0
   10.1375   -1.6765  -16.9344 H   0  0  0  0  0  0  0  0  0  0  0  0
    7.9036    6.4773   -8.9829 H   0  0  0  0  0  0  0  0  0  0  0  0
  2  1  1  0
  3  2  1  0
  4  3  1  0
  5  4  1  0
  6  5  1  0
  7  6  1  0
  8  7  1  0
  9  8  1  0
 10  9  1  0
 11 10  1  0
 12 11  1  0
 13 12  1  0
 14 13  1  0
 15 14  1  0
 16 15  2  0
 17 16  1  0
 18 17  1  0
 19 17  2  0
 20 14  2  0
 20 19  1  0
 21 10  1  0
 21 13  1  0
 22  8  1  0
 22 21  1  0
 23  3  2  0
 24 23  1  0
 25  2  1  0
 25 24  2  0
 26 25  1  0
 27 26  1  0
 28 27  1  0
 29 28  1  0
 30 29  1  0
 31 26  1  0
 31 30  1  0
 32  1  1  0
 33  1  1  0
 34  1  1  0
 35  5  1  0
 36  5  1  0
 37  6  1  0
 38  6  1  0
 39  7  1  0
 40  7  1  0
 41  9  1  0
 42  9  1  0
 10 43  1  1
 44 11  1  0
 45 11  1  0
 46 12  1  0
 47 12  1  0
 48 15  1  0
 49 16  1  0
 50 19  1  0
 51 20  1  0
 21 52  1  1
 53 22  1  0
 54 22  1  0
 55 26  1  0
 56 27  1  0
 57 27  1  0
 58 28  1  0
 59 28  1  0
 60 29  1  0
 61 29  1  0
 62 30  1  0
 63 30  1  0
 64 31  1  0
 65 31  1  0
  8 66  1  1
M  CHG  1   8   1
M  END
>  <b_m_subgroup_collapsed>  (73) 
0

>  <r_i_docking_score>  (73) 
-9.1822584339770401

>  <s_m_subgroup_title>  (73) 
glide-dock_SP_D22_pv

>  <s_m_subgroupid>  (73) 
glide-dock_SP_D22_pv

>  <Molecule ChEMBL ID>  (73) 
CHEMBL5845180

>  <Standard Type>  (73) 
Ki

>  <Standard Value>  (73) 
43.7

>  <label>  (73) 
1

$$$$
CHEMBL309106
     RDKit          3D

 83 87  0  0  1  0  0  0  0  0999 V2000
    8.6231    0.2359  -14.4643 C   0  0  0  0  0  0  0  0  0  0  0  0
    8.3719    1.5023  -15.3006 C   0  0  0  0  0  0  0  0  0  0  0  0
    6.8864    1.8866  -15.4230 C   0  0  0  0  0  0  0  0  0  0  0  0
    9.0930    1.5153  -16.5373 O   0  0  0  0  0  0  0  0  0  0  0  0
    9.0070    0.5057  -17.4796 C   0  0  0  0  0  0  0  0  0  0  0  0
    7.8734   -0.3317  -17.6207 C   0  0  0  0  0  0  0  0  0  0  0  0
    7.8002   -1.2907  -18.6472 C   0  0  0  0  0  0  0  0  0  0  0  0
    8.8610   -1.4277  -19.5545 C   0  0  0  0  0  0  0  0  0  0  0  0
   10.0000   -0.6156  -19.4222 C   0  0  0  0  0  0  0  0  0  0  0  0
   10.0881    0.3496  -18.3936 C   0  0  0  0  0  0  0  0  0  0  0  0
   11.2612    1.1288  -18.3091 N   0  0  0  0  0  0  0  0  0  0  0  0
   11.8959    1.4310  -17.0367 C   0  0  0  0  0  0  0  0  0  0  0  0
   12.0221    2.9531  -16.8804 C   0  0  0  0  0  0  0  0  0  0  0  0
   12.7677    3.5317  -18.0361 N   0  0  0  0  0  0  0  0  0  0  0  0
   13.0351    4.9881  -17.9083 C   0  0  0  0  0  0  0  0  0  0  0  0
   14.1009    5.2974  -16.8270 C   0  0  1  0  0  0  0  0  0  0  0  0
   15.3657    5.2020  -17.4527 O   0  0  0  0  0  0  0  0  0  0  0  0
   14.0006    6.6789  -16.1475 C   0  0  0  0  0  0  0  0  0  0  0  0
   13.2859    6.6623  -14.8698 N   0  0  0  0  0  0  0  0  0  0  0  0
   11.9715    6.4608  -14.7135 C   0  0  0  0  0  0  0  0  0  0  0  0
   11.2472    6.1701  -15.6587 O   0  0  0  0  0  0  0  0  0  0  0  0
   11.3914    6.5433  -13.3227 C   0  0  0  0  0  0  0  0  0  0  0  0
   10.1740    5.8462  -13.0468 C   0  0  0  0  0  0  0  0  0  0  0  0
    9.5256    5.9415  -11.7926 C   0  0  0  0  0  0  0  0  0  0  0  0
   10.1512    6.7247  -10.8124 C   0  0  0  0  0  0  0  0  0  0  0  0
   11.3393    7.3723  -11.0527 C   0  0  0  0  0  0  0  0  0  0  0  0
   11.9843    7.3442  -12.3054 C   0  0  0  0  0  0  0  0  0  0  0  0
   11.8466    7.8349   -9.7400 C   0  0  0  0  0  0  0  0  0  0  0  0
   13.0062    8.1724   -9.5219 O   0  0  0  0  0  0  0  0  0  0  0  0
   10.8826    7.5607   -8.8250 N   0  0  0  0  0  0  0  0  0  0  0  0
   11.0482    7.8157   -7.4318 C   0  0  0  0  0  0  0  0  0  0  0  0
   11.2854    9.1183   -6.9406 C   0  0  0  0  0  0  0  0  0  0  0  0
   11.5350    9.3293   -5.5665 C   0  0  0  0  0  0  0  0  0  0  0  0
   11.5522    8.2469   -4.6493 C   0  0  0  0  0  0  0  0  0  0  0  0
   11.8088    8.4345   -3.2719 N   0  0  0  0  0  0  0  0  0  0  0  0
   12.0969    7.2880   -2.4160 C   0  0  0  0  0  0  0  0  0  0  0  0
   11.9649    9.7720   -2.7272 C   0  0  0  0  0  0  0  0  0  0  0  0
   11.2854    6.9536   -5.1547 C   0  0  0  0  0  0  0  0  0  0  0  0
   11.0347    6.7434   -6.5218 C   0  0  0  0  0  0  0  0  0  0  0  0
    9.8495    6.8566   -9.3632 C   0  0  0  0  0  0  0  0  0  0  0  0
    8.8860    6.3547   -8.7893 O   0  0  0  0  0  0  0  0  0  0  0  0
   12.1141    3.1998  -19.3328 C   0  0  0  0  0  0  0  0  0  0  0  0
   11.8837    1.6856  -19.5035 C   0  0  0  0  0  0  0  0  0  0  0  0
    8.2323    0.3507  -13.4523 H   0  0  0  0  0  0  0  0  0  0  0  0
    8.1316   -0.6273  -14.9021 H   0  0  0  0  0  0  0  0  0  0  0  0
    9.6897    0.0200  -14.3871 H   0  0  0  0  0  0  0  0  0  0  0  0
    8.8360    2.3194  -14.7462 H   0  0  0  0  0  0  0  0  0  0  0  0
    6.5449    2.3789  -14.5125 H   0  0  0  0  0  0  0  0  0  0  0  0
    6.7245    2.5721  -16.2537 H   0  0  0  0  0  0  0  0  0  0  0  0
    6.2336    1.0276  -15.5634 H   0  0  0  0  0  0  0  0  0  0  0  0
    7.0306   -0.2698  -16.9585 H   0  0  0  0  0  0  0  0  0  0  0  0
    6.9268   -1.9203  -18.7365 H   0  0  0  0  0  0  0  0  0  0  0  0
    8.8078   -2.1660  -20.3423 H   0  0  0  0  0  0  0  0  0  0  0  0
   10.8142   -0.7547  -20.1164 H   0  0  0  0  0  0  0  0  0  0  0  0
   12.8858    0.9792  -17.0470 H   0  0  0  0  0  0  0  0  0  0  0  0
   11.3743    0.9837  -16.1917 H   0  0  0  0  0  0  0  0  0  0  0  0
   12.5090    3.1579  -15.9304 H   0  0  0  0  0  0  0  0  0  0  0  0
   11.0327    3.4092  -16.8200 H   0  0  0  0  0  0  0  0  0  0  0  0
   12.0924    5.4977  -17.7364 H   0  0  0  0  0  0  0  0  0  0  0  0
   13.3784    5.3857  -18.8655 H   0  0  0  0  0  0  0  0  0  0  0  0
   14.0861    4.5604  -16.0328 H   0  0  0  0  0  0  0  0  0  0  0  0
   15.4823    5.9476  -18.0238 H   0  0  0  0  0  0  0  0  0  0  0  0
   15.0124    6.9723  -15.8776 H   0  0  0  0  0  0  0  0  0  0  0  0
   13.6061    7.4442  -16.8175 H   0  0  0  0  0  0  0  0  0  0  0  0
   13.8519    6.7761  -14.0365 H   0  0  0  0  0  0  0  0  0  0  0  0
    9.7138    5.2410  -13.8128 H   0  0  0  0  0  0  0  0  0  0  0  0
    8.6126    5.4027  -11.5801 H   0  0  0  0  0  0  0  0  0  0  0  0
   12.9258    7.8532  -12.4522 H   0  0  0  0  0  0  0  0  0  0  0  0
   11.2870    9.9588   -7.6175 H   0  0  0  0  0  0  0  0  0  0  0  0
   11.7223   10.3392   -5.2400 H   0  0  0  0  0  0  0  0  0  0  0  0
   12.8457    6.6391   -2.8712 H   0  0  0  0  0  0  0  0  0  0  0  0
   12.4884    7.6126   -1.4522 H   0  0  0  0  0  0  0  0  0  0  0  0
   11.1940    6.7044   -2.2331 H   0  0  0  0  0  0  0  0  0  0  0  0
   11.1651   10.4356   -3.0568 H   0  0  0  0  0  0  0  0  0  0  0  0
   11.9679    9.7640   -1.6365 H   0  0  0  0  0  0  0  0  0  0  0  0
   12.9163   10.1735   -3.0535 H   0  0  0  0  0  0  0  0  0  0  0  0
   11.2607    6.0912   -4.5072 H   0  0  0  0  0  0  0  0  0  0  0  0
   10.8479    5.7463   -6.8796 H   0  0  0  0  0  0  0  0  0  0  0  0
   11.1541    3.7165  -19.3849 H   0  0  0  0  0  0  0  0  0  0  0  0
   12.7167    3.5688  -20.1647 H   0  0  0  0  0  0  0  0  0  0  0  0
   12.8320    1.1747  -19.6706 H   0  0  0  0  0  0  0  0  0  0  0  0
   11.2704    1.5121  -20.3887 H   0  0  0  0  0  0  0  0  0  0  0  0
   13.6720    3.0833  -18.0468 H   0  0  0  0  0  0  0  0  0  0  0  0
  2  1  1  0
  3  2  1  0
  4  2  1  0
  5  4  1  0
  6  5  2  0
  7  6  1  0
  8  7  2  0
  9  8  1  0
 10  5  1  0
 10  9  2  0
 11 10  1  0
 12 11  1  0
 13 12  1  0
 14 13  1  0
 15 14  1  0
 16 15  1  0
 17 16  1  0
 18 16  1  0
 19 18  1  0
 20 19  1  0
 21 20  2  0
 22 20  1  0
 23 22  1  0
 24 23  2  0
 25 24  1  0
 26 25  2  0
 27 22  2  0
 27 26  1  0
 28 26  1  0
 29 28  2  0
 30 28  1  0
 31 30  1  0
 32 31  1  0
 33 32  2  0
 34 33  1  0
 35 34  1  0
 36 35  1  0
 37 35  1  0
 38 34  2  0
 39 31  2  0
 39 38  1  0
 40 25  1  0
 40 30  1  0
 41 40  2  0
 42 14  1  0
 43 11  1  0
 43 42  1  0
 44  1  1  0
 45  1  1  0
 46  1  1  0
 47  2  1  0
 48  3  1  0
 49  3  1  0
 50  3  1  0
 51  6  1  0
 52  7  1  0
 53  8  1  0
 54  9  1  0
 55 12  1  0
 56 12  1  0
 57 13  1  0
 58 13  1  0
 59 15  1  0
 60 15  1  0
 16 61  1  1
 62 17  1  0
 63 18  1  0
 64 18  1  0
 65 19  1  0
 66 23  1  0
 67 24  1  0
 68 27  1  0
 69 32  1  0
 70 33  1  0
 71 36  1  0
 72 36  1  0
 73 36  1  0
 74 37  1  0
 75 37  1  0
 76 37  1  0
 77 38  1  0
 78 39  1  0
 79 42  1  0
 80 42  1  0
 81 43  1  0
 82 43  1  0
 83 14  1  0
M  CHG  1  14   1
M  END
>  <b_m_subgroup_collapsed>  (74) 
0

>  <r_i_docking_score>  (74) 
-9.1817184802722593

>  <s_m_subgroup_title>  (74) 
glide-dock_SP_D22_pv

>  <s_m_subgroupid>  (74) 
glide-dock_SP_D22_pv

>  <Molecule ChEMBL ID>  (74) 
CHEMBL309106

>  <Standard Type>  (74) 
Ki

>  <Standard Value>  (74) 
23.0

>  <label>  (74) 
1

$$$$
CHEMBL201748
     RDKit          3D

 43 47  0  0  1  0  0  0  0  0999 V2000
   12.2581    8.1680   -3.0948 C   0  0  0  0  0  0  0  0  0  0  0  0
   12.0043    6.9709   -3.7858 C   0  0  0  0  0  0  0  0  0  0  0  0
   11.3704    6.9984   -5.0439 C   0  0  0  0  0  0  0  0  0  0  0  0
   10.9766    8.2265   -5.6218 C   0  0  0  0  0  0  0  0  0  0  0  0
   10.2200    8.2670   -6.9470 C   0  0  1  0  0  0  0  0  0  0  0  0
   11.0369    8.0410   -8.2207 C   0  0  0  0  0  0  0  0  0  0  0  0
    9.9100    7.8381   -9.2433 C   0  0  1  0  0  0  0  0  0  0  0  0
   10.2807    7.2528  -10.5718 C   0  0  0  0  0  0  0  0  0  0  0  0
   11.2511    7.7344  -11.4314 N   0  0  0  0  0  0  0  0  0  0  0  0
   11.2850    6.9723  -12.5894 C   0  0  0  0  0  0  0  0  0  0  0  0
   12.0876    7.0358  -13.7422 C   0  0  0  0  0  0  0  0  0  0  0  0
   11.9078    6.0861  -14.7648 C   0  0  0  0  0  0  0  0  0  0  0  0
   10.9240    5.0869  -14.6301 C   0  0  0  0  0  0  0  0  0  0  0  0
   10.1184    5.0318  -13.4746 C   0  0  0  0  0  0  0  0  0  0  0  0
   10.2789    5.9707  -12.4289 C   0  0  0  0  0  0  0  0  0  0  0  0
    9.6861    6.1610  -11.1361 C   0  0  0  0  0  0  0  0  0  0  0  0
    8.6482    5.3794  -10.4042 C   0  0  0  0  0  0  0  0  0  0  0  0
    8.8620    5.5752   -8.8898 C   0  0  0  0  0  0  0  0  0  0  0  0
    8.8861    7.0235   -8.5279 N   0  0  1  0  0  0  0  0  0  0  0  0
    9.0607    7.2627   -7.0760 C   0  0  0  0  0  0  0  0  0  0  0  0
   11.2631    9.4275   -4.9342 C   0  0  0  0  0  0  0  0  0  0  0  0
   11.8918    9.3953   -3.6727 C   0  0  0  0  0  0  0  0  0  0  0  0
   12.7352    8.1468   -2.1259 H   0  0  0  0  0  0  0  0  0  0  0  0
   12.2880    6.0257   -3.3468 H   0  0  0  0  0  0  0  0  0  0  0  0
   11.1903    6.0642   -5.5522 H   0  0  0  0  0  0  0  0  0  0  0  0
    9.7795    9.2629   -7.0286 H   0  0  0  0  0  0  0  0  0  0  0  0
   11.6977    8.8742   -8.4651 H   0  0  0  0  0  0  0  0  0  0  0  0
   11.6405    7.1362   -8.1314 H   0  0  0  0  0  0  0  0  0  0  0  0
    9.4466    8.8095   -9.4278 H   0  0  0  0  0  0  0  0  0  0  0  0
   11.8415    8.5273  -11.2208 H   0  0  0  0  0  0  0  0  0  0  0  0
   12.8492    7.7952  -13.8386 H   0  0  0  0  0  0  0  0  0  0  0  0
   12.5262    6.1219  -15.6500 H   0  0  0  0  0  0  0  0  0  0  0  0
   10.7905    4.3570  -15.4156 H   0  0  0  0  0  0  0  0  0  0  0  0
    9.3769    4.2528  -13.3766 H   0  0  0  0  0  0  0  0  0  0  0  0
    7.6516    5.7219  -10.6871 H   0  0  0  0  0  0  0  0  0  0  0  0
    8.7040    4.3221  -10.6628 H   0  0  0  0  0  0  0  0  0  0  0  0
    8.0746    5.0681   -8.3326 H   0  0  0  0  0  0  0  0  0  0  0  0
    9.8047    5.1139   -8.5904 H   0  0  0  0  0  0  0  0  0  0  0  0
    9.2676    6.3207   -6.5698 H   0  0  0  0  0  0  0  0  0  0  0  0
    8.1396    7.6592   -6.6462 H   0  0  0  0  0  0  0  0  0  0  0  0
   10.9771   10.3800   -5.3561 H   0  0  0  0  0  0  0  0  0  0  0  0
   12.0849   10.3125   -3.1351 H   0  0  0  0  0  0  0  0  0  0  0  0
    7.9691    7.3738   -8.7978 H   0  0  0  0  0  0  0  0  0  0  0  0
  2  1  2  0
  3  2  1  0
  4  3  2  0
  5  4  1  0
  6  5  1  0
  7  6  1  0
  8  7  1  0
  9  8  1  0
 10  9  1  0
 11 10  2  0
 12 11  1  0
 13 12  2  0
 14 13  1  0
 15 10  1  0
 15 14  2  0
 16  8  2  0
 16 15  1  0
 17 16  1  0
 18 17  1  0
 19  7  1  0
 19 18  1  0
 20  5  1  0
 20 19  1  0
 21  4  1  0
 22  1  1  0
 22 21  2  0
 23  1  1  0
 24  2  1  0
 25  3  1  0
  5 26  1  6
 27  6  1  0
 28  6  1  0
  7 29  1  6
 30  9  1  0
 31 11  1  0
 32 12  1  0
 33 13  1  0
 34 14  1  0
 35 17  1  0
 36 17  1  0
 37 18  1  0
 38 18  1  0
 39 20  1  0
 40 20  1  0
 41 21  1  0
 42 22  1  0
 19 43  1  6
M  CHG  1  19   1
M  END
>  <b_m_subgroup_collapsed>  (75) 
0

>  <r_i_docking_score>  (75) 
-9.1787317704462907

>  <s_m_subgroup_title>  (75) 
glide-dock_SP_D22_pv

>  <s_m_subgroupid>  (75) 
glide-dock_SP_D22_pv

>  <Molecule ChEMBL ID>  (75) 
CHEMBL201748

>  <Standard Type>  (75) 
Ki

>  <Standard Value>  (75) 
10000.0

>  <label>  (75) 
0

$$$$
CHEMBL5417857
     RDKit          3D

 54 57  0  0  1  0  0  0  0  0999 V2000
    3.7527   -0.8272  -14.2470 C   0  0  0  0  0  0  0  0  0  0  0  0
    4.4803    0.1944  -13.5726 O   0  0  0  0  0  0  0  0  0  0  0  0
    5.6840    0.5761  -14.1235 C   0  0  0  0  0  0  0  0  0  0  0  0
    6.4500   -0.2518  -14.9769 C   0  0  0  0  0  0  0  0  0  0  0  0
    7.6700    0.2081  -15.5111 C   0  0  0  0  0  0  0  0  0  0  0  0
    8.1456    1.4995  -15.2109 C   0  0  0  0  0  0  0  0  0  0  0  0
    7.4079    2.3574  -14.3671 C   0  0  0  0  0  0  0  0  0  0  0  0
    7.5543    3.6937  -13.8719 C   0  0  0  0  0  0  0  0  0  0  0  0
    6.4506    3.9386  -13.0891 C   0  0  0  0  0  0  0  0  0  0  0  0
    5.9885    5.1799  -12.3806 C   0  0  0  0  0  0  0  0  0  0  0  0
    6.9681    5.7722  -11.4474 N   0  0  0  0  0  0  0  0  0  0  0  0
    8.2752    6.1714  -11.9919 C   0  0  0  0  0  0  0  0  0  0  0  0
    8.9527    7.1387  -11.0219 C   0  0  0  0  0  0  0  0  0  0  0  0
   10.4501    7.2951  -11.2712 C   0  0  0  0  0  0  0  0  0  0  0  0
   11.0979    8.1055  -10.1426 C   0  0  0  0  0  0  0  0  0  0  0  0
   11.0124    7.3103   -8.9655 O   0  0  0  0  0  0  0  0  0  0  0  0
   11.1526    7.8968   -7.7282 C   0  0  0  0  0  0  0  0  0  0  0  0
   11.2867    9.2892   -7.5068 C   0  0  0  0  0  0  0  0  0  0  0  0
   11.4497    9.8034   -6.2049 C   0  0  0  0  0  0  0  0  0  0  0  0
   11.5184    8.9218   -5.1125 C   0  0  0  0  0  0  0  0  0  0  0  0
   11.8163    9.3612   -3.7480 C   0  0  0  0  0  0  0  0  0  0  0  0
   12.0881    8.4696   -2.7741 C   0  0  0  0  0  0  0  0  0  0  0  0
   12.0858    7.0283   -3.0338 C   0  0  0  0  0  0  0  0  0  0  0  0
   12.4862    6.1892   -2.2389 O   0  0  0  0  0  0  0  0  0  0  0  0
   11.6342    6.6528   -4.2471 N   0  0  0  0  0  0  0  0  0  0  0  0
   11.4021    7.5350   -5.3278 C   0  0  0  0  0  0  0  0  0  0  0  0
   11.1876    7.0262   -6.6216 C   0  0  0  0  0  0  0  0  0  0  0  0
    5.6158    2.8462  -13.0459 O   0  0  0  0  0  0  0  0  0  0  0  0
    6.1877    1.8637  -13.8377 C   0  0  0  0  0  0  0  0  0  0  0  0
    2.7788   -0.9492  -13.7719 H   0  0  0  0  0  0  0  0  0  0  0  0
    3.5774   -0.5621  -15.2910 H   0  0  0  0  0  0  0  0  0  0  0  0
    4.2600   -1.7924  -14.2081 H   0  0  0  0  0  0  0  0  0  0  0  0
    6.1330   -1.2527  -15.2314 H   0  0  0  0  0  0  0  0  0  0  0  0
    8.2447   -0.4422  -16.1549 H   0  0  0  0  0  0  0  0  0  0  0  0
    9.0826    1.8362  -15.6296 H   0  0  0  0  0  0  0  0  0  0  0  0
    8.3651    4.3613  -14.1195 H   0  0  0  0  0  0  0  0  0  0  0  0
    5.6810    5.9349  -13.1033 H   0  0  0  0  0  0  0  0  0  0  0  0
    5.1105    4.9411  -11.7825 H   0  0  0  0  0  0  0  0  0  0  0  0
    6.5751    6.6343  -11.0274 H   0  0  0  0  0  0  0  0  0  0  0  0
    8.8901    5.2801  -12.1111 H   0  0  0  0  0  0  0  0  0  0  0  0
    8.1604    6.6410  -12.9696 H   0  0  0  0  0  0  0  0  0  0  0  0
    8.4862    8.1218  -11.0721 H   0  0  0  0  0  0  0  0  0  0  0  0
    8.7994    6.7781  -10.0030 H   0  0  0  0  0  0  0  0  0  0  0  0
   10.8861    6.3010  -11.3323 H   0  0  0  0  0  0  0  0  0  0  0  0
   10.6208    7.7740  -12.2349 H   0  0  0  0  0  0  0  0  0  0  0  0
   12.1432    8.3255  -10.3642 H   0  0  0  0  0  0  0  0  0  0  0  0
   10.5600    9.0494  -10.0566 H   0  0  0  0  0  0  0  0  0  0  0  0
   11.2857    9.9843   -8.3282 H   0  0  0  0  0  0  0  0  0  0  0  0
   11.5674   10.8669   -6.0562 H   0  0  0  0  0  0  0  0  0  0  0  0
   11.7794   10.4167   -3.5256 H   0  0  0  0  0  0  0  0  0  0  0  0
   12.2938    8.8219   -1.7741 H   0  0  0  0  0  0  0  0  0  0  0  0
   11.5780    5.6614   -4.4343 H   0  0  0  0  0  0  0  0  0  0  0  0
   11.1166    5.9601   -6.7815 H   0  0  0  0  0  0  0  0  0  0  0  0
    7.1038    5.1271  -10.6807 H   0  0  0  0  0  0  0  0  0  0  0  0
  2  1  1  0
  3  2  1  0
  4  3  1  0
  5  4  2  0
  6  5  1  0
  7  6  2  0
  8  7  1  0
  9  8  2  0
 10  9  1  0
 11 10  1  0
 12 11  1  0
 13 12  1  0
 14 13  1  0
 15 14  1  0
 16 15  1  0
 17 16  1  0
 18 17  2  0
 19 18  1  0
 20 19  2  0
 21 20  1  0
 22 21  2  0
 23 22  1  0
 24 23  2  0
 25 23  1  0
 26 20  1  0
 26 25  1  0
 27 17  1  0
 27 26  2  0
 28  9  1  0
 29  3  2  0
 29  7  1  0
 29 28  1  0
 30  1  1  0
 31  1  1  0
 32  1  1  0
 33  4  1  0
 34  5  1  0
 35  6  1  0
 36  8  1  0
 37 10  1  0
 38 10  1  0
 39 11  1  0
 40 12  1  0
 41 12  1  0
 42 13  1  0
 43 13  1  0
 44 14  1  0
 45 14  1  0
 46 15  1  0
 47 15  1  0
 48 18  1  0
 49 19  1  0
 50 21  1  0
 51 22  1  0
 52 25  1  0
 53 27  1  0
 54 11  1  0
M  CHG  1  11   1
M  END
>  <b_m_subgroup_collapsed>  (76) 
0

>  <r_i_docking_score>  (76) 
-9.1597226465894401

>  <s_m_subgroup_title>  (76) 
glide-dock_SP_D22_pv

>  <s_m_subgroupid>  (76) 
glide-dock_SP_D22_pv

>  <Molecule ChEMBL ID>  (76) 
CHEMBL5417857

>  <Standard Type>  (76) 
Ki

>  <Standard Value>  (76) 
4.01

>  <label>  (76) 
1

$$$$
CHEMBL569322
     RDKit          3D

 71 75  0  0  1  0  0  0  0  0999 V2000
   11.5501    7.5672  -11.3210 C   0  0  0  0  0  0  0  0  0  0  0  0
   10.4643    8.5730  -10.9246 C   0  0  0  0  0  0  0  0  0  0  0  0
    9.1606    8.1182  -10.2491 C   0  0  0  0  0  0  0  0  0  0  0  0
    9.2705    7.1749   -9.0972 N   0  0  1  0  0  0  0  0  0  0  0  0
    9.3707    5.7386   -9.5149 C   0  0  0  0  0  0  0  0  0  0  0  0
    8.2817    5.2659  -10.5334 C   0  0  0  0  0  0  0  0  0  0  0  0
    8.5570    5.5918  -11.9438 N   0  0  0  0  0  0  0  0  0  0  0  0
    9.6677    4.9077  -12.5992 C   0  0  0  0  0  0  0  0  0  0  0  0
    9.3488    3.4636  -12.9572 C   0  0  0  0  0  0  0  0  0  0  0  0
    8.0945    3.3747  -13.6965 N   0  0  0  0  0  0  0  0  0  0  0  0
    7.9689    2.4322  -14.7367 C   0  0  0  0  0  0  0  0  0  0  0  0
    8.8891    2.5412  -15.7256 N   0  0  0  0  0  0  0  0  0  0  0  0
    8.9178    1.7582  -16.8236 C   0  0  0  0  0  0  0  0  0  0  0  0
    7.9460    0.7573  -16.9885 C   0  0  0  0  0  0  0  0  0  0  0  0
    6.9651    0.5811  -15.9919 C   0  0  0  0  0  0  0  0  0  0  0  0
    5.9894   -0.4251  -16.1526 C   0  0  0  0  0  0  0  0  0  0  0  0
    5.0101   -0.6276  -15.1648 C   0  0  0  0  0  0  0  0  0  0  0  0
    5.0161    0.1725  -14.0086 C   0  0  0  0  0  0  0  0  0  0  0  0
    5.9924    1.1749  -13.8399 C   0  0  0  0  0  0  0  0  0  0  0  0
    6.9698    1.4153  -14.8374 C   0  0  0  0  0  0  0  0  0  0  0  0
    6.9631    4.1057  -13.1364 C   0  0  0  0  0  0  0  0  0  0  0  0
    7.3882    5.5529  -12.8204 C   0  0  0  0  0  0  0  0  0  0  0  0
   10.2202    7.6287   -8.0187 C   0  0  1  0  0  0  0  0  0  0  0  0
    9.9864    9.0939   -7.5954 C   0  0  0  0  0  0  0  0  0  0  0  0
   11.1303    9.6206   -6.7254 C   0  0  0  0  0  0  0  0  0  0  0  0
   11.4449    8.6996   -5.5717 C   0  0  0  0  0  0  0  0  0  0  0  0
   12.2126    9.1858   -4.4959 C   0  0  0  0  0  0  0  0  0  0  0  0
   12.4860    8.3898   -3.3736 C   0  0  0  0  0  0  0  0  0  0  0  0
   12.0153    7.0717   -3.3407 C   0  0  0  0  0  0  0  0  0  0  0  0
   12.2606    6.2956   -2.2469 O   0  0  0  0  0  0  0  0  0  0  0  0
   11.2860    6.5723   -4.4368 C   0  0  0  0  0  0  0  0  0  0  0  0
   10.9929    7.3623   -5.5640 C   0  0  0  0  0  0  0  0  0  0  0  0
   10.1903    6.7675   -6.7291 C   0  0  0  0  0  0  0  0  0  0  0  0
   12.4180    8.0989  -11.7122 H   0  0  0  0  0  0  0  0  0  0  0  0
   11.9064    6.9724  -10.4836 H   0  0  0  0  0  0  0  0  0  0  0  0
   11.2155    6.9144  -12.1185 H   0  0  0  0  0  0  0  0  0  0  0  0
   10.0860    9.0068  -11.8467 H   0  0  0  0  0  0  0  0  0  0  0  0
   10.9319    9.3721  -10.3502 H   0  0  0  0  0  0  0  0  0  0  0  0
    8.4862    7.7755  -11.0173 H   0  0  0  0  0  0  0  0  0  0  0  0
    8.6187    9.0010   -9.9115 H   0  0  0  0  0  0  0  0  0  0  0  0
   10.3758    5.4978   -9.8469 H   0  0  0  0  0  0  0  0  0  0  0  0
    9.2168    5.1366   -8.6207 H   0  0  0  0  0  0  0  0  0  0  0  0
    8.1300    4.1917  -10.4381 H   0  0  0  0  0  0  0  0  0  0  0  0
    7.3338    5.7274  -10.2496 H   0  0  0  0  0  0  0  0  0  0  0  0
    9.9731    5.4622  -13.4876 H   0  0  0  0  0  0  0  0  0  0  0  0
   10.4863    4.8986  -11.9041 H   0  0  0  0  0  0  0  0  0  0  0  0
   10.1775    3.0062  -13.4979 H   0  0  0  0  0  0  0  0  0  0  0  0
    9.2860    2.9706  -11.9998 H   0  0  0  0  0  0  0  0  0  0  0  0
    9.7073    1.9584  -17.5359 H   0  0  0  0  0  0  0  0  0  0  0  0
    7.9613    0.1280  -17.8678 H   0  0  0  0  0  0  0  0  0  0  0  0
    5.9896   -1.0587  -17.0285 H   0  0  0  0  0  0  0  0  0  0  0  0
    4.2618   -1.3978  -15.2936 H   0  0  0  0  0  0  0  0  0  0  0  0
    4.2596    0.0269  -13.2534 H   0  0  0  0  0  0  0  0  0  0  0  0
    5.9641    1.7424  -12.9267 H   0  0  0  0  0  0  0  0  0  0  0  0
    6.1288    4.1071  -13.8392 H   0  0  0  0  0  0  0  0  0  0  0  0
    6.6213    3.6245  -12.2206 H   0  0  0  0  0  0  0  0  0  0  0  0
    6.5640    6.1233  -12.3870 H   0  0  0  0  0  0  0  0  0  0  0  0
    7.6860    6.0571  -13.7404 H   0  0  0  0  0  0  0  0  0  0  0  0
   11.2297    7.5645   -8.4240 H   0  0  0  0  0  0  0  0  0  0  0  0
    9.9001    9.7723   -8.4345 H   0  0  0  0  0  0  0  0  0  0  0  0
    9.0421    9.1553   -7.0528 H   0  0  0  0  0  0  0  0  0  0  0  0
   10.8868   10.6126   -6.3419 H   0  0  0  0  0  0  0  0  0  0  0  0
   12.0351    9.7247   -7.3249 H   0  0  0  0  0  0  0  0  0  0  0  0
   12.6169   10.1723   -4.5321 H   0  0  0  0  0  0  0  0  0  0  0  0
   13.0575    8.7888   -2.5482 H   0  0  0  0  0  0  0  0  0  0  0  0
   11.8177    5.4576   -2.2637 H   0  0  0  0  0  0  0  0  0  0  0  0
   10.9060    5.5699   -4.4052 H   0  0  0  0  0  0  0  0  0  0  0  0
   10.5872    5.7736   -6.9363 H   0  0  0  0  0  0  0  0  0  0  0  0
    9.1613    6.6367   -6.3903 H   0  0  0  0  0  0  0  0  0  0  0  0
    8.3437    7.2316   -8.6874 H   0  0  0  0  0  0  0  0  0  0  0  0
    9.5997    3.2687  -15.6393 H   0  0  0  0  0  0  0  0  0  0  0  0
  2  1  1  0
  3  2  1  0
  4  3  1  0
  5  4  1  0
  6  5  1  0
  7  6  1  0
  8  7  1  0
  9  8  1  0
 10  9  1  0
 11 10  1  0
 12 11  2  0
 13 12  1  0
 14 13  2  0
 15 14  1  0
 16 15  2  0
 17 16  1  0
 18 17  2  0
 19 18  1  0
 20 11  1  0
 20 15  1  0
 20 19  2  0
 21 10  1  0
 22  7  1  0
 22 21  1  0
 23  4  1  0
 24 23  1  0
 25 24  1  0
 26 25  1  0
 27 26  1  0
 28 27  2  0
 29 28  1  0
 30 29  1  0
 31 29  2  0
 32 26  2  0
 32 31  1  0
 33 23  1  0
 33 32  1  0
 34  1  1  0
 35  1  1  0
 36  1  1  0
 37  2  1  0
 38  2  1  0
 39  3  1  0
 40  3  1  0
 41  5  1  0
 42  5  1  0
 43  6  1  0
 44  6  1  0
 45  8  1  0
 46  8  1  0
 47  9  1  0
 48  9  1  0
 49 13  1  0
 50 14  1  0
 51 16  1  0
 52 17  1  0
 53 18  1  0
 54 19  1  0
 55 21  1  0
 56 21  1  0
 57 22  1  0
 58 22  1  0
 23 59  1  6
 60 24  1  0
 61 24  1  0
 62 25  1  0
 63 25  1  0
 64 27  1  0
 65 28  1  0
 66 30  1  0
 67 31  1  0
 68 33  1  0
 69 33  1  0
  4 70  1  1
 71 12  1  0
M  CHG  2   4   1  12   1
M  END
>  <b_m_subgroup_collapsed>  (77) 
0

>  <r_i_docking_score>  (77) 
-9.1439065580833905

>  <s_m_subgroup_title>  (77) 
glide-dock_SP_D22_pv

>  <s_m_subgroupid>  (77) 
glide-dock_SP_D22_pv

>  <Molecule ChEMBL ID>  (77) 
CHEMBL569322

>  <Standard Type>  (77) 
Ki

>  <Standard Value>  (77) 
21.7

>  <label>  (77) 
1

$$$$
CHEMBL457890
     RDKit          3D

 73 76  0  0  1  0  0  0  0  0999 V2000
   12.4322    5.1600  -13.9320 C   0  0  0  0  0  0  0  0  0  0  0  0
   11.0864    4.7235  -14.0672 O   0  0  0  0  0  0  0  0  0  0  0  0
   10.8236    3.7192  -14.9741 C   0  0  0  0  0  0  0  0  0  0  0  0
   11.7883    3.1478  -15.8409 C   0  0  0  0  0  0  0  0  0  0  0  0
   11.4372    2.0949  -16.7099 C   0  0  0  0  0  0  0  0  0  0  0  0
   10.1199    1.6057  -16.7307 C   0  0  0  0  0  0  0  0  0  0  0  0
    9.1449    2.1796  -15.8925 C   0  0  0  0  0  0  0  0  0  0  0  0
    7.7189    1.6703  -15.9150 C   0  0  0  0  0  0  0  0  0  0  0  0
    7.5517    0.3606  -15.1261 C   0  0  0  0  0  0  0  0  0  0  0  0
    6.0958   -0.0674  -15.0499 C   0  0  0  0  0  0  0  0  0  0  0  0
    5.6076   -1.0573  -15.9282 C   0  0  0  0  0  0  0  0  0  0  0  0
    4.2514   -1.4253  -15.9016 C   0  0  0  0  0  0  0  0  0  0  0  0
    3.3799   -0.7942  -14.9987 C   0  0  0  0  0  0  0  0  0  0  0  0
    3.8641    0.1720  -14.1037 C   0  0  0  0  0  0  0  0  0  0  0  0
    5.2247    0.5661  -14.1345 C   0  0  0  0  0  0  0  0  0  0  0  0
    5.7560    1.5829  -13.3694 O   0  0  0  0  0  0  0  0  0  0  0  0
    4.9086    2.4734  -12.6540 C   0  0  0  0  0  0  0  0  0  0  0  0
    5.5383    3.8750  -12.6876 C   0  0  0  0  0  0  0  0  0  0  0  0
    6.8875    3.9006  -11.9758 C   0  0  0  0  0  0  0  0  0  0  0  0
    7.3959    5.2823  -11.5681 C   0  0  0  0  0  0  0  0  0  0  0  0
    8.6358    5.1430  -10.6655 C   0  0  0  0  0  0  0  0  0  0  0  0
    8.7407    6.2055   -9.6294 N   0  0  0  0  0  0  0  0  0  0  0  0
    8.6556    5.6468   -8.2473 C   0  0  0  0  0  0  0  0  0  0  0  0
    8.9022    6.6842   -7.1352 C   0  0  0  0  0  0  0  0  0  0  0  0
   10.1279    7.4229   -7.4049 N   0  0  0  0  0  0  0  0  0  0  0  0
   10.8892    7.9210   -6.3236 C   0  0  0  0  0  0  0  0  0  0  0  0
   11.5148    9.1874   -6.3979 C   0  0  0  0  0  0  0  0  0  0  0  0
   12.3101    9.6532   -5.3414 C   0  0  0  0  0  0  0  0  0  0  0  0
   12.4582    8.9070   -4.1639 C   0  0  0  0  0  0  0  0  0  0  0  0
   11.8519    7.6475   -4.0717 C   0  0  0  0  0  0  0  0  0  0  0  0
   12.0857    6.7038   -2.6474 Cl  0  0  0  0  0  0  0  0  0  0  0  0
   11.0843    7.1532   -5.1459 C   0  0  0  0  0  0  0  0  0  0  0  0
   10.1670    8.0746   -8.7135 C   0  0  0  0  0  0  0  0  0  0  0  0
    9.9452    7.0497   -9.8356 C   0  0  0  0  0  0  0  0  0  0  0  0
    9.5017    3.2342  -15.0272 C   0  0  0  0  0  0  0  0  0  0  0  0
   12.4856    5.9240  -13.1558 H   0  0  0  0  0  0  0  0  0  0  0  0
   13.0883    4.3425  -13.6335 H   0  0  0  0  0  0  0  0  0  0  0  0
   12.8026    5.6052  -14.8575 H   0  0  0  0  0  0  0  0  0  0  0  0
   12.8121    3.4878  -15.8484 H   0  0  0  0  0  0  0  0  0  0  0  0
   12.1867    1.6564  -17.3521 H   0  0  0  0  0  0  0  0  0  0  0  0
    9.8572    0.7933  -17.3926 H   0  0  0  0  0  0  0  0  0  0  0  0
    7.4045    1.5228  -16.9503 H   0  0  0  0  0  0  0  0  0  0  0  0
    7.0621    2.4400  -15.5045 H   0  0  0  0  0  0  0  0  0  0  0  0
    7.9400    0.4793  -14.1125 H   0  0  0  0  0  0  0  0  0  0  0  0
    8.1469   -0.4309  -15.5849 H   0  0  0  0  0  0  0  0  0  0  0  0
    6.2729   -1.5341  -16.6330 H   0  0  0  0  0  0  0  0  0  0  0  0
    3.8737   -2.1792  -16.5790 H   0  0  0  0  0  0  0  0  0  0  0  0
    2.3275   -1.0273  -14.9949 H   0  0  0  0  0  0  0  0  0  0  0  0
    3.1461    0.6287  -13.4471 H   0  0  0  0  0  0  0  0  0  0  0  0
    3.8995    2.5530  -13.0438 H   0  0  0  0  0  0  0  0  0  0  0  0
    4.8230    2.1117  -11.6319 H   0  0  0  0  0  0  0  0  0  0  0  0
    5.6377    4.2316  -13.7130 H   0  0  0  0  0  0  0  0  0  0  0  0
    4.8866    4.5701  -12.1699 H   0  0  0  0  0  0  0  0  0  0  0  0
    6.7517    3.3579  -11.0469 H   0  0  0  0  0  0  0  0  0  0  0  0
    7.6312    3.3748  -12.5704 H   0  0  0  0  0  0  0  0  0  0  0  0
    7.6153    5.8990  -12.4387 H   0  0  0  0  0  0  0  0  0  0  0  0
    6.5825    5.7723  -11.0435 H   0  0  0  0  0  0  0  0  0  0  0  0
    8.6234    4.1736  -10.1682 H   0  0  0  0  0  0  0  0  0  0  0  0
    9.5255    5.1041  -11.2967 H   0  0  0  0  0  0  0  0  0  0  0  0
    7.6862    5.1791   -8.0963 H   0  0  0  0  0  0  0  0  0  0  0  0
    9.3990    4.8560   -8.1415 H   0  0  0  0  0  0  0  0  0  0  0  0
    8.0856    7.4006   -7.0486 H   0  0  0  0  0  0  0  0  0  0  0  0
    8.9234    6.1726   -6.1765 H   0  0  0  0  0  0  0  0  0  0  0  0
   11.4170    9.8208   -7.2653 H   0  0  0  0  0  0  0  0  0  0  0  0
   12.8365   10.5773   -5.4488 H   0  0  0  0  0  0  0  0  0  0  0  0
   13.0530    9.2892   -3.3483 H   0  0  0  0  0  0  0  0  0  0  0  0
   10.6586    6.1688   -5.0464 H   0  0  0  0  0  0  0  0  0  0  0  0
    9.4018    8.8525   -8.7521 H   0  0  0  0  0  0  0  0  0  0  0  0
   11.1285    8.5510   -8.8984 H   0  0  0  0  0  0  0  0  0  0  0  0
   10.8251    6.4067   -9.8855 H   0  0  0  0  0  0  0  0  0  0  0  0
    9.8696    7.5588  -10.7972 H   0  0  0  0  0  0  0  0  0  0  0  0
    8.7580    3.6829  -14.3907 H   0  0  0  0  0  0  0  0  0  0  0  0
    7.9278    6.8130   -9.7435 H   0  0  0  0  0  0  0  0  0  0  0  0
  2  1  1  0
  3  2  1  0
  4  3  1  0
  5  4  2  0
  6  5  1  0
  7  6  2  0
  8  7  1  0
  9  8  1  0
 10  9  1  0
 11 10  2  0
 12 11  1  0
 13 12  2  0
 14 13  1  0
 15 10  1  0
 15 14  2  0
 16 15  1  0
 17 16  1  0
 18 17  1  0
 19 18  1  0
 20 19  1  0
 21 20  1  0
 22 21  1  0
 23 22  1  0
 24 23  1  0
 25 24  1  0
 26 25  1  0
 27 26  2  0
 28 27  1  0
 29 28  2  0
 30 29  1  0
 31 30  1  0
 32 26  1  0
 32 30  2  0
 33 25  1  0
 34 22  1  0
 34 33  1  0
 35  3  2  0
 35  7  1  0
 36  1  1  0
 37  1  1  0
 38  1  1  0
 39  4  1  0
 40  5  1  0
 41  6  1  0
 42  8  1  0
 43  8  1  0
 44  9  1  0
 45  9  1  0
 46 11  1  0
 47 12  1  0
 48 13  1  0
 49 14  1  0
 50 17  1  0
 51 17  1  0
 52 18  1  0
 53 18  1  0
 54 19  1  0
 55 19  1  0
 56 20  1  0
 57 20  1  0
 58 21  1  0
 59 21  1  0
 60 23  1  0
 61 23  1  0
 62 24  1  0
 63 24  1  0
 64 27  1  0
 65 28  1  0
 66 29  1  0
 67 32  1  0
 68 33  1  0
 69 33  1  0
 70 34  1  0
 71 34  1  0
 72 35  1  0
 73 22  1  0
M  CHG  1  22   1
M  END
>  <b_m_subgroup_collapsed>  (78) 
0

>  <r_i_docking_score>  (78) 
-9.1427932033560193

>  <s_m_subgroup_title>  (78) 
glide-dock_SP_D22_pv

>  <s_m_subgroupid>  (78) 
glide-dock_SP_D22_pv

>  <Molecule ChEMBL ID>  (78) 
CHEMBL457890

>  <Standard Type>  (78) 
Ki

>  <Standard Value>  (78) 
1000000.0

>  <label>  (78) 
0

$$$$
CHEMBL221600
     RDKit          3D

 48 51  0  0  1  0  0  0  0  0999 V2000
   11.6865    3.7726  -14.8265 C   0  0  0  0  0  0  0  0  0  0  0  0
   12.0676    4.9241  -14.1169 C   0  0  0  0  0  0  0  0  0  0  0  0
   11.0983    5.6969  -13.4470 C   0  0  0  0  0  0  0  0  0  0  0  0
    9.7315    5.3262  -13.4784 C   0  0  0  0  0  0  0  0  0  0  0  0
    8.6311    6.1724  -12.8242 C   0  0  1  0  0  0  0  0  0  0  0  0
    7.6590    5.3549  -11.9616 C   0  0  0  0  0  0  0  0  0  0  0  0
    8.3481    4.9416  -10.6630 C   0  0  0  0  0  0  0  0  0  0  0  0
    8.7446    6.1283   -9.8677 N   0  0  1  0  0  0  0  0  0  0  0  0
    9.2148    5.6854   -8.5353 C   0  0  0  0  0  0  0  0  0  0  0  0
    9.7146    6.7745   -7.6339 C   0  0  0  0  0  0  0  0  0  0  0  0
    9.2768    8.1205   -7.4897 C   0  0  0  0  0  0  0  0  0  0  0  0
    9.9020    8.7511   -6.5151 N   0  0  0  0  0  0  0  0  0  0  0  0
   10.7102    7.8223   -5.9575 N   0  0  0  0  0  0  0  0  0  0  0  0
   11.3780    8.0789   -4.7388 C   0  0  0  0  0  0  0  0  0  0  0  0
   11.5393    9.4032   -4.2777 C   0  0  0  0  0  0  0  0  0  0  0  0
   12.0758    9.6424   -3.0021 C   0  0  0  0  0  0  0  0  0  0  0  0
   12.4859    8.5695   -2.1888 C   0  0  0  0  0  0  0  0  0  0  0  0
   12.3490    7.2488   -2.6519 C   0  0  0  0  0  0  0  0  0  0  0  0
   11.7913    7.0026   -3.9193 C   0  0  0  0  0  0  0  0  0  0  0  0
   10.6742    6.6480   -6.6743 C   0  0  0  0  0  0  0  0  0  0  0  0
    9.7005    6.9777  -10.6236 C   0  0  0  0  0  0  0  0  0  0  0  0
    9.1096    7.3851  -11.9865 C   0  0  0  0  0  0  0  0  0  0  0  0
    9.3646    4.1705  -14.2096 C   0  0  0  0  0  0  0  0  0  0  0  0
   10.3341    3.3932  -14.8699 C   0  0  0  0  0  0  0  0  0  0  0  0
   12.4301    3.1822  -15.3415 H   0  0  0  0  0  0  0  0  0  0  0  0
   13.1059    5.2193  -14.0918 H   0  0  0  0  0  0  0  0  0  0  0  0
   11.4329    6.5831  -12.9306 H   0  0  0  0  0  0  0  0  0  0  0  0
    8.0681    6.5701  -13.6651 H   0  0  0  0  0  0  0  0  0  0  0  0
    6.7805    5.9584  -11.7259 H   0  0  0  0  0  0  0  0  0  0  0  0
    7.2756    4.4786  -12.4824 H   0  0  0  0  0  0  0  0  0  0  0  0
    9.2263    4.3310  -10.8809 H   0  0  0  0  0  0  0  0  0  0  0  0
    7.6862    4.3045  -10.0816 H   0  0  0  0  0  0  0  0  0  0  0  0
    9.9999    4.9410   -8.6801 H   0  0  0  0  0  0  0  0  0  0  0  0
    8.3955    5.1564   -8.0461 H   0  0  0  0  0  0  0  0  0  0  0  0
    8.5122    8.6464   -8.0438 H   0  0  0  0  0  0  0  0  0  0  0  0
   11.2176   10.2418   -4.8786 H   0  0  0  0  0  0  0  0  0  0  0  0
   12.1539   10.6577   -2.6461 H   0  0  0  0  0  0  0  0  0  0  0  0
   12.8961    8.7627   -1.2081 H   0  0  0  0  0  0  0  0  0  0  0  0
   12.6497    6.4183   -2.0283 H   0  0  0  0  0  0  0  0  0  0  0  0
   11.6581    5.9770   -4.2316 H   0  0  0  0  0  0  0  0  0  0  0  0
   11.2687    5.7909   -6.4001 H   0  0  0  0  0  0  0  0  0  0  0  0
    9.9354    7.8851  -10.0699 H   0  0  0  0  0  0  0  0  0  0  0  0
   10.6403    6.4431  -10.7490 H   0  0  0  0  0  0  0  0  0  0  0  0
    8.2475    8.0299  -11.8023 H   0  0  0  0  0  0  0  0  0  0  0  0
    9.8081    8.0113  -12.5413 H   0  0  0  0  0  0  0  0  0  0  0  0
    8.3287    3.8738  -14.2867 H   0  0  0  0  0  0  0  0  0  0  0  0
   10.0414    2.5116  -15.4217 H   0  0  0  0  0  0  0  0  0  0  0  0
    7.9011    6.6863   -9.7371 H   0  0  0  0  0  0  0  0  0  0  0  0
  2  1  2  0
  3  2  1  0
  4  3  2  0
  5  4  1  0
  6  5  1  0
  7  6  1  0
  8  7  1  0
  9  8  1  0
 10  9  1  0
 11 10  1  0
 12 11  2  0
 13 12  1  0
 14 13  1  0
 15 14  2  0
 16 15  1  0
 17 16  2  0
 18 17  1  0
 19 14  1  0
 19 18  2  0
 20 10  2  0
 20 13  1  0
 21  8  1  0
 22  5  1  0
 22 21  1  0
 23  4  1  0
 24  1  1  0
 24 23  2  0
 25  1  1  0
 26  2  1  0
 27  3  1  0
  5 28  1  6
 29  6  1  0
 30  6  1  0
 31  7  1  0
 32  7  1  0
 33  9  1  0
 34  9  1  0
 35 11  1  0
 36 15  1  0
 37 16  1  0
 38 17  1  0
 39 18  1  0
 40 19  1  0
 41 20  1  0
 42 21  1  0
 43 21  1  0
 44 22  1  0
 45 22  1  0
 46 23  1  0
 47 24  1  0
  8 48  1  1
M  CHG  1   8   1
M  END
>  <b_m_subgroup_collapsed>  (79) 
0

>  <r_i_docking_score>  (79) 
-9.1199210455597193

>  <s_m_subgroup_title>  (79) 
glide-dock_SP_D22_pv

>  <s_m_subgroupid>  (79) 
glide-dock_SP_D22_pv

>  <Molecule ChEMBL ID>  (79) 
CHEMBL221600

>  <Standard Type>  (79) 
Ki

>  <Standard Value>  (79) 
38.02

>  <label>  (79) 
1

$$$$
CHEMBL3588996
     RDKit          3D

 66 70  0  0  1  0  0  0  0  0999 V2000
   12.4547    4.5306  -13.8470 O   0  0  0  0  0  0  0  0  0  0  0  0
   11.3869    4.1764  -14.6989 C   0  0  2  0  0  0  0  0  0  0  0  0
   10.3717    5.3437  -14.7737 C   0  0  0  0  0  0  0  0  0  0  0  0
    9.4474    5.5730  -13.5412 C   0  0  0  0  0  0  0  0  0  0  0  0
   10.0532    6.2465  -12.4068 N   0  0  0  0  0  0  0  0  0  0  0  0
    9.5666    6.3243  -11.1181 C   0  0  0  0  0  0  0  0  0  0  0  0
   10.4861    7.0916  -10.4611 C   0  0  0  0  0  0  0  0  0  0  0  0
   10.6029    7.4507   -9.0500 C   0  0  0  0  0  0  0  0  0  0  0  0
    9.8883    6.7341   -8.0673 C   0  0  0  0  0  0  0  0  0  0  0  0
   10.1296    6.9739   -6.7003 C   0  0  0  0  0  0  0  0  0  0  0  0
   11.0756    7.9414   -6.2964 C   0  0  0  0  0  0  0  0  0  0  0  0
   11.4595    8.0987   -4.8855 C   0  0  0  0  0  0  0  0  0  0  0  0
   11.6860    6.9645   -4.0761 C   0  0  0  0  0  0  0  0  0  0  0  0
   12.0864    7.0974   -2.7336 C   0  0  0  0  0  0  0  0  0  0  0  0
   12.2832    8.3807   -2.1913 C   0  0  0  0  0  0  0  0  0  0  0  0
   12.0660    9.5178   -2.9886 C   0  0  0  0  0  0  0  0  0  0  0  0
   11.6579    9.3763   -4.3259 C   0  0  0  0  0  0  0  0  0  0  0  0
   11.7102    8.7204   -7.2848 C   0  0  0  0  0  0  0  0  0  0  0  0
   11.4861    8.4733   -8.6480 C   0  0  0  0  0  0  0  0  0  0  0  0
   11.4583    7.4752  -11.3887 N   0  0  0  0  0  0  0  0  0  0  0  0
   11.1819    6.9773  -12.5466 N   0  0  0  0  0  0  0  0  0  0  0  0
   10.8362    2.8006  -14.2408 C   0  0  0  0  0  0  0  0  0  0  0  0
    9.9392    2.1665  -15.2428 N   0  0  0  0  0  0  0  0  0  0  0  0
   10.0620    0.6781  -15.2917 C   0  0  0  0  0  0  0  0  0  0  0  0
    9.1617    0.0592  -16.3873 C   0  0  0  0  0  0  0  0  0  0  0  0
    7.8201    0.6154  -16.2950 N   0  0  0  0  0  0  0  0  0  0  0  0
    6.6562   -0.1588  -16.3796 C   0  0  0  0  0  0  0  0  0  0  0  0
    6.3569   -0.8522  -17.5722 C   0  0  0  0  0  0  0  0  0  0  0  0
    5.1153   -1.5035  -17.7204 C   0  0  0  0  0  0  0  0  0  0  0  0
    4.1616   -1.4428  -16.6866 C   0  0  0  0  0  0  0  0  0  0  0  0
    4.4661   -0.7730  -15.4892 C   0  0  0  0  0  0  0  0  0  0  0  0
    3.2851   -0.6310  -14.2461 Cl  0  0  0  0  0  0  0  0  0  0  0  0
    5.7229   -0.1681  -15.3124 C   0  0  0  0  0  0  0  0  0  0  0  0
    6.0852    0.5699  -13.7867 Cl  0  0  0  0  0  0  0  0  0  0  0  0
    7.6667    2.0544  -16.2262 C   0  0  0  0  0  0  0  0  0  0  0  0
    8.5241    2.5893  -15.0832 C   0  0  0  0  0  0  0  0  0  0  0  0
   12.8264    5.3566  -14.1239 H   0  0  0  0  0  0  0  0  0  0  0  0
   11.8335    4.0562  -15.6872 H   0  0  0  0  0  0  0  0  0  0  0  0
   10.8922    6.2615  -15.0318 H   0  0  0  0  0  0  0  0  0  0  0  0
    9.7425    5.1842  -15.6464 H   0  0  0  0  0  0  0  0  0  0  0  0
    8.5872    6.1695  -13.8434 H   0  0  0  0  0  0  0  0  0  0  0  0
    9.0290    4.6388  -13.1714 H   0  0  0  0  0  0  0  0  0  0  0  0
    8.6554    5.8470  -10.7846 H   0  0  0  0  0  0  0  0  0  0  0  0
    9.1901    5.9603   -8.3516 H   0  0  0  0  0  0  0  0  0  0  0  0
    9.6072    6.3836   -5.9626 H   0  0  0  0  0  0  0  0  0  0  0  0
   11.5533    5.9725   -4.4862 H   0  0  0  0  0  0  0  0  0  0  0  0
   12.2442    6.2175   -2.1276 H   0  0  0  0  0  0  0  0  0  0  0  0
   12.5877    8.4950   -1.1610 H   0  0  0  0  0  0  0  0  0  0  0  0
   12.1945   10.5064   -2.5747 H   0  0  0  0  0  0  0  0  0  0  0  0
   11.4932   10.2636   -4.9215 H   0  0  0  0  0  0  0  0  0  0  0  0
   12.4374    9.4690   -7.0044 H   0  0  0  0  0  0  0  0  0  0  0  0
   12.0372    9.0436   -9.3816 H   0  0  0  0  0  0  0  0  0  0  0  0
   11.6859    2.1400  -14.0965 H   0  0  0  0  0  0  0  0  0  0  0  0
   10.3582    2.8496  -13.2609 H   0  0  0  0  0  0  0  0  0  0  0  0
   11.0997    0.3884  -15.4721 H   0  0  0  0  0  0  0  0  0  0  0  0
    9.7850    0.2714  -14.3164 H   0  0  0  0  0  0  0  0  0  0  0  0
    9.5608    0.2822  -17.3777 H   0  0  0  0  0  0  0  0  0  0  0  0
    9.1452   -1.0273  -16.2949 H   0  0  0  0  0  0  0  0  0  0  0  0
    7.0642   -0.8611  -18.3888 H   0  0  0  0  0  0  0  0  0  0  0  0
    4.8824   -2.0285  -18.6351 H   0  0  0  0  0  0  0  0  0  0  0  0
    3.2007   -1.9229  -16.8087 H   0  0  0  0  0  0  0  0  0  0  0  0
    7.9808    2.4912  -17.1753 H   0  0  0  0  0  0  0  0  0  0  0  0
    6.6225    2.3375  -16.0813 H   0  0  0  0  0  0  0  0  0  0  0  0
    8.1620    2.2322  -14.1198 H   0  0  0  0  0  0  0  0  0  0  0  0
    8.4034    3.6614  -15.0627 H   0  0  0  0  0  0  0  0  0  0  0  0
   10.2431    2.4910  -16.1496 H   0  0  0  0  0  0  0  0  0  0  0  0
  2  1  1  0
  3  2  1  0
  4  3  1  0
  5  4  1  0
  6  5  1  0
  7  6  2  0
  8  7  1  0
  9  8  1  0
 10  9  2  0
 11 10  1  0
 12 11  1  0
 13 12  2  0
 14 13  1  0
 15 14  2  0
 16 15  1  0
 17 12  1  0
 17 16  2  0
 18 11  2  0
 19  8  2  0
 19 18  1  0
 20  7  1  0
 21  5  1  0
 21 20  2  0
 22  2  1  0
 23 22  1  0
 24 23  1  0
 25 24  1  0
 26 25  1  0
 27 26  1  0
 28 27  2  0
 29 28  1  0
 30 29  2  0
 31 30  1  0
 32 31  1  0
 33 27  1  0
 33 31  2  0
 34 33  1  0
 35 26  1  0
 36 23  1  0
 36 35  1  0
 37  1  1  0
  2 38  1  6
 39  3  1  0
 40  3  1  0
 41  4  1  0
 42  4  1  0
 43  6  1  0
 44  9  1  0
 45 10  1  0
 46 13  1  0
 47 14  1  0
 48 15  1  0
 49 16  1  0
 50 17  1  0
 51 18  1  0
 52 19  1  0
 53 22  1  0
 54 22  1  0
 55 24  1  0
 56 24  1  0
 57 25  1  0
 58 25  1  0
 59 28  1  0
 60 29  1  0
 61 30  1  0
 62 35  1  0
 63 35  1  0
 64 36  1  0
 65 36  1  0
 66 23  1  0
M  CHG  1  23   1
M  END
>  <b_m_subgroup_collapsed>  (80) 
0

>  <r_i_docking_score>  (80) 
-9.1150942784097104

>  <s_m_subgroup_title>  (80) 
glide-dock_SP_D22_pv

>  <s_m_subgroupid>  (80) 
glide-dock_SP_D22_pv

>  <Molecule ChEMBL ID>  (80) 
CHEMBL3588996

>  <Standard Type>  (80) 
Ki

>  <Standard Value>  (80) 
15100.0

>  <label>  (80) 
0

$$$$
CHEMBL3819153
     RDKit          3D

 56 60  0  0  1  0  0  0  0  0999 V2000
   11.4806    6.5438  -13.0473 O   0  0  0  0  0  0  0  0  0  0  0  0
   10.9316    5.5187  -13.4468 C   0  0  0  0  0  0  0  0  0  0  0  0
   11.5910    4.5226  -14.0562 N   0  0  0  0  0  0  0  0  0  0  0  0
   10.7012    3.5328  -14.4420 C   0  0  0  0  0  0  0  0  0  0  0  0
   10.9294    2.3332  -15.1306 C   0  0  0  0  0  0  0  0  0  0  0  0
    9.8077    1.5260  -15.4132 C   0  0  0  0  0  0  0  0  0  0  0  0
   10.0327    0.0240  -16.2278 Cl  0  0  0  0  0  0  0  0  0  0  0  0
    8.5076    1.9518  -15.0430 C   0  0  0  0  0  0  0  0  0  0  0  0
    8.3084    3.1798  -14.3654 C   0  0  0  0  0  0  0  0  0  0  0  0
    9.4471    3.9486  -14.0433 C   0  0  0  0  0  0  0  0  0  0  0  0
    9.6092    5.1848  -13.3655 N   0  0  0  0  0  0  0  0  0  0  0  0
    8.4853    5.9500  -12.7568 C   0  0  1  0  0  0  0  0  0  0  0  0
    7.6227    5.1261  -11.7732 C   0  0  0  0  0  0  0  0  0  0  0  0
    8.3388    4.8866  -10.4442 C   0  0  0  0  0  0  0  0  0  0  0  0
    8.6780    6.1632   -9.7672 N   0  0  1  0  0  0  0  0  0  0  0  0
    9.2904    5.9068   -8.4348 C   0  0  0  0  0  0  0  0  0  0  0  0
    8.7339    6.8007   -7.3151 C   0  0  0  0  0  0  0  0  0  0  0  0
    8.9290    8.3157   -7.5357 C   0  0  0  0  0  0  0  0  0  0  0  0
   10.3988    8.7598   -7.5813 C   0  0  0  0  0  0  0  0  0  0  0  0
   11.0225    8.7132   -6.2388 C   0  0  0  0  0  0  0  0  0  0  0  0
   11.2272    9.7521   -5.4164 N   0  0  0  0  0  0  0  0  0  0  0  0
   11.6829    9.1372   -4.2670 C   0  0  0  0  0  0  0  0  0  0  0  0
   12.0848    9.6289   -3.0111 C   0  0  0  0  0  0  0  0  0  0  0  0
   12.4861    8.7346   -1.9989 C   0  0  0  0  0  0  0  0  0  0  0  0
   12.4854    7.3429   -2.2272 C   0  0  0  0  0  0  0  0  0  0  0  0
   12.0831    6.8325   -3.4680 C   0  0  0  0  0  0  0  0  0  0  0  0
   11.6955    7.7395   -4.4563 C   0  0  0  0  0  0  0  0  0  0  0  0
   11.2884    7.4725   -5.7382 O   0  0  0  0  0  0  0  0  0  0  0  0
    9.5160    7.0213  -10.6463 C   0  0  0  0  0  0  0  0  0  0  0  0
    8.8561    7.2626  -12.0206 C   0  0  0  0  0  0  0  0  0  0  0  0
   12.5793    4.5089  -14.2605 H   0  0  0  0  0  0  0  0  0  0  0  0
   11.9234    2.0381  -15.4330 H   0  0  0  0  0  0  0  0  0  0  0  0
    7.6567    1.3346  -15.2895 H   0  0  0  0  0  0  0  0  0  0  0  0
    7.3058    3.5023  -14.1333 H   0  0  0  0  0  0  0  0  0  0  0  0
    7.8513    6.2227  -13.5963 H   0  0  0  0  0  0  0  0  0  0  0  0
    6.6961    5.6676  -11.5754 H   0  0  0  0  0  0  0  0  0  0  0  0
    7.3048    4.1676  -12.1659 H   0  0  0  0  0  0  0  0  0  0  0  0
    9.2500    4.3045  -10.6111 H   0  0  0  0  0  0  0  0  0  0  0  0
    7.6925    4.2823   -9.8084 H   0  0  0  0  0  0  0  0  0  0  0  0
   10.3765    5.9738   -8.4895 H   0  0  0  0  0  0  0  0  0  0  0  0
    9.0965    4.8773   -8.1292 H   0  0  0  0  0  0  0  0  0  0  0  0
    9.1832    6.4983   -6.3732 H   0  0  0  0  0  0  0  0  0  0  0  0
    7.6860    6.5714   -7.1430 H   0  0  0  0  0  0  0  0  0  0  0  0
    8.4174    8.8621   -6.7457 H   0  0  0  0  0  0  0  0  0  0  0  0
    8.4422    8.6202   -8.4584 H   0  0  0  0  0  0  0  0  0  0  0  0
   10.4714    9.7722   -7.9577 H   0  0  0  0  0  0  0  0  0  0  0  0
   10.9922    8.1508   -8.2622 H   0  0  0  0  0  0  0  0  0  0  0  0
   12.0791   10.6883   -2.8068 H   0  0  0  0  0  0  0  0  0  0  0  0
   12.8038    9.1290   -1.0464 H   0  0  0  0  0  0  0  0  0  0  0  0
   12.8013    6.6652   -1.4476 H   0  0  0  0  0  0  0  0  0  0  0  0
   12.0743    5.7724   -3.6604 H   0  0  0  0  0  0  0  0  0  0  0  0
    9.6946    7.9881  -10.1836 H   0  0  0  0  0  0  0  0  0  0  0  0
   10.4934    6.5576  -10.7534 H   0  0  0  0  0  0  0  0  0  0  0  0
    7.9450    7.8362  -11.8512 H   0  0  0  0  0  0  0  0  0  0  0  0
    9.4688    7.9190  -12.6386 H   0  0  0  0  0  0  0  0  0  0  0  0
    7.8007    6.6641   -9.6283 H   0  0  0  0  0  0  0  0  0  0  0  0
  2  1  2  0
  3  2  1  0
  4  3  1  0
  5  4  2  0
  6  5  1  0
  7  6  1  0
  8  6  2  0
  9  8  1  0
 10  4  1  0
 10  9  2  0
 11  2  1  0
 11 10  1  0
 12 11  1  0
 13 12  1  0
 14 13  1  0
 15 14  1  0
 16 15  1  0
 17 16  1  0
 18 17  1  0
 19 18  1  0
 20 19  1  0
 21 20  2  0
 22 21  1  0
 23 22  2  0
 24 23  1  0
 25 24  2  0
 26 25  1  0
 27 22  1  0
 27 26  2  0
 28 20  1  0
 28 27  1  0
 29 15  1  0
 30 12  1  0
 30 29  1  0
 31  3  1  0
 32  5  1  0
 33  8  1  0
 34  9  1  0
 12 35  1  6
 36 13  1  0
 37 13  1  0
 38 14  1  0
 39 14  1  0
 40 16  1  0
 41 16  1  0
 42 17  1  0
 43 17  1  0
 44 18  1  0
 45 18  1  0
 46 19  1  0
 47 19  1  0
 48 23  1  0
 49 24  1  0
 50 25  1  0
 51 26  1  0
 52 29  1  0
 53 29  1  0
 54 30  1  0
 55 30  1  0
 15 56  1  1
M  CHG  1  15   1
M  END
>  <b_m_subgroup_collapsed>  (81) 
0

>  <r_i_docking_score>  (81) 
-9.1133633411558694

>  <s_m_subgroup_title>  (81) 
glide-dock_SP_D22_pv

>  <s_m_subgroupid>  (81) 
glide-dock_SP_D22_pv

>  <Molecule ChEMBL ID>  (81) 
CHEMBL3819153

>  <Standard Type>  (81) 
Ki

>  <Standard Value>  (81) 
95.5

>  <label>  (81) 
1

$$$$
CHEMBL1684128
     RDKit          3D

 84 89  0  0  1  0  0  0  0  0999 V2000
    3.6857   -1.4087  -18.7360 C   0  0  0  0  0  0  0  0  0  0  0  0
    4.2434   -1.6798  -17.3353 C   0  0  0  0  0  0  0  0  0  0  0  0
    5.3337   -0.6670  -16.9390 C   0  0  0  0  0  0  0  0  0  0  0  0
    6.0861   -1.0218  -15.6976 N   0  0  2  0  0  0  0  0  0  0  0  0
    5.2553   -1.3978  -14.5425 C   0  0  0  0  0  0  0  0  0  0  0  0
    4.4780   -0.1789  -14.0508 C   0  0  0  0  0  0  0  0  0  0  0  0
    5.3335    1.0488  -13.7673 C   0  0  0  0  0  0  0  0  0  0  0  0
    4.8860    2.1643  -13.0453 C   0  0  0  0  0  0  0  0  0  0  0  0
    5.6563    3.3299  -12.9770 C   0  0  0  0  0  0  0  0  0  0  0  0
    6.9050    3.3726  -13.6140 C   0  0  0  0  0  0  0  0  0  0  0  0
    7.4664    2.2615  -14.2960 C   0  0  0  0  0  0  0  0  0  0  0  0
    6.6025    1.1330  -14.4046 C   0  0  0  0  0  0  0  0  0  0  0  0
    7.1247   -0.0371  -15.2616 C   0  0  2  0  0  0  0  0  0  0  0  0
    8.0442    0.4265  -16.4155 C   0  0  0  0  0  0  0  0  0  0  0  0
    9.1060    1.4082  -15.9599 C   0  0  0  0  0  0  0  0  0  0  0  0
   10.3540    1.4254  -16.6131 C   0  0  0  0  0  0  0  0  0  0  0  0
   11.3490    2.3215  -16.2012 C   0  0  0  0  0  0  0  0  0  0  0  0
   11.1119    3.1804  -15.1135 C   0  0  0  0  0  0  0  0  0  0  0  0
    9.8662    3.1655  -14.4388 C   0  0  0  0  0  0  0  0  0  0  0  0
    9.6567    3.9383  -13.3141 O   0  0  0  0  0  0  0  0  0  0  0  0
   10.3432    5.1793  -13.1923 C   0  0  0  0  0  0  0  0  0  0  0  0
    9.7506    5.9442  -11.9915 C   0  0  0  0  0  0  0  0  0  0  0  0
   10.4476    7.2942  -11.7414 C   0  0  0  0  0  0  0  0  0  0  0  0
    9.8177    8.1794  -10.6452 C   0  0  0  0  0  0  0  0  0  0  0  0
    9.8052    7.5840   -9.2882 N   0  0  0  0  0  0  0  0  0  0  0  0
    9.1386    8.4689   -8.2989 C   0  0  0  0  0  0  0  0  0  0  0  0
    8.9932    7.7687   -6.9361 C   0  0  0  0  0  0  0  0  0  0  0  0
   10.2501    7.1479   -6.5173 N   0  0  0  0  0  0  0  0  0  0  0  0
   10.9217    7.5531   -5.3526 C   0  0  0  0  0  0  0  0  0  0  0  0
   11.2886    6.5726   -4.4140 C   0  0  0  0  0  0  0  0  0  0  0  0
   11.9201    6.9070   -3.2036 C   0  0  0  0  0  0  0  0  0  0  0  0
   12.1913    8.2515   -2.9165 C   0  0  0  0  0  0  0  0  0  0  0  0
   11.8634    9.2399   -3.8584 C   0  0  0  0  0  0  0  0  0  0  0  0
   11.2539    8.9019   -5.0977 C   0  0  0  0  0  0  0  0  0  0  0  0
   10.9738    9.8234   -6.0787 O   0  0  0  0  0  0  0  0  0  0  0  0
   11.6864   11.0338   -6.0126 C   0  0  0  0  0  0  0  0  0  0  0  0
   10.9990    6.3696   -7.4873 C   0  0  0  0  0  0  0  0  0  0  0  0
   11.1447    7.1724   -8.7889 C   0  0  0  0  0  0  0  0  0  0  0  0
    8.8292    2.2961  -14.8907 C   0  0  0  0  0  0  0  0  0  0  0  0
    2.8862   -2.1103  -18.9727 H   0  0  0  0  0  0  0  0  0  0  0  0
    3.2817   -0.3981  -18.8136 H   0  0  0  0  0  0  0  0  0  0  0  0
    4.4577   -1.5188  -19.4979 H   0  0  0  0  0  0  0  0  0  0  0  0
    4.6401   -2.6960  -17.3032 H   0  0  0  0  0  0  0  0  0  0  0  0
    3.4119   -1.6481  -16.6300 H   0  0  0  0  0  0  0  0  0  0  0  0
    4.8967    0.3276  -16.8442 H   0  0  0  0  0  0  0  0  0  0  0  0
    6.0390   -0.6192  -17.7673 H   0  0  0  0  0  0  0  0  0  0  0  0
    4.5924   -2.2227  -14.7951 H   0  0  0  0  0  0  0  0  0  0  0  0
    5.9070   -1.7733  -13.7530 H   0  0  0  0  0  0  0  0  0  0  0  0
    3.9241   -0.4310  -13.1472 H   0  0  0  0  0  0  0  0  0  0  0  0
    3.7195    0.1052  -14.7813 H   0  0  0  0  0  0  0  0  0  0  0  0
    3.8949    2.1706  -12.6220 H   0  0  0  0  0  0  0  0  0  0  0  0
    5.2848    4.2030  -12.4604 H   0  0  0  0  0  0  0  0  0  0  0  0
    7.4287    4.3115  -13.5598 H   0  0  0  0  0  0  0  0  0  0  0  0
    7.7702   -0.5924  -14.5798 H   0  0  0  0  0  0  0  0  0  0  0  0
    7.4730    0.9531  -17.1804 H   0  0  0  0  0  0  0  0  0  0  0  0
    8.5125   -0.4340  -16.8984 H   0  0  0  0  0  0  0  0  0  0  0  0
   10.5500    0.7493  -17.4348 H   0  0  0  0  0  0  0  0  0  0  0  0
   12.3093    2.3309  -16.6968 H   0  0  0  0  0  0  0  0  0  0  0  0
   11.9162    3.8228  -14.7958 H   0  0  0  0  0  0  0  0  0  0  0  0
   10.2270    5.7678  -14.1036 H   0  0  0  0  0  0  0  0  0  0  0  0
   11.4104    5.0154  -13.0404 H   0  0  0  0  0  0  0  0  0  0  0  0
    9.8264    5.3186  -11.1015 H   0  0  0  0  0  0  0  0  0  0  0  0
    8.6847    6.1088  -12.1631 H   0  0  0  0  0  0  0  0  0  0  0  0
   10.3987    7.8784  -12.6499 H   0  0  0  0  0  0  0  0  0  0  0  0
   11.5149    7.1462  -11.5770 H   0  0  0  0  0  0  0  0  0  0  0  0
    8.7954    8.4264  -10.9351 H   0  0  0  0  0  0  0  0  0  0  0  0
   10.3652    9.1199  -10.6018 H   0  0  0  0  0  0  0  0  0  0  0  0
    8.1633    8.7989   -8.6552 H   0  0  0  0  0  0  0  0  0  0  0  0
    9.7384    9.3725   -8.1911 H   0  0  0  0  0  0  0  0  0  0  0  0
    8.2340    6.9889   -7.0008 H   0  0  0  0  0  0  0  0  0  0  0  0
    8.6353    8.4872   -6.2020 H   0  0  0  0  0  0  0  0  0  0  0  0
   11.0463    5.5491   -4.6191 H   0  0  0  0  0  0  0  0  0  0  0  0
   12.1675    6.1349   -2.4919 H   0  0  0  0  0  0  0  0  0  0  0  0
   12.6519    8.5275   -1.9780 H   0  0  0  0  0  0  0  0  0  0  0  0
   12.0859   10.2584   -3.5939 H   0  0  0  0  0  0  0  0  0  0  0  0
   11.6146   11.5894   -6.9446 H   0  0  0  0  0  0  0  0  0  0  0  0
   11.2860   11.6428   -5.2003 H   0  0  0  0  0  0  0  0  0  0  0  0
   12.7472   10.8516   -5.8477 H   0  0  0  0  0  0  0  0  0  0  0  0
   11.9802    6.1032   -7.0848 H   0  0  0  0  0  0  0  0  0  0  0  0
   10.4661    5.4372   -7.6761 H   0  0  0  0  0  0  0  0  0  0  0  0
   11.6730    6.5720   -9.5233 H   0  0  0  0  0  0  0  0  0  0  0  0
   11.7598    8.0557   -8.6181 H   0  0  0  0  0  0  0  0  0  0  0  0
    6.6230   -1.8566  -15.9179 H   0  0  0  0  0  0  0  0  0  0  0  0
    9.2310    6.7549   -9.3475 H   0  0  0  0  0  0  0  0  0  0  0  0
  2  1  1  0
  3  2  1  0
  4  3  1  0
  5  4  1  0
  6  5  1  0
  7  6  1  0
  8  7  2  0
  9  8  1  0
 10  9  2  0
 11 10  1  0
 12  7  1  0
 12 11  2  0
 13  4  1  0
 13 12  1  0
 14 13  1  0
 15 14  1  0
 16 15  2  0
 17 16  1  0
 18 17  2  0
 19 18  1  0
 20 19  1  0
 21 20  1  0
 22 21  1  0
 23 22  1  0
 24 23  1  0
 25 24  1  0
 26 25  1  0
 27 26  1  0
 28 27  1  0
 29 28  1  0
 30 29  2  0
 31 30  1  0
 32 31  2  0
 33 32  1  0
 34 29  1  0
 34 33  2  0
 35 34  1  0
 36 35  1  0
 37 28  1  0
 38 25  1  0
 38 37  1  0
 39 11  1  0
 39 15  1  0
 39 19  2  0
 40  1  1  0
 41  1  1  0
 42  1  1  0
 43  2  1  0
 44  2  1  0
 45  3  1  0
 46  3  1  0
 47  5  1  0
 48  5  1  0
 49  6  1  0
 50  6  1  0
 51  8  1  0
 52  9  1  0
 53 10  1  0
 13 54  1  1
 55 14  1  0
 56 14  1  0
 57 16  1  0
 58 17  1  0
 59 18  1  0
 60 21  1  0
 61 21  1  0
 62 22  1  0
 63 22  1  0
 64 23  1  0
 65 23  1  0
 66 24  1  0
 67 24  1  0
 68 26  1  0
 69 26  1  0
 70 27  1  0
 71 27  1  0
 72 30  1  0
 73 31  1  0
 74 32  1  0
 75 33  1  0
 76 36  1  0
 77 36  1  0
 78 36  1  0
 79 37  1  0
 80 37  1  0
 81 38  1  0
 82 38  1  0
  4 83  1  6
 84 25  1  0
M  CHG  2   4   1  25   1
M  END
>  <b_m_subgroup_collapsed>  (82) 
0

>  <r_i_docking_score>  (82) 
-9.1109545478263296

>  <s_m_subgroup_title>  (82) 
glide-dock_SP_D22_pv

>  <s_m_subgroupid>  (82) 
glide-dock_SP_D22_pv

>  <Molecule ChEMBL ID>  (82) 
CHEMBL1684128

>  <Standard Type>  (82) 
Ki

>  <Standard Value>  (82) 
88.0

>  <label>  (82) 
1

$$$$
CHEMBL351611
     RDKit          3D

 51 54  0  0  1  0  0  0  0  0999 V2000
   12.4423    8.7138   -2.1389 C   0  0  0  0  0  0  0  0  0  0  0  0
   12.0740    9.7717   -2.9910 C   0  0  0  0  0  0  0  0  0  0  0  0
   11.5806    9.5107   -4.2799 C   0  0  0  0  0  0  0  0  0  0  0  0
   11.4376    8.1876   -4.7331 C   0  0  0  0  0  0  0  0  0  0  0  0
   10.9367    8.0201   -6.0026 O   0  0  0  0  0  0  0  0  0  0  0  0
   10.8705    6.6935   -6.4854 C   0  0  0  0  0  0  0  0  0  0  0  0
   10.4852    6.6434   -7.9646 C   0  0  2  0  0  0  0  0  0  0  0  0
   11.2263    7.6948   -8.8076 C   0  0  0  0  0  0  0  0  0  0  0  0
   10.8751    7.5154  -10.2870 C   0  0  0  0  0  0  0  0  0  0  0  0
    9.3502    7.5265  -10.5253 C   0  0  1  0  0  0  0  0  0  0  0  0
    8.9845    7.3083  -12.0113 C   0  0  0  0  0  0  0  0  0  0  0  0
    9.0321    5.8961  -12.3983 N   0  0  0  0  0  0  0  0  0  0  0  0
   10.0596    5.3647  -13.2171 C   0  0  0  0  0  0  0  0  0  0  0  0
   11.2773    6.0581  -13.4469 C   0  0  0  0  0  0  0  0  0  0  0  0
   12.2796    5.5147  -14.2737 C   0  0  0  0  0  0  0  0  0  0  0  0
   12.0874    4.2650  -14.8889 C   0  0  0  0  0  0  0  0  0  0  0  0
   10.8881    3.5635  -14.6790 C   0  0  0  0  0  0  0  0  0  0  0  0
    9.8836    4.1116  -13.8573 C   0  0  0  0  0  0  0  0  0  0  0  0
    8.2422    5.0103  -11.5475 C   0  0  0  0  0  0  0  0  0  0  0  0
    8.7037    5.1441  -10.0916 C   0  0  0  0  0  0  0  0  0  0  0  0
    8.6400    6.5584   -9.6386 N   0  0  1  0  0  0  0  0  0  0  0  0
    8.9637    6.7456   -8.2018 C   0  0  0  0  0  0  0  0  0  0  0  0
   11.7911    7.1223   -3.8621 C   0  0  0  0  0  0  0  0  0  0  0  0
   12.2935    7.3856   -2.5760 C   0  0  0  0  0  0  0  0  0  0  0  0
   12.8156    8.9257   -1.1480 H   0  0  0  0  0  0  0  0  0  0  0  0
   12.1327   10.7921   -2.6467 H   0  0  0  0  0  0  0  0  0  0  0  0
   11.2949   10.3305   -4.9224 H   0  0  0  0  0  0  0  0  0  0  0  0
   11.8372    6.2003   -6.3723 H   0  0  0  0  0  0  0  0  0  0  0  0
   10.1360    6.1604   -5.8857 H   0  0  0  0  0  0  0  0  0  0  0  0
   10.8057    5.6574   -8.3010 H   0  0  0  0  0  0  0  0  0  0  0  0
   10.9469    8.7001   -8.4898 H   0  0  0  0  0  0  0  0  0  0  0  0
   12.3050    7.6157   -8.6652 H   0  0  0  0  0  0  0  0  0  0  0  0
   11.3554    8.2975  -10.8763 H   0  0  0  0  0  0  0  0  0  0  0  0
   11.2865    6.5726  -10.6335 H   0  0  0  0  0  0  0  0  0  0  0  0
    8.9938    8.5208  -10.2525 H   0  0  0  0  0  0  0  0  0  0  0  0
    7.9587    7.6427  -12.1715 H   0  0  0  0  0  0  0  0  0  0  0  0
    9.5938    7.9466  -12.6468 H   0  0  0  0  0  0  0  0  0  0  0  0
   11.4732    7.0170  -12.9952 H   0  0  0  0  0  0  0  0  0  0  0  0
   13.2011    6.0577  -14.4317 H   0  0  0  0  0  0  0  0  0  0  0  0
   12.8579    3.8481  -15.5230 H   0  0  0  0  0  0  0  0  0  0  0  0
   10.7319    2.6073  -15.1583 H   0  0  0  0  0  0  0  0  0  0  0  0
    8.9664    3.5527  -13.7507 H   0  0  0  0  0  0  0  0  0  0  0  0
    7.1907    5.2917  -11.6333 H   0  0  0  0  0  0  0  0  0  0  0  0
    8.3031    3.9634  -11.8395 H   0  0  0  0  0  0  0  0  0  0  0  0
    8.0856    4.5198   -9.4479 H   0  0  0  0  0  0  0  0  0  0  0  0
    9.7197    4.7601  -10.0102 H   0  0  0  0  0  0  0  0  0  0  0  0
    8.4224    6.0097   -7.6047 H   0  0  0  0  0  0  0  0  0  0  0  0
    8.5983    7.7220   -7.8795 H   0  0  0  0  0  0  0  0  0  0  0  0
   11.6837    6.0874   -4.1485 H   0  0  0  0  0  0  0  0  0  0  0  0
   12.5556    6.5653   -1.9237 H   0  0  0  0  0  0  0  0  0  0  0  0
    7.6572    6.8370   -9.7419 H   0  0  0  0  0  0  0  0  0  0  0  0
  2  1  2  0
  3  2  1  0
  4  3  2  0
  5  4  1  0
  6  5  1  0
  7  6  1  0
  8  7  1  0
  9  8  1  0
 10  9  1  0
 11 10  1  0
 12 11  1  0
 13 12  1  0
 14 13  2  0
 15 14  1  0
 16 15  2  0
 17 16  1  0
 18 13  1  0
 18 17  2  0
 19 12  1  0
 20 19  1  0
 21 10  1  0
 21 20  1  0
 22  7  1  0
 22 21  1  0
 23  4  1  0
 24  1  1  0
 24 23  2  0
 25  1  1  0
 26  2  1  0
 27  3  1  0
 28  6  1  0
 29  6  1  0
  7 30  1  6
 31  8  1  0
 32  8  1  0
 33  9  1  0
 34  9  1  0
 10 35  1  1
 36 11  1  0
 37 11  1  0
 38 14  1  0
 39 15  1  0
 40 16  1  0
 41 17  1  0
 42 18  1  0
 43 19  1  0
 44 19  1  0
 45 20  1  0
 46 20  1  0
 47 22  1  0
 48 22  1  0
 49 23  1  0
 50 24  1  0
 21 51  1  1
M  CHG  1  21   1
M  END
>  <b_m_subgroup_collapsed>  (83) 
0

>  <r_i_docking_score>  (83) 
-9.1080156557090799

>  <s_m_subgroup_title>  (83) 
glide-dock_SP_D22_pv

>  <s_m_subgroupid>  (83) 
glide-dock_SP_D22_pv

>  <Molecule ChEMBL ID>  (83) 
CHEMBL351611

>  <Standard Type>  (83) 
Ki

>  <Standard Value>  (83) 
44.0

>  <label>  (83) 
1

$$$$
CHEMBL4446597
     RDKit          3D

 50 52  0  0  1  0  0  0  0  0999 V2000
   11.2864   10.5910   -6.2331 O   0  0  0  0  0  0  0  0  0  0  0  0
   11.2573    9.3733   -6.0825 C   0  0  0  0  0  0  0  0  0  0  0  0
   10.9031    8.5023   -7.2877 C   0  0  0  0  0  0  0  0  0  0  0  0
    9.5011    7.8661   -7.1775 C   0  0  0  0  0  0  0  0  0  0  0  0
    9.4073    6.4987   -7.8774 C   0  0  0  0  0  0  0  0  0  0  0  0
    8.8860    6.5541   -9.2656 N   0  0  2  0  0  0  0  0  0  0  0  0
    8.6469    5.1948   -9.8039 C   0  0  0  0  0  0  0  0  0  0  0  0
    7.8260    5.2912  -11.0865 C   0  0  0  0  0  0  0  0  0  0  0  0
    8.5228    6.1365  -12.1744 C   0  0  2  0  0  0  0  0  0  0  0  0
    7.4796    6.4711  -13.0468 O   0  0  0  0  0  0  0  0  0  0  0  0
    9.6099    5.3564  -12.9324 C   0  0  0  0  0  0  0  0  0  0  0  0
   10.9289    5.8469  -13.0931 C   0  0  0  0  0  0  0  0  0  0  0  0
   11.8795    5.1305  -13.8473 C   0  0  0  0  0  0  0  0  0  0  0  0
   11.5300    3.9075  -14.4460 C   0  0  0  0  0  0  0  0  0  0  0  0
   10.2256    3.4049  -14.2944 C   0  0  0  0  0  0  0  0  0  0  0  0
    9.2732    4.1294  -13.5526 C   0  0  0  0  0  0  0  0  0  0  0  0
    8.9690    7.4980  -11.5819 C   0  0  0  0  0  0  0  0  0  0  0  0
    9.6840    7.3684  -10.2202 C   0  0  0  0  0  0  0  0  0  0  0  0
   11.5720    8.7074   -4.7896 C   0  0  0  0  0  0  0  0  0  0  0  0
   11.6856    7.3026   -4.6723 C   0  0  0  0  0  0  0  0  0  0  0  0
   12.0858    6.7278   -3.4556 C   0  0  0  0  0  0  0  0  0  0  0  0
   12.3626    7.5370   -2.3479 C   0  0  0  0  0  0  0  0  0  0  0  0
   12.2039    8.9279   -2.4311 C   0  0  0  0  0  0  0  0  0  0  0  0
   11.8004    9.5043   -3.6467 C   0  0  0  0  0  0  0  0  0  0  0  0
   11.6732    7.7380   -7.3860 H   0  0  0  0  0  0  0  0  0  0  0  0
   10.9773    9.1154   -8.1849 H   0  0  0  0  0  0  0  0  0  0  0  0
    8.7317    8.5495   -7.5424 H   0  0  0  0  0  0  0  0  0  0  0  0
    9.2557    7.7054   -6.1266 H   0  0  0  0  0  0  0  0  0  0  0  0
    8.7108    5.8891   -7.2990 H   0  0  0  0  0  0  0  0  0  0  0  0
   10.3612    5.9701   -7.8484 H   0  0  0  0  0  0  0  0  0  0  0  0
    8.0913    4.5975   -9.0795 H   0  0  0  0  0  0  0  0  0  0  0  0
    9.5925    4.6797   -9.9838 H   0  0  0  0  0  0  0  0  0  0  0  0
    6.8847    5.7712  -10.8204 H   0  0  0  0  0  0  0  0  0  0  0  0
    7.5528    4.2980  -11.4414 H   0  0  0  0  0  0  0  0  0  0  0  0
    6.8236    6.9339  -12.5416 H   0  0  0  0  0  0  0  0  0  0  0  0
   11.2454    6.7805  -12.6581 H   0  0  0  0  0  0  0  0  0  0  0  0
   12.8811    5.5203  -13.9637 H   0  0  0  0  0  0  0  0  0  0  0  0
   12.2595    3.3607  -15.0252 H   0  0  0  0  0  0  0  0  0  0  0  0
    9.9507    2.4684  -14.7573 H   0  0  0  0  0  0  0  0  0  0  0  0
    8.2692    3.7389  -13.4774 H   0  0  0  0  0  0  0  0  0  0  0  0
    9.5679    8.0724  -12.2871 H   0  0  0  0  0  0  0  0  0  0  0  0
    8.0879    8.1268  -11.4469 H   0  0  0  0  0  0  0  0  0  0  0  0
    9.8255    8.3744   -9.8315 H   0  0  0  0  0  0  0  0  0  0  0  0
   10.6746    6.9278  -10.3385 H   0  0  0  0  0  0  0  0  0  0  0  0
   11.5097    6.6436   -5.5089 H   0  0  0  0  0  0  0  0  0  0  0  0
   12.2097    5.6628   -3.3742 H   0  0  0  0  0  0  0  0  0  0  0  0
   12.7103    7.0728   -1.4466 H   0  0  0  0  0  0  0  0  0  0  0  0
   12.4039    9.5535   -1.5730 H   0  0  0  0  0  0  0  0  0  0  0  0
   11.6856   10.5725   -3.6939 H   0  0  0  0  0  0  0  0  0  0  0  0
    7.9653    6.9898   -9.2161 H   0  0  0  0  0  0  0  0  0  0  0  0
  2  1  2  0
  3  2  1  0
  4  3  1  0
  5  4  1  0
  6  5  1  0
  7  6  1  0
  8  7  1  0
  9  8  1  0
  9 10  1  6
 11  9  1  0
 12 11  2  0
 13 12  1  0
 14 13  2  0
 15 14  1  0
 16 11  1  0
 16 15  2  0
 17  9  1  0
 18  6  1  0
 18 17  1  0
 19  2  1  0
 20 19  2  0
 21 20  1  0
 22 21  2  0
 23 22  1  0
 24 19  1  0
 24 23  2  0
 25  3  1  0
 26  3  1  0
 27  4  1  0
 28  4  1  0
 29  5  1  0
 30  5  1  0
 31  7  1  0
 32  7  1  0
 33  8  1  0
 34  8  1  0
 35 10  1  0
 36 12  1  0
 37 13  1  0
 38 14  1  0
 39 15  1  0
 40 16  1  0
 41 17  1  0
 42 17  1  0
 43 18  1  0
 44 18  1  0
 45 20  1  0
 46 21  1  0
 47 22  1  0
 48 23  1  0
 49 24  1  0
  6 50  1  1
M  CHG  1   6   1
M  END
>  <b_m_subgroup_collapsed>  (84) 
0

>  <r_i_docking_score>  (84) 
-9.1062532435438701

>  <s_m_subgroup_title>  (84) 
glide-dock_SP_D22_pv

>  <s_m_subgroupid>  (84) 
glide-dock_SP_D22_pv

>  <Molecule ChEMBL ID>  (84) 
CHEMBL4446597

>  <Standard Type>  (84) 
Ki

>  <Standard Value>  (84) 
32.36

>  <label>  (84) 
1

$$$$
CHEMBL5966386
     RDKit          3D

 60 63  0  0  1  0  0  0  0  0999 V2000
    5.5309    3.1950  -12.5152 C   0  0  0  0  0  0  0  0  0  0  0  0
    6.0778    4.4647  -13.1878 C   0  0  0  0  0  0  0  0  0  0  0  0
    7.5467    4.5715  -13.0810 N   0  0  0  0  0  0  0  0  0  0  0  0
    8.0079    5.6592  -12.1976 C   0  0  0  0  0  0  0  0  0  0  0  0
    8.2186    5.1356  -10.7583 C   0  0  0  0  0  0  0  0  0  0  0  0
    8.5846    6.1719   -9.7551 N   0  0  1  0  0  0  0  0  0  0  0  0
    8.6271    5.5969   -8.3814 C   0  0  0  0  0  0  0  0  0  0  0  0
    8.9456    6.6504   -7.3054 C   0  0  0  0  0  0  0  0  0  0  0  0
   10.3089    7.2858   -7.5897 C   0  0  2  0  0  0  0  0  0  0  0  0
   10.7220    8.2650   -6.5125 C   0  0  0  0  0  0  0  0  0  0  0  0
   10.4907    9.5666   -6.6469 N   0  0  0  0  0  0  0  0  0  0  0  0
   10.9554   10.2231   -5.4754 O   0  0  0  0  0  0  0  0  0  0  0  0
   11.4450    9.2835   -4.5903 C   0  0  0  0  0  0  0  0  0  0  0  0
   11.9811    9.4110   -3.3028 C   0  0  0  0  0  0  0  0  0  0  0  0
   12.3571    8.2329   -2.6299 C   0  0  0  0  0  0  0  0  0  0  0  0
   12.8856    8.3133   -1.3882 F   0  0  0  0  0  0  0  0  0  0  0  0
   12.1846    6.9722   -3.2508 C   0  0  0  0  0  0  0  0  0  0  0  0
   11.6620    6.8708   -4.5614 C   0  0  0  0  0  0  0  0  0  0  0  0
   11.2860    8.0532   -5.2350 C   0  0  0  0  0  0  0  0  0  0  0  0
   10.2574    7.9134   -8.9980 C   0  0  0  0  0  0  0  0  0  0  0  0
    9.8519    6.8909  -10.0781 C   0  0  0  0  0  0  0  0  0  0  0  0
    8.3302    3.7628  -13.8555 C   0  0  0  0  0  0  0  0  0  0  0  0
    7.8190    2.9289  -14.6075 O   0  0  0  0  0  0  0  0  0  0  0  0
    9.8816    3.8834  -13.9300 C   0  0  1  0  0  0  0  0  0  0  0  0
   10.4570    4.1724  -12.6802 O   0  0  0  0  0  0  0  0  0  0  0  0
   10.5600    2.5763  -14.4072 C   0  0  0  0  0  0  0  0  0  0  0  0
   10.7553    2.7739  -15.9053 C   0  0  0  0  0  0  0  0  0  0  0  0
   11.0641    4.2034  -16.0402 N   0  0  0  0  0  0  0  0  0  0  0  0
   10.3046    4.9230  -14.9973 C   0  0  0  0  0  0  0  0  0  0  0  0
    4.4528    3.1309  -12.6473 H   0  0  0  0  0  0  0  0  0  0  0  0
    5.9605    2.2854  -12.9320 H   0  0  0  0  0  0  0  0  0  0  0  0
    5.7380    3.2004  -11.4475 H   0  0  0  0  0  0  0  0  0  0  0  0
    5.5760    5.3290  -12.7479 H   0  0  0  0  0  0  0  0  0  0  0  0
    5.7780    4.4754  -14.2381 H   0  0  0  0  0  0  0  0  0  0  0  0
    8.9075    6.1174  -12.6066 H   0  0  0  0  0  0  0  0  0  0  0  0
    7.2842    6.4767  -12.1782 H   0  0  0  0  0  0  0  0  0  0  0  0
    7.2874    4.6672  -10.4587 H   0  0  0  0  0  0  0  0  0  0  0  0
    8.9616    4.3418  -10.7227 H   0  0  0  0  0  0  0  0  0  0  0  0
    7.6861    5.1176   -8.1413 H   0  0  0  0  0  0  0  0  0  0  0  0
    9.3785    4.8066   -8.3463 H   0  0  0  0  0  0  0  0  0  0  0  0
    8.9535    6.1738   -6.3227 H   0  0  0  0  0  0  0  0  0  0  0  0
    8.1679    7.4156   -7.2672 H   0  0  0  0  0  0  0  0  0  0  0  0
   11.0535    6.4888   -7.6104 H   0  0  0  0  0  0  0  0  0  0  0  0
   12.0857   10.3778   -2.8325 H   0  0  0  0  0  0  0  0  0  0  0  0
   12.4718    6.0770   -2.7186 H   0  0  0  0  0  0  0  0  0  0  0  0
   11.5409    5.9047   -5.0311 H   0  0  0  0  0  0  0  0  0  0  0  0
   11.2256    8.3495   -9.2503 H   0  0  0  0  0  0  0  0  0  0  0  0
    9.5384    8.7356   -9.0119 H   0  0  0  0  0  0  0  0  0  0  0  0
   10.6563    6.1707  -10.2085 H   0  0  0  0  0  0  0  0  0  0  0  0
    9.7499    7.4225  -11.0228 H   0  0  0  0  0  0  0  0  0  0  0  0
   10.3489    3.4104  -12.1269 H   0  0  0  0  0  0  0  0  0  0  0  0
   11.5426    2.4530  -13.9464 H   0  0  0  0  0  0  0  0  0  0  0  0
    9.9942    1.6710  -14.1781 H   0  0  0  0  0  0  0  0  0  0  0  0
   11.5450    2.1415  -16.3137 H   0  0  0  0  0  0  0  0  0  0  0  0
    9.8307    2.5557  -16.4400 H   0  0  0  0  0  0  0  0  0  0  0  0
   12.0500    4.3333  -15.8576 H   0  0  0  0  0  0  0  0  0  0  0  0
    9.4356    5.3726  -15.4784 H   0  0  0  0  0  0  0  0  0  0  0  0
   10.9037    5.7365  -14.5850 H   0  0  0  0  0  0  0  0  0  0  0  0
   10.8459    4.5438  -16.9666 H   0  0  0  0  0  0  0  0  0  0  0  0
    7.8271    6.8601   -9.7754 H   0  0  0  0  0  0  0  0  0  0  0  0
  2  1  1  0
  3  2  1  0
  4  3  1  0
  5  4  1  0
  6  5  1  0
  7  6  1  0
  8  7  1  0
  9  8  1  0
 10  9  1  0
 11 10  2  0
 12 11  1  0
 13 12  1  0
 14 13  2  0
 15 14  1  0
 16 15  1  0
 17 15  2  0
 18 17  1  0
 19 10  1  0
 19 13  1  0
 19 18  2  0
 20  9  1  0
 21  6  1  0
 21 20  1  0
 22  3  1  0
 23 22  2  0
 24 22  1  0
 24 25  1  1
 26 24  1  0
 27 26  1  0
 28 27  1  0
 29 24  1  0
 29 28  1  0
 30  1  1  0
 31  1  1  0
 32  1  1  0
 33  2  1  0
 34  2  1  0
 35  4  1  0
 36  4  1  0
 37  5  1  0
 38  5  1  0
 39  7  1  0
 40  7  1  0
 41  8  1  0
 42  8  1  0
  9 43  1  6
 44 14  1  0
 45 17  1  0
 46 18  1  0
 47 20  1  0
 48 20  1  0
 49 21  1  0
 50 21  1  0
 51 25  1  0
 52 26  1  0
 53 26  1  0
 54 27  1  0
 55 27  1  0
 56 28  1  0
 57 29  1  0
 58 29  1  0
 59 28  1  0
  6 60  1  1
M  CHG  2   6   1  28   1
M  END
>  <b_m_subgroup_collapsed>  (85) 
0

>  <r_i_docking_score>  (85) 
-9.1044384732783499

>  <s_m_subgroup_title>  (85) 
glide-dock_SP_D22_pv

>  <s_m_subgroupid>  (85) 
glide-dock_SP_D22_pv

>  <Molecule ChEMBL ID>  (85) 
CHEMBL5966386

>  <Standard Type>  (85) 
Ki

>  <Standard Value>  (85) 
52.0

>  <label>  (85) 
1

$$$$
CHEMBL5779117
     RDKit          3D

 56 60  0  0  1  0  0  0  0  0999 V2000
    5.2696    0.0407  -14.3919 C   0  0  0  0  0  0  0  0  0  0  0  0
    6.4844    0.9048  -14.6790 C   0  0  0  0  0  0  0  0  0  0  0  0
    7.4274    0.4939  -15.6443 C   0  0  0  0  0  0  0  0  0  0  0  0
    8.5469    1.1880  -15.9320 N   0  0  0  0  0  0  0  0  0  0  0  0
    8.7829    2.3226  -15.2425 C   0  0  0  0  0  0  0  0  0  0  0  0
    7.9070    2.8351  -14.2612 C   0  0  0  0  0  0  0  0  0  0  0  0
    6.7187    2.1178  -13.9911 C   0  0  0  0  0  0  0  0  0  0  0  0
    5.7594    2.6416  -12.9355 C   0  0  0  0  0  0  0  0  0  0  0  0
    5.9035    4.1583  -12.7394 C   0  0  0  0  0  0  0  0  0  0  0  0
    7.3081    4.5898  -12.6812 N   0  0  0  0  0  0  0  0  0  0  0  0
    7.6142    5.6635  -11.7315 C   0  0  0  0  0  0  0  0  0  0  0  0
    8.3224    5.1102  -10.4777 C   0  0  0  0  0  0  0  0  0  0  0  0
    8.6340    6.1758   -9.4917 N   0  0  1  0  0  0  0  0  0  0  0  0
    8.5510    5.6912   -8.0870 C   0  0  0  0  0  0  0  0  0  0  0  0
    8.9137    6.7690   -7.0534 C   0  0  0  0  0  0  0  0  0  0  0  0
   10.3107    7.3246   -7.3314 C   0  0  2  0  0  0  0  0  0  0  0  0
   10.7527    8.3012   -6.2702 C   0  0  0  0  0  0  0  0  0  0  0  0
   10.5202    9.6058   -6.3899 N   0  0  0  0  0  0  0  0  0  0  0  0
   11.0207   10.2419   -5.2199 O   0  0  0  0  0  0  0  0  0  0  0  0
   11.5239    9.2876   -4.3536 C   0  0  0  0  0  0  0  0  0  0  0  0
   12.0841    9.3876   -3.0723 C   0  0  0  0  0  0  0  0  0  0  0  0
   12.4442    8.1945   -2.4138 C   0  0  0  0  0  0  0  0  0  0  0  0
   12.2374    6.9458   -3.0460 C   0  0  0  0  0  0  0  0  0  0  0  0
   11.6862    6.8723   -4.3470 C   0  0  0  0  0  0  0  0  0  0  0  0
   11.3332    8.0687   -5.0062 C   0  0  0  0  0  0  0  0  0  0  0  0
   10.3250    7.9072   -8.7575 C   0  0  0  0  0  0  0  0  0  0  0  0
    9.9353    6.8386   -9.7942 C   0  0  0  0  0  0  0  0  0  0  0  0
    8.2735    4.0617  -13.4697 C   0  0  0  0  0  0  0  0  0  0  0  0
    9.4164    4.5182  -13.5245 O   0  0  0  0  0  0  0  0  0  0  0  0
    5.2375   -0.2222  -13.3337 H   0  0  0  0  0  0  0  0  0  0  0  0
    4.3480    0.5651  -14.6472 H   0  0  0  0  0  0  0  0  0  0  0  0
    5.3005   -0.8857  -14.9672 H   0  0  0  0  0  0  0  0  0  0  0  0
    7.2848   -0.4215  -16.1998 H   0  0  0  0  0  0  0  0  0  0  0  0
    9.7079    2.8272  -15.4828 H   0  0  0  0  0  0  0  0  0  0  0  0
    4.7272    2.4011  -13.1870 H   0  0  0  0  0  0  0  0  0  0  0  0
    5.9831    2.1317  -11.9992 H   0  0  0  0  0  0  0  0  0  0  0  0
    5.3520    4.4552  -11.8455 H   0  0  0  0  0  0  0  0  0  0  0  0
    5.4377    4.6775  -13.5786 H   0  0  0  0  0  0  0  0  0  0  0  0
    8.2247    6.4251  -12.2191 H   0  0  0  0  0  0  0  0  0  0  0  0
    6.6941    6.1722  -11.4474 H   0  0  0  0  0  0  0  0  0  0  0  0
    7.6860    4.3550  -10.0212 H   0  0  0  0  0  0  0  0  0  0  0  0
    9.2367    4.5792  -10.7478 H   0  0  0  0  0  0  0  0  0  0  0  0
    7.5367    5.3695   -7.8723 H   0  0  0  0  0  0  0  0  0  0  0  0
    9.1994    4.8223   -7.9677 H   0  0  0  0  0  0  0  0  0  0  0  0
    8.8861    6.3292   -6.0567 H   0  0  0  0  0  0  0  0  0  0  0  0
    8.1729    7.5711   -7.0537 H   0  0  0  0  0  0  0  0  0  0  0  0
   11.0119    6.4888   -7.3119 H   0  0  0  0  0  0  0  0  0  0  0  0
   12.2064   10.3500   -2.5990 H   0  0  0  0  0  0  0  0  0  0  0  0
   12.8643    8.2377   -1.4196 H   0  0  0  0  0  0  0  0  0  0  0  0
   12.5043    6.0353   -2.5287 H   0  0  0  0  0  0  0  0  0  0  0  0
   11.5285    5.9142   -4.8209 H   0  0  0  0  0  0  0  0  0  0  0  0
   11.3148    8.3009   -8.9922 H   0  0  0  0  0  0  0  0  0  0  0  0
    9.6320    8.7479   -8.8296 H   0  0  0  0  0  0  0  0  0  0  0  0
   10.7241    6.0875   -9.8305 H   0  0  0  0  0  0  0  0  0  0  0  0
    9.8921    7.2935  -10.7843 H   0  0  0  0  0  0  0  0  0  0  0  0
    7.8929    6.8717   -9.5907 H   0  0  0  0  0  0  0  0  0  0  0  0
  2  1  1  0
  3  2  2  0
  4  3  1  0
  5  4  2  0
  6  5  1  0
  7  2  1  0
  7  6  2  0
  8  7  1  0
  9  8  1  0
 10  9  1  0
 11 10  1  0
 12 11  1  0
 13 12  1  0
 14 13  1  0
 15 14  1  0
 16 15  1  0
 17 16  1  0
 18 17  2  0
 19 18  1  0
 20 19  1  0
 21 20  2  0
 22 21  1  0
 23 22  2  0
 24 23  1  0
 25 17  1  0
 25 20  1  0
 25 24  2  0
 26 16  1  0
 27 13  1  0
 27 26  1  0
 28  6  1  0
 28 10  1  0
 29 28  2  0
 30  1  1  0
 31  1  1  0
 32  1  1  0
 33  3  1  0
 34  5  1  0
 35  8  1  0
 36  8  1  0
 37  9  1  0
 38  9  1  0
 39 11  1  0
 40 11  1  0
 41 12  1  0
 42 12  1  0
 43 14  1  0
 44 14  1  0
 45 15  1  0
 46 15  1  0
 16 47  1  6
 48 21  1  0
 49 22  1  0
 50 23  1  0
 51 24  1  0
 52 26  1  0
 53 26  1  0
 54 27  1  0
 55 27  1  0
 13 56  1  1
M  CHG  1  13   1
M  END
>  <b_m_subgroup_collapsed>  (86) 
0

>  <r_i_docking_score>  (86) 
-9.1020784412981097

>  <s_m_subgroup_title>  (86) 
glide-dock_SP_D22_pv

>  <s_m_subgroupid>  (86) 
glide-dock_SP_D22_pv

>  <Molecule ChEMBL ID>  (86) 
CHEMBL5779117

>  <Standard Type>  (86) 
Ki

>  <Standard Value>  (86) 
76.0

>  <label>  (86) 
1

$$$$
CHEMBL1423
     RDKit          3D

 64 68  0  0  1  0  0  0  0  0999 V2000
   11.2858    9.7722   -7.7800 O   0  0  0  0  0  0  0  0  0  0  0  0
   11.3615    9.3335   -6.6496 C   0  0  0  0  0  0  0  0  0  0  0  0
   11.9762    9.9207   -5.6170 N   0  0  0  0  0  0  0  0  0  0  0  0
   11.9658    9.0541   -4.5358 C   0  0  0  0  0  0  0  0  0  0  0  0
   12.4813    9.2117   -3.2458 C   0  0  0  0  0  0  0  0  0  0  0  0
   12.4288    8.0827   -2.4000 C   0  0  0  0  0  0  0  0  0  0  0  0
   11.8570    6.8631   -2.8549 C   0  0  0  0  0  0  0  0  0  0  0  0
   11.2880    6.7589   -4.1503 C   0  0  0  0  0  0  0  0  0  0  0  0
   11.3241    7.9072   -4.9558 C   0  0  0  0  0  0  0  0  0  0  0  0
   10.8200    8.1719   -6.2405 N   0  0  0  0  0  0  0  0  0  0  0  0
    9.6751    7.4838   -6.8648 C   0  0  1  0  0  0  0  0  0  0  0  0
    8.8104    8.3697   -7.8030 C   0  0  0  0  0  0  0  0  0  0  0  0
    9.1766    8.2715   -9.3121 C   0  0  0  0  0  0  0  0  0  0  0  0
    9.2851    6.8745   -9.7952 N   0  0  1  0  0  0  0  0  0  0  0  0
    9.5757    6.8114  -11.2583 C   0  0  0  0  0  0  0  0  0  0  0  0
    8.4398    6.2343  -12.1250 C   0  0  0  0  0  0  0  0  0  0  0  0
    8.3775    4.6926  -12.2201 C   0  0  0  0  0  0  0  0  0  0  0  0
    8.0247    4.2001  -13.6587 C   0  0  0  0  0  0  0  0  0  0  0  0
    7.0209    3.0388  -13.7091 C   0  0  0  0  0  0  0  0  0  0  0  0
    5.8451    3.1430  -12.9380 C   0  0  0  0  0  0  0  0  0  0  0  0
    4.9545    2.0635  -12.8539 C   0  0  0  0  0  0  0  0  0  0  0  0
    5.1980    0.8686  -13.5527 C   0  0  0  0  0  0  0  0  0  0  0  0
    4.3365   -0.1718  -13.4485 F   0  0  0  0  0  0  0  0  0  0  0  0
    6.3255    0.7765  -14.3852 C   0  0  0  0  0  0  0  0  0  0  0  0
    7.2145    1.8643  -14.4848 C   0  0  0  0  0  0  0  0  0  0  0  0
    9.3032    3.9720  -14.4616 C   0  0  0  0  0  0  0  0  0  0  0  0
    9.6876    4.8837  -15.4632 C   0  0  0  0  0  0  0  0  0  0  0  0
   10.8095    4.6384  -16.2770 C   0  0  0  0  0  0  0  0  0  0  0  0
   11.5476    3.4554  -16.1027 C   0  0  0  0  0  0  0  0  0  0  0  0
   12.5912    3.1782  -16.9179 F   0  0  0  0  0  0  0  0  0  0  0  0
   11.1859    2.5569  -15.0836 C   0  0  0  0  0  0  0  0  0  0  0  0
   10.1062    2.8379  -14.2321 C   0  0  0  0  0  0  0  0  0  0  0  0
   10.3278    6.1658   -9.0114 C   0  0  0  0  0  0  0  0  0  0  0  0
   10.0444    6.1391   -7.5030 C   0  0  0  0  0  0  0  0  0  0  0  0
   12.4691   10.8014   -5.6406 H   0  0  0  0  0  0  0  0  0  0  0  0
   12.8871   10.1625   -2.9277 H   0  0  0  0  0  0  0  0  0  0  0  0
   12.8254    8.1500   -1.3976 H   0  0  0  0  0  0  0  0  0  0  0  0
   11.8288    6.0065   -2.1973 H   0  0  0  0  0  0  0  0  0  0  0  0
   10.8282    5.8420   -4.4906 H   0  0  0  0  0  0  0  0  0  0  0  0
    9.0316    7.2536   -6.0145 H   0  0  0  0  0  0  0  0  0  0  0  0
    7.7762    8.1642   -7.5994 H   0  0  0  0  0  0  0  0  0  0  0  0
    8.8412    9.4074   -7.5009 H   0  0  0  0  0  0  0  0  0  0  0  0
   10.1333    8.7435   -9.5178 H   0  0  0  0  0  0  0  0  0  0  0  0
    8.4856    8.8429   -9.9216 H   0  0  0  0  0  0  0  0  0  0  0  0
   10.4838    6.2410  -11.4575 H   0  0  0  0  0  0  0  0  0  0  0  0
    9.8026    7.8150  -11.6268 H   0  0  0  0  0  0  0  0  0  0  0  0
    8.6247    6.6098  -13.1286 H   0  0  0  0  0  0  0  0  0  0  0  0
    7.4687    6.6488  -11.8500 H   0  0  0  0  0  0  0  0  0  0  0  0
    7.6430    4.3662  -11.4851 H   0  0  0  0  0  0  0  0  0  0  0  0
    9.3088    4.2305  -11.8875 H   0  0  0  0  0  0  0  0  0  0  0  0
    7.4648    4.9851  -14.1623 H   0  0  0  0  0  0  0  0  0  0  0  0
    5.6311    4.0376  -12.3719 H   0  0  0  0  0  0  0  0  0  0  0  0
    4.0823    2.1728  -12.2430 H   0  0  0  0  0  0  0  0  0  0  0  0
    6.5047   -0.1244  -14.9544 H   0  0  0  0  0  0  0  0  0  0  0  0
    8.0516    1.7510  -15.1540 H   0  0  0  0  0  0  0  0  0  0  0  0
    9.1020    5.7683  -15.6174 H   0  0  0  0  0  0  0  0  0  0  0  0
   11.0844    5.3376  -17.0527 H   0  0  0  0  0  0  0  0  0  0  0  0
   11.7067    1.6262  -14.9632 H   0  0  0  0  0  0  0  0  0  0  0  0
    9.8452    2.1387  -13.4510 H   0  0  0  0  0  0  0  0  0  0  0  0
   10.4149    5.1395   -9.3711 H   0  0  0  0  0  0  0  0  0  0  0  0
   11.2864    6.6514   -9.1871 H   0  0  0  0  0  0  0  0  0  0  0  0
    9.2284    5.4340   -7.3394 H   0  0  0  0  0  0  0  0  0  0  0  0
   10.9218    5.7605   -6.9842 H   0  0  0  0  0  0  0  0  0  0  0  0
    8.3821    6.4419   -9.6420 H   0  0  0  0  0  0  0  0  0  0  0  0
  2  1  2  0
  3  2  1  0
  4  3  1  0
  5  4  2  0
  6  5  1  0
  7  6  2  0
  8  7  1  0
  9  4  1  0
  9  8  2  0
 10  2  1  0
 10  9  1  0
 11 10  1  0
 12 11  1  0
 13 12  1  0
 14 13  1  0
 15 14  1  0
 16 15  1  0
 17 16  1  0
 18 17  1  0
 19 18  1  0
 20 19  1  0
 21 20  2  0
 22 21  1  0
 23 22  1  0
 24 22  2  0
 25 19  2  0
 25 24  1  0
 26 18  1  0
 27 26  1  0
 28 27  2  0
 29 28  1  0
 30 29  1  0
 31 29  2  0
 32 26  2  0
 32 31  1  0
 33 14  1  0
 34 11  1  0
 34 33  1  0
 35  3  1  0
 36  5  1  0
 37  6  1  0
 38  7  1  0
 39  8  1  0
 11 40  1  1
 41 12  1  0
 42 12  1  0
 43 13  1  0
 44 13  1  0
 45 15  1  0
 46 15  1  0
 47 16  1  0
 48 16  1  0
 49 17  1  0
 50 17  1  0
 51 18  1  0
 52 20  1  0
 53 21  1  0
 54 24  1  0
 55 25  1  0
 56 27  1  0
 57 28  1  0
 58 31  1  0
 59 32  1  0
 60 33  1  0
 61 33  1  0
 62 34  1  0
 63 34  1  0
 14 64  1  6
M  CHG  1  14   1
M  END
>  <b_m_subgroup_collapsed>  (87) 
0

>  <r_i_docking_score>  (87) 
-9.0959394941432894

>  <s_m_subgroup_title>  (87) 
glide-dock_SP_D22_pv

>  <s_m_subgroupid>  (87) 
glide-dock_SP_D22_pv

>  <Molecule ChEMBL ID>  (87) 
CHEMBL1423

>  <Standard Type>  (87) 
Ki

>  <Standard Value>  (87) 
1.4

>  <label>  (87) 
1

$$$$
CHEMBL5184538
     RDKit          3D

 76 80  0  0  1  0  0  0  0  0999 V2000
   11.8200   11.3153   -6.3430 C   0  0  0  0  0  0  0  0  0  0  0  0
   11.1381   10.1093   -6.6021 O   0  0  0  0  0  0  0  0  0  0  0  0
   11.3332    9.0668   -5.7236 C   0  0  0  0  0  0  0  0  0  0  0  0
   12.0090    9.2323   -4.4815 C   0  0  0  0  0  0  0  0  0  0  0  0
   12.1839    8.1684   -3.5852 C   0  0  0  0  0  0  0  0  0  0  0  0
   11.6860    6.9072   -3.9208 C   0  0  0  0  0  0  0  0  0  0  0  0
   11.0114    6.7378   -5.1406 C   0  0  0  0  0  0  0  0  0  0  0  0
   10.8208    7.7857   -6.0630 C   0  0  0  0  0  0  0  0  0  0  0  0
   10.1505    7.4915   -7.2773 N   0  0  0  0  0  0  0  0  0  0  0  0
   10.3837    8.2537   -8.4973 C   0  0  0  0  0  0  0  0  0  0  0  0
   10.2339    7.3603   -9.7407 C   0  0  0  0  0  0  0  0  0  0  0  0
    8.9697    6.5723   -9.7541 N   0  0  0  0  0  0  0  0  0  0  0  0
    8.9061    5.7090  -10.9656 C   0  0  0  0  0  0  0  0  0  0  0  0
    7.4854    5.2112  -11.2942 C   0  0  0  0  0  0  0  0  0  0  0  0
    7.0851    5.3459  -12.7776 C   0  0  0  0  0  0  0  0  0  0  0  0
    7.2055    4.0357  -13.5599 C   0  0  0  0  0  0  0  0  0  0  0  0
    6.1335    3.1135  -13.2195 N   0  0  0  0  0  0  0  0  0  0  0  0
    5.9915    1.8696  -13.7915 C   0  0  0  0  0  0  0  0  0  0  0  0
    4.8861    1.2183  -13.4406 N   0  0  0  0  0  0  0  0  0  0  0  0
    4.7625    0.0583  -14.0775 C   0  0  0  0  0  0  0  0  0  0  0  0
    3.6019   -0.6277  -13.8469 N   0  0  0  0  0  0  0  0  0  0  0  0
    5.6117   -0.5029  -14.9300 N   0  0  0  0  0  0  0  0  0  0  0  0
    6.6640    0.2745  -15.1767 C   0  0  0  0  0  0  0  0  0  0  0  0
    7.5581   -0.2277  -16.0952 N   0  0  0  0  0  0  0  0  0  0  0  0
    8.6650    0.5277  -16.6616 C   0  0  0  0  0  0  0  0  0  0  0  0
    9.9151    0.5060  -15.7707 C   0  0  0  0  0  0  0  0  0  0  0  0
   10.8948    1.5492  -16.2085 C   0  0  0  0  0  0  0  0  0  0  0  0
   11.6194    1.5589  -17.3739 C   0  0  0  0  0  0  0  0  0  0  0  0
   12.3664    2.7233  -17.4318 N   0  0  0  0  0  0  0  0  0  0  0  0
   12.1568    3.4938  -16.3050 C   0  0  0  0  0  0  0  0  0  0  0  0
   12.6726    4.7371  -15.8963 C   0  0  0  0  0  0  0  0  0  0  0  0
   12.2737    5.2788  -14.6602 C   0  0  0  0  0  0  0  0  0  0  0  0
   11.3675    4.5724  -13.8468 C   0  0  0  0  0  0  0  0  0  0  0  0
   10.8606    3.3250  -14.2640 C   0  0  0  0  0  0  0  0  0  0  0  0
   11.2353    2.7581  -15.5051 C   0  0  0  0  0  0  0  0  0  0  0  0
    6.9227    1.4764  -14.6578 N   0  0  0  0  0  0  0  0  0  0  0  0
    8.7558    5.8358   -8.4778 C   0  0  0  0  0  0  0  0  0  0  0  0
    8.8868    6.7589   -7.2466 C   0  0  0  0  0  0  0  0  0  0  0  0
   11.6860   12.0364   -7.1446 H   0  0  0  0  0  0  0  0  0  0  0  0
   11.4291   11.7720   -5.4464 H   0  0  0  0  0  0  0  0  0  0  0  0
   12.8860   11.1363   -6.2469 H   0  0  0  0  0  0  0  0  0  0  0  0
   12.4172   10.1723   -4.1676 H   0  0  0  0  0  0  0  0  0  0  0  0
   12.7005    8.3223   -2.6482 H   0  0  0  0  0  0  0  0  0  0  0  0
   11.8083    6.0734   -3.2448 H   0  0  0  0  0  0  0  0  0  0  0  0
   10.6319    5.7723   -5.3797 H   0  0  0  0  0  0  0  0  0  0  0  0
    9.6744    9.0815   -8.5391 H   0  0  0  0  0  0  0  0  0  0  0  0
   11.3872    8.6800   -8.5004 H   0  0  0  0  0  0  0  0  0  0  0  0
   10.2945    7.9824  -10.6343 H   0  0  0  0  0  0  0  0  0  0  0  0
   11.0769    6.6689   -9.7820 H   0  0  0  0  0  0  0  0  0  0  0  0
    9.2819    6.2929  -11.8065 H   0  0  0  0  0  0  0  0  0  0  0  0
    9.5896    4.8644  -10.8659 H   0  0  0  0  0  0  0  0  0  0  0  0
    7.3620    4.1838  -10.9497 H   0  0  0  0  0  0  0  0  0  0  0  0
    6.7637    5.7723  -10.7147 H   0  0  0  0  0  0  0  0  0  0  0  0
    6.0567    5.7048  -12.8445 H   0  0  0  0  0  0  0  0  0  0  0  0
    7.6829    6.1155  -13.2667 H   0  0  0  0  0  0  0  0  0  0  0  0
    7.1677    4.2267  -14.6347 H   0  0  0  0  0  0  0  0  0  0  0  0
    8.1661    3.5658  -13.3575 H   0  0  0  0  0  0  0  0  0  0  0  0
    5.4071    3.4092  -12.5852 H   0  0  0  0  0  0  0  0  0  0  0  0
    3.3792   -1.3659  -14.5004 H   0  0  0  0  0  0  0  0  0  0  0  0
    2.8126   -0.0990  -13.4988 H   0  0  0  0  0  0  0  0  0  0  0  0
    7.5108   -1.2313  -16.2470 H   0  0  0  0  0  0  0  0  0  0  0  0
    8.8998    0.1307  -17.6495 H   0  0  0  0  0  0  0  0  0  0  0  0
    8.3383    1.5569  -16.8179 H   0  0  0  0  0  0  0  0  0  0  0  0
    9.6342    0.6830  -14.7321 H   0  0  0  0  0  0  0  0  0  0  0  0
   10.3711   -0.4844  -15.7915 H   0  0  0  0  0  0  0  0  0  0  0  0
   11.6528    0.8350  -18.1755 H   0  0  0  0  0  0  0  0  0  0  0  0
   12.9748    2.9551  -18.2030 H   0  0  0  0  0  0  0  0  0  0  0  0
   13.3754    5.2680  -16.5209 H   0  0  0  0  0  0  0  0  0  0  0  0
   12.6695    6.2294  -14.3326 H   0  0  0  0  0  0  0  0  0  0  0  0
   11.0636    4.9873  -12.8992 H   0  0  0  0  0  0  0  0  0  0  0  0
   10.1819    2.7812  -13.6240 H   0  0  0  0  0  0  0  0  0  0  0  0
    7.7697    5.3730   -8.4761 H   0  0  0  0  0  0  0  0  0  0  0  0
    9.4838    5.0267   -8.4018 H   0  0  0  0  0  0  0  0  0  0  0  0
    8.7587    6.1772   -6.3346 H   0  0  0  0  0  0  0  0  0  0  0  0
    8.0861    7.4970   -7.2430 H   0  0  0  0  0  0  0  0  0  0  0  0
    8.1983    7.2326   -9.8346 H   0  0  0  0  0  0  0  0  0  0  0  0
  2  1  1  0
  3  2  1  0
  4  3  2  0
  5  4  1  0
  6  5  2  0
  7  6  1  0
  8  3  1  0
  8  7  2  0
  9  8  1  0
 10  9  1  0
 11 10  1  0
 12 11  1  0
 13 12  1  0
 14 13  1  0
 15 14  1  0
 16 15  1  0
 17 16  1  0
 18 17  1  0
 19 18  2  0
 20 19  1  0
 21 20  1  0
 22 20  2  0
 23 22  1  0
 24 23  1  0
 25 24  1  0
 26 25  1  0
 27 26  1  0
 28 27  2  0
 29 28  1  0
 30 29  1  0
 31 30  2  0
 32 31  1  0
 33 32  2  0
 34 33  1  0
 35 27  1  0
 35 30  1  0
 35 34  2  0
 36 18  1  0
 36 23  2  0
 37 12  1  0
 38  9  1  0
 38 37  1  0
 39  1  1  0
 40  1  1  0
 41  1  1  0
 42  4  1  0
 43  5  1  0
 44  6  1  0
 45  7  1  0
 46 10  1  0
 47 10  1  0
 48 11  1  0
 49 11  1  0
 50 13  1  0
 51 13  1  0
 52 14  1  0
 53 14  1  0
 54 15  1  0
 55 15  1  0
 56 16  1  0
 57 16  1  0
 58 17  1  0
 59 21  1  0
 60 21  1  0
 61 24  1  0
 62 25  1  0
 63 25  1  0
 64 26  1  0
 65 26  1  0
 66 28  1  0
 67 29  1  0
 68 31  1  0
 69 32  1  0
 70 33  1  0
 71 34  1  0
 72 37  1  0
 73 37  1  0
 74 38  1  0
 75 38  1  0
 76 12  1  0
M  CHG  1  12   1
M  END
>  <b_m_subgroup_collapsed>  (88) 
0

>  <r_i_docking_score>  (88) 
-9.0855520402509207

>  <s_m_subgroup_title>  (88) 
glide-dock_SP_D22_pv

>  <s_m_subgroupid>  (88) 
glide-dock_SP_D22_pv

>  <Molecule ChEMBL ID>  (88) 
CHEMBL5184538

>  <Standard Type>  (88) 
Ki

>  <Standard Value>  (88) 
13.0

>  <label>  (88) 
1

$$$$
CHEMBL208274
     RDKit          3D

 60 64  0  0  1  0  0  0  0  0999 V2000
   11.6862   11.1996   -6.0082 C   0  0  0  0  0  0  0  0  0  0  0  0
   10.9013   10.0416   -6.0694 O   0  0  0  0  0  0  0  0  0  0  0  0
   11.2885    9.0669   -5.1870 C   0  0  0  0  0  0  0  0  0  0  0  0
   11.6895    9.3494   -3.8556 C   0  0  0  0  0  0  0  0  0  0  0  0
   12.0872    8.3103   -2.9949 C   0  0  0  0  0  0  0  0  0  0  0  0
   12.0813    6.9830   -3.4575 C   0  0  0  0  0  0  0  0  0  0  0  0
   11.6675    6.7082   -4.7755 C   0  0  0  0  0  0  0  0  0  0  0  0
   11.2695    7.7389   -5.6510 C   0  0  0  0  0  0  0  0  0  0  0  0
   10.8539    7.4702   -6.9692 N   0  0  0  0  0  0  0  0  0  0  0  0
   11.6105    8.0254   -8.0918 C   0  0  0  0  0  0  0  0  0  0  0  0
   10.7086    8.2141   -9.3277 C   0  0  0  0  0  0  0  0  0  0  0  0
    9.8814    7.0076   -9.6023 N   0  0  0  0  0  0  0  0  0  0  0  0
    9.0863    7.1182  -10.8477 C   0  0  0  0  0  0  0  0  0  0  0  0
    9.7244    6.3283  -11.9484 C   0  0  0  0  0  0  0  0  0  0  0  0
   10.8799    6.5600  -12.6460 C   0  0  0  0  0  0  0  0  0  0  0  0
   10.9709    5.5528  -13.5960 N   0  0  0  0  0  0  0  0  0  0  0  0
   11.9093    5.3240  -14.5539 C   0  0  0  0  0  0  0  0  0  0  0  0
   11.7456    4.2680  -15.4178 C   0  0  0  0  0  0  0  0  0  0  0  0
   12.7651    4.0166  -16.5096 C   0  0  0  0  0  0  0  0  0  0  0  0
   10.6128    3.4275  -15.3046 C   0  0  0  0  0  0  0  0  0  0  0  0
    9.6530    3.6294  -14.3317 C   0  0  0  0  0  0  0  0  0  0  0  0
    8.4750    2.7283  -14.2465 C   0  0  0  0  0  0  0  0  0  0  0  0
    8.5976    1.3464  -14.5337 C   0  0  0  0  0  0  0  0  0  0  0  0
    7.4927    0.4780  -14.4373 C   0  0  0  0  0  0  0  0  0  0  0  0
    6.2363    0.9754  -14.0494 C   0  0  0  0  0  0  0  0  0  0  0  0
    6.0876    2.3455  -13.7696 C   0  0  0  0  0  0  0  0  0  0  0  0
    7.1947    3.2109  -13.8729 C   0  0  0  0  0  0  0  0  0  0  0  0
    9.8294    4.7256  -13.4283 C   0  0  0  0  0  0  0  0  0  0  0  0
    9.1086    5.1738  -12.4007 N   0  0  0  0  0  0  0  0  0  0  0  0
    9.0718    6.6123   -8.4219 C   0  0  0  0  0  0  0  0  0  0  0  0
    9.9783    6.3360   -7.2135 C   0  0  0  0  0  0  0  0  0  0  0  0
   11.6446   11.7724   -6.9339 H   0  0  0  0  0  0  0  0  0  0  0  0
   11.2860   11.7672   -5.1714 H   0  0  0  0  0  0  0  0  0  0  0  0
   12.7385   10.9636   -5.8474 H   0  0  0  0  0  0  0  0  0  0  0  0
   11.6842   10.3588   -3.4715 H   0  0  0  0  0  0  0  0  0  0  0  0
   12.3895    8.5332   -1.9818 H   0  0  0  0  0  0  0  0  0  0  0  0
   12.3842    6.1758   -2.8059 H   0  0  0  0  0  0  0  0  0  0  0  0
   11.6774    5.7002   -5.1339 H   0  0  0  0  0  0  0  0  0  0  0  0
   12.4455    7.3731   -8.3282 H   0  0  0  0  0  0  0  0  0  0  0  0
   12.0729    8.9764   -7.8345 H   0  0  0  0  0  0  0  0  0  0  0  0
   11.3214    8.4564  -10.1971 H   0  0  0  0  0  0  0  0  0  0  0  0
   10.0449    9.0648   -9.1618 H   0  0  0  0  0  0  0  0  0  0  0  0
    8.9424    8.1600  -11.1383 H   0  0  0  0  0  0  0  0  0  0  0  0
    8.0862    6.7194  -10.6865 H   0  0  0  0  0  0  0  0  0  0  0  0
   11.6301    7.3359  -12.6020 H   0  0  0  0  0  0  0  0  0  0  0  0
   12.7503    6.0090  -14.5972 H   0  0  0  0  0  0  0  0  0  0  0  0
   13.7537    4.3559  -16.2069 H   0  0  0  0  0  0  0  0  0  0  0  0
   12.8330    2.9548  -16.7434 H   0  0  0  0  0  0  0  0  0  0  0  0
   12.4865    4.5549  -17.4146 H   0  0  0  0  0  0  0  0  0  0  0  0
   10.4942    2.6133  -16.0122 H   0  0  0  0  0  0  0  0  0  0  0  0
    9.5552    0.9293  -14.8074 H   0  0  0  0  0  0  0  0  0  0  0  0
    7.6122   -0.5743  -14.6531 H   0  0  0  0  0  0  0  0  0  0  0  0
    5.3896    0.3092  -13.9727 H   0  0  0  0  0  0  0  0  0  0  0  0
    5.1257    2.7349  -13.4701 H   0  0  0  0  0  0  0  0  0  0  0  0
    7.0447    4.2589  -13.6617 H   0  0  0  0  0  0  0  0  0  0  0  0
    8.3744    7.4143   -8.1804 H   0  0  0  0  0  0  0  0  0  0  0  0
    8.4771    5.7250   -8.6446 H   0  0  0  0  0  0  0  0  0  0  0  0
   10.5826    5.4464   -7.3932 H   0  0  0  0  0  0  0  0  0  0  0  0
    9.3601    6.1614   -6.3319 H   0  0  0  0  0  0  0  0  0  0  0  0
   10.5177    6.2404   -9.7624 H   0  0  0  0  0  0  0  0  0  0  0  0
  2  1  1  0
  3  2  1  0
  4  3  2  0
  5  4  1  0
  6  5  2  0
  7  6  1  0
  8  3  1  0
  8  7  2  0
  9  8  1  0
 10  9  1  0
 11 10  1  0
 12 11  1  0
 13 12  1  0
 14 13  1  0
 15 14  2  0
 16 15  1  0
 17 16  1  0
 18 17  2  0
 19 18  1  0
 20 18  1  0
 21 20  2  0
 22 21  1  0
 23 22  2  0
 24 23  1  0
 25 24  2  0
 26 25  1  0
 27 22  1  0
 27 26  2  0
 28 16  1  0
 28 21  1  0
 29 14  1  0
 29 28  2  0
 30 12  1  0
 31  9  1  0
 31 30  1  0
 32  1  1  0
 33  1  1  0
 34  1  1  0
 35  4  1  0
 36  5  1  0
 37  6  1  0
 38  7  1  0
 39 10  1  0
 40 10  1  0
 41 11  1  0
 42 11  1  0
 43 13  1  0
 44 13  1  0
 45 15  1  0
 46 17  1  0
 47 19  1  0
 48 19  1  0
 49 19  1  0
 50 20  1  0
 51 23  1  0
 52 24  1  0
 53 25  1  0
 54 26  1  0
 55 27  1  0
 56 30  1  0
 57 30  1  0
 58 31  1  0
 59 31  1  0
 60 12  1  0
M  CHG  1  12   1
M  END
>  <b_m_subgroup_collapsed>  (89) 
0

>  <r_i_docking_score>  (89) 
-9.0769752464525606

>  <s_m_subgroup_title>  (89) 
glide-dock_SP_D22_pv

>  <s_m_subgroupid>  (89) 
glide-dock_SP_D22_pv

>  <Molecule ChEMBL ID>  (89) 
CHEMBL208274

>  <Standard Type>  (89) 
Ki

>  <Standard Value>  (89) 
28.0

>  <label>  (89) 
1

$$$$
CHEMBL599135
     RDKit          3D

 60 64  0  0  1  0  0  0  0  0999 V2000
   12.3059    7.0640  -17.4220 C   0  0  0  0  0  0  0  0  0  0  0  0
   12.8738    5.9003  -16.6895 N   0  0  2  0  0  0  0  0  0  0  0  0
   13.0508    4.7072  -17.5543 C   0  0  0  0  0  0  0  0  0  0  0  0
   11.7327    4.0743  -18.0322 C   0  0  0  0  0  0  0  0  0  0  0  0
   11.1448    3.1272  -17.0057 C   0  0  0  0  0  0  0  0  0  0  0  0
   10.9322    1.7881  -17.3932 C   0  0  0  0  0  0  0  0  0  0  0  0
   10.4249    0.8472  -16.4851 C   0  0  0  0  0  0  0  0  0  0  0  0
   10.0866   -0.7498  -17.0468 Cl  0  0  0  0  0  0  0  0  0  0  0  0
   10.1967    1.2223  -15.1469 C   0  0  0  0  0  0  0  0  0  0  0  0
    9.7187    0.3091  -14.2469 O   0  0  0  0  0  0  0  0  0  0  0  0
   10.4338    2.5532  -14.7486 C   0  0  0  0  0  0  0  0  0  0  0  0
   10.8358    3.5442  -15.6863 C   0  0  0  0  0  0  0  0  0  0  0  0
   10.8686    5.0410  -15.3091 C   0  0  1  0  0  0  0  0  0  0  0  0
   10.0461    5.3636  -14.0425 C   0  0  0  0  0  0  0  0  0  0  0  0
    8.6928    4.9590  -14.0144 C   0  0  0  0  0  0  0  0  0  0  0  0
    7.8851    5.1980  -12.8954 C   0  0  0  0  0  0  0  0  0  0  0  0
    8.4239    5.8578  -11.7845 C   0  0  0  0  0  0  0  0  0  0  0  0
    9.7643    6.3094  -11.7802 C   0  0  0  0  0  0  0  0  0  0  0  0
   10.2586    6.9727  -10.5455 C   0  0  0  0  0  0  0  0  0  0  0  0
    9.8367    6.6949   -9.3852 N   0  0  0  0  0  0  0  0  0  0  0  0
   10.5139    7.4334   -8.4101 O   0  0  0  0  0  0  0  0  0  0  0  0
   10.0715    6.9699   -7.1441 C   0  0  0  0  0  0  0  0  0  0  0  0
   10.7313    7.7332   -6.0135 C   0  0  0  0  0  0  0  0  0  0  0  0
   11.3146    7.0493   -4.9255 C   0  0  0  0  0  0  0  0  0  0  0  0
   11.9081    7.7714   -3.8706 C   0  0  0  0  0  0  0  0  0  0  0  0
   11.8975    9.1810   -3.8894 C   0  0  0  0  0  0  0  0  0  0  0  0
   11.3021    9.8647   -4.9678 C   0  0  0  0  0  0  0  0  0  0  0  0
   10.7305    9.1425   -6.0322 C   0  0  0  0  0  0  0  0  0  0  0  0
   10.5777    6.0790  -12.9337 C   0  0  0  0  0  0  0  0  0  0  0  0
   12.0191    6.5728  -13.0147 C   0  0  0  0  0  0  0  0  0  0  0  0
   12.4285    6.8971  -14.4418 C   0  0  0  0  0  0  0  0  0  0  0  0
   12.3043    5.6481  -15.3298 C   0  0  2  0  0  0  0  0  0  0  0  0
   11.2322    6.9724  -17.5810 H   0  0  0  0  0  0  0  0  0  0  0  0
   12.7731    7.1730  -18.4017 H   0  0  0  0  0  0  0  0  0  0  0  0
   12.4908    8.0012  -16.8978 H   0  0  0  0  0  0  0  0  0  0  0  0
   13.6285    5.0175  -18.4266 H   0  0  0  0  0  0  0  0  0  0  0  0
   13.6689    3.9644  -17.0467 H   0  0  0  0  0  0  0  0  0  0  0  0
   10.9910    4.8179  -18.3211 H   0  0  0  0  0  0  0  0  0  0  0  0
   11.9417    3.5143  -18.9445 H   0  0  0  0  0  0  0  0  0  0  0  0
   11.1376    1.4729  -18.4059 H   0  0  0  0  0  0  0  0  0  0  0  0
    9.7164    0.5773  -13.3272 H   0  0  0  0  0  0  0  0  0  0  0  0
   10.2368    2.8135  -13.7183 H   0  0  0  0  0  0  0  0  0  0  0  0
   10.2943    5.5472  -16.0851 H   0  0  0  0  0  0  0  0  0  0  0  0
    8.2749    4.4267  -14.8530 H   0  0  0  0  0  0  0  0  0  0  0  0
    6.8558    4.8695  -12.8808 H   0  0  0  0  0  0  0  0  0  0  0  0
    7.7822    6.0316  -10.9294 H   0  0  0  0  0  0  0  0  0  0  0  0
   11.0399    7.7256  -10.6626 H   0  0  0  0  0  0  0  0  0  0  0  0
    8.9884    7.0876   -7.0514 H   0  0  0  0  0  0  0  0  0  0  0  0
   10.2897    5.9046   -7.0445 H   0  0  0  0  0  0  0  0  0  0  0  0
   11.3123    5.9696   -4.8960 H   0  0  0  0  0  0  0  0  0  0  0  0
   12.3595    7.2440   -3.0435 H   0  0  0  0  0  0  0  0  0  0  0  0
   12.3421    9.7356   -3.0749 H   0  0  0  0  0  0  0  0  0  0  0  0
   11.2859   10.9444   -4.9856 H   0  0  0  0  0  0  0  0  0  0  0  0
   10.2780    9.6698   -6.8595 H   0  0  0  0  0  0  0  0  0  0  0  0
   12.1884    7.4619  -12.4114 H   0  0  0  0  0  0  0  0  0  0  0  0
   12.6840    5.7963  -12.6469 H   0  0  0  0  0  0  0  0  0  0  0  0
   11.7916    7.7045  -14.8048 H   0  0  0  0  0  0  0  0  0  0  0  0
   13.4540    7.2703  -14.4476 H   0  0  0  0  0  0  0  0  0  0  0  0
   12.9577    4.9072  -14.8662 H   0  0  0  0  0  0  0  0  0  0  0  0
   13.8228    6.1867  -16.4934 H   0  0  0  0  0  0  0  0  0  0  0  0
  2  1  1  0
  3  2  1  0
  4  3  1  0
  5  4  1  0
  6  5  1  0
  7  6  2  0
  8  7  1  0
  9  7  1  0
 10  9  1  0
 11  9  2  0
 12  5  2  0
 12 11  1  0
 13 12  1  0
 14 13  1  0
 15 14  2  0
 16 15  1  0
 17 16  2  0
 18 17  1  0
 19 18  1  0
 20 19  2  0
 21 20  1  0
 22 21  1  0
 23 22  1  0
 24 23  2  0
 25 24  1  0
 26 25  2  0
 27 26  1  0
 28 23  1  0
 28 27  2  0
 29 14  1  0
 29 18  2  0
 30 29  1  0
 31 30  1  0
 32  2  1  0
 32 13  1  0
 32 31  1  0
 33  1  1  0
 34  1  1  0
 35  1  1  0
 36  3  1  0
 37  3  1  0
 38  4  1  0
 39  4  1  0
 40  6  1  0
 41 10  1  0
 42 11  1  0
 13 43  1  6
 44 15  1  0
 45 16  1  0
 46 17  1  0
 47 19  1  0
 48 22  1  0
 49 22  1  0
 50 24  1  0
 51 25  1  0
 52 26  1  0
 53 27  1  0
 54 28  1  0
 55 30  1  0
 56 30  1  0
 57 31  1  0
 58 31  1  0
 32 59  1  1
  2 60  1  1
M  CHG  1   2   1
M  END
>  <b_m_subgroup_collapsed>  (90) 
0

>  <r_i_docking_score>  (90) 
-9.0743616262436895

>  <s_m_subgroup_title>  (90) 
glide-dock_SP_D22_pv

>  <s_m_subgroupid>  (90) 
glide-dock_SP_D22_pv

>  <Molecule ChEMBL ID>  (90) 
CHEMBL599135

>  <Standard Type>  (90) 
Ki

>  <Standard Value>  (90) 
69.0

>  <label>  (90) 
1

$$$$
CHEMBL5949172
     RDKit          3D

 51 55  0  0  1  0  0  0  0  0999 V2000
   10.1365    0.2172  -15.7614 C   0  0  0  0  0  0  0  0  0  0  0  0
    9.5887    1.3823  -15.1009 N   0  0  0  0  0  0  0  0  0  0  0  0
   10.2690    2.4728  -14.5808 C   0  0  0  0  0  0  0  0  0  0  0  0
    9.2942    3.2568  -14.0460 C   0  0  0  0  0  0  0  0  0  0  0  0
    8.0724    2.6141  -14.2837 C   0  0  0  0  0  0  0  0  0  0  0  0
    8.2404    1.4725  -14.9308 N   0  0  0  0  0  0  0  0  0  0  0  0
    6.7618    3.1543  -13.8212 C   0  0  0  0  0  0  0  0  0  0  0  0
    6.9725    4.1723  -12.6679 C   0  0  0  0  0  0  0  0  0  0  0  0
    8.2737    4.8972  -12.6231 N   0  0  0  0  0  0  0  0  0  0  0  0
    8.3019    5.9707  -11.6232 C   0  0  0  0  0  0  0  0  0  0  0  0
    9.1589    5.5803  -10.4052 C   0  0  0  0  0  0  0  0  0  0  0  0
    8.8860    6.4466   -9.2362 N   0  0  1  0  0  0  0  0  0  0  0  0
    8.6238    5.6847   -8.0043 C   0  0  0  0  0  0  0  0  0  0  0  0
    8.6866    6.7017   -6.8755 C   0  0  0  0  0  0  0  0  0  0  0  0
    9.5018    7.8687   -7.4519 C   0  0  1  0  0  0  0  0  0  0  0  0
   10.5501    8.5146   -6.5633 C   0  0  0  0  0  0  0  0  0  0  0  0
   10.8863    9.7721   -6.8286 N   0  0  0  0  0  0  0  0  0  0  0  0
   11.6699   10.2643   -5.7549 O   0  0  0  0  0  0  0  0  0  0  0  0
   11.8510    9.2593   -4.8260 C   0  0  0  0  0  0  0  0  0  0  0  0
   12.4696    9.2685   -3.5681 C   0  0  0  0  0  0  0  0  0  0  0  0
   12.4848    8.0686   -2.8317 C   0  0  0  0  0  0  0  0  0  0  0  0
   11.9234    6.8951   -3.3825 C   0  0  0  0  0  0  0  0  0  0  0  0
   11.2902    6.9161   -4.6471 C   0  0  0  0  0  0  0  0  0  0  0  0
   11.2194    8.1321   -5.3664 C   0  0  0  0  0  0  0  0  0  0  0  0
    9.9500    7.3976   -8.8424 C   0  0  0  0  0  0  0  0  0  0  0  0
    9.4003    4.5361  -13.2923 C   0  0  0  0  0  0  0  0  0  0  0  0
   10.4648    5.1526  -13.2459 O   0  0  0  0  0  0  0  0  0  0  0  0
   11.2256    0.2712  -15.7757 H   0  0  0  0  0  0  0  0  0  0  0  0
    9.8328   -0.6846  -15.2290 H   0  0  0  0  0  0  0  0  0  0  0  0
    9.7683    0.1678  -16.7868 H   0  0  0  0  0  0  0  0  0  0  0  0
   11.3438    2.5758  -14.6153 H   0  0  0  0  0  0  0  0  0  0  0  0
    6.2610    3.6565  -14.6464 H   0  0  0  0  0  0  0  0  0  0  0  0
    6.0961    2.3515  -13.5026 H   0  0  0  0  0  0  0  0  0  0  0  0
    6.8864    3.6423  -11.7193 H   0  0  0  0  0  0  0  0  0  0  0  0
    6.1410    4.8788  -12.6788 H   0  0  0  0  0  0  0  0  0  0  0  0
    7.2854    6.1718  -11.2933 H   0  0  0  0  0  0  0  0  0  0  0  0
    8.6639    6.8973  -12.0704 H   0  0  0  0  0  0  0  0  0  0  0  0
   10.2166    5.6143  -10.6525 H   0  0  0  0  0  0  0  0  0  0  0  0
    8.9400    4.5439  -10.1478 H   0  0  0  0  0  0  0  0  0  0  0  0
    9.4178    4.9515   -7.8581 H   0  0  0  0  0  0  0  0  0  0  0  0
    7.6860    5.1431   -8.0389 H   0  0  0  0  0  0  0  0  0  0  0  0
    9.0710    6.2313   -5.9775 H   0  0  0  0  0  0  0  0  0  0  0  0
    7.6862    7.0583   -6.6467 H   0  0  0  0  0  0  0  0  0  0  0  0
    8.7565    8.6434   -7.6511 H   0  0  0  0  0  0  0  0  0  0  0  0
   12.8937   10.1724   -3.1623 H   0  0  0  0  0  0  0  0  0  0  0  0
   12.9255    8.0490   -1.8472 H   0  0  0  0  0  0  0  0  0  0  0  0
   11.9590    5.9726   -2.8197 H   0  0  0  0  0  0  0  0  0  0  0  0
   10.8768    5.9990   -5.0300 H   0  0  0  0  0  0  0  0  0  0  0  0
   10.0560    8.2189   -9.5525 H   0  0  0  0  0  0  0  0  0  0  0  0
   10.9062    6.8762   -8.7740 H   0  0  0  0  0  0  0  0  0  0  0  0
    8.0334    6.9727   -9.4324 H   0  0  0  0  0  0  0  0  0  0  0  0
  2  1  1  0
  3  2  1  0
  4  3  2  0
  5  4  1  0
  6  2  1  0
  6  5  2  0
  7  5  1  0
  8  7  1  0
  9  8  1  0
 10  9  1  0
 11 10  1  0
 12 11  1  0
 13 12  1  0
 14 13  1  0
 15 14  1  0
 16 15  1  0
 17 16  2  0
 18 17  1  0
 19 18  1  0
 20 19  2  0
 21 20  1  0
 22 21  2  0
 23 22  1  0
 24 16  1  0
 24 19  1  0
 24 23  2  0
 25 12  1  0
 25 15  1  0
 26  4  1  0
 26  9  1  0
 27 26  2  0
 28  1  1  0
 29  1  1  0
 30  1  1  0
 31  3  1  0
 32  7  1  0
 33  7  1  0
 34  8  1  0
 35  8  1  0
 36 10  1  0
 37 10  1  0
 38 11  1  0
 39 11  1  0
 40 13  1  0
 41 13  1  0
 42 14  1  0
 43 14  1  0
 15 44  1  6
 45 20  1  0
 46 21  1  0
 47 22  1  0
 48 23  1  0
 49 25  1  0
 50 25  1  0
 12 51  1  6
M  CHG  1  12   1
M  END
>  <b_m_subgroup_collapsed>  (91) 
0

>  <r_i_docking_score>  (91) 
-9.0733103394910692

>  <s_m_subgroup_title>  (91) 
glide-dock_SP_D22_pv

>  <s_m_subgroupid>  (91) 
glide-dock_SP_D22_pv

>  <Molecule ChEMBL ID>  (91) 
CHEMBL5949172

>  <Standard Type>  (91) 
Ki

>  <Standard Value>  (91) 
10000.0

>  <label>  (91) 
0

$$$$
CHEMBL1765629
     RDKit          3D

 67 70  0  0  1  0  0  0  0  0999 V2000
   10.8829    0.0673  -16.8896 C   0  0  0  0  0  0  0  0  0  0  0  0
    9.9608    1.1515  -16.3343 C   0  0  0  0  0  0  0  0  0  0  0  0
    9.7644    1.0535  -14.8003 C   0  0  0  0  0  0  0  0  0  0  0  0
    8.6448    1.8830  -14.2597 N   0  0  1  0  0  0  0  0  0  0  0  0
    8.5813    3.2756  -14.7957 C   0  0  0  0  0  0  0  0  0  0  0  0
    9.8040    4.1335  -14.4124 C   0  0  0  0  0  0  0  0  0  0  0  0
    9.9287    4.4671  -12.9138 C   0  0  0  0  0  0  0  0  0  0  0  0
    8.7744    5.3295  -12.3662 C   0  0  0  0  0  0  0  0  0  0  0  0
    9.0938    5.8537  -11.0442 N   0  0  0  0  0  0  0  0  0  0  0  0
    9.7399    7.0098  -10.8207 C   0  0  0  0  0  0  0  0  0  0  0  0
   10.1067    7.7592  -11.7268 O   0  0  0  0  0  0  0  0  0  0  0  0
   10.1072    7.2944   -9.3918 C   0  0  0  0  0  0  0  0  0  0  0  0
    9.3385    6.7899   -8.3178 C   0  0  0  0  0  0  0  0  0  0  0  0
    9.7275    7.0385   -6.9883 C   0  0  0  0  0  0  0  0  0  0  0  0
   10.8722    7.8121   -6.7018 C   0  0  0  0  0  0  0  0  0  0  0  0
   11.2865    8.0490   -5.3122 C   0  0  0  0  0  0  0  0  0  0  0  0
   11.6849    6.9723   -4.4888 C   0  0  0  0  0  0  0  0  0  0  0  0
   12.0859    7.1895   -3.1565 C   0  0  0  0  0  0  0  0  0  0  0  0
   12.0867    8.4956   -2.6338 C   0  0  0  0  0  0  0  0  0  0  0  0
   11.6925    9.5750   -3.4453 C   0  0  0  0  0  0  0  0  0  0  0  0
   11.3007    9.3552   -4.7794 C   0  0  0  0  0  0  0  0  0  0  0  0
   11.6156    8.3483   -7.7746 C   0  0  0  0  0  0  0  0  0  0  0  0
   11.2371    8.0943   -9.1066 C   0  0  0  0  0  0  0  0  0  0  0  0
    7.3367    1.1482  -14.1526 C   0  0  1  0  0  0  0  0  0  0  0  0
    6.1751    1.9755  -13.5310 C   0  0  0  0  0  0  0  0  0  0  0  0
    4.9608    1.0933  -13.1823 C   0  0  0  0  0  0  0  0  0  0  0  0
    4.7064    0.1085  -14.2204 N   0  0  0  0  0  0  0  0  0  0  0  0
    3.5785   -0.6288  -14.2052 N   0  0  0  0  0  0  0  0  0  0  0  0
    3.6879   -1.4223  -15.2649 C   0  0  0  0  0  0  0  0  0  0  0  0
    4.9056   -1.2155  -15.9737 C   0  0  0  0  0  0  0  0  0  0  0  0
    5.5372   -0.2316  -15.2664 C   0  0  0  0  0  0  0  0  0  0  0  0
    6.8522    0.4591  -15.4534 C   0  0  0  0  0  0  0  0  0  0  0  0
   10.9623    0.1402  -17.9753 H   0  0  0  0  0  0  0  0  0  0  0  0
   10.5081   -0.9294  -16.6488 H   0  0  0  0  0  0  0  0  0  0  0  0
   11.8856    0.1735  -16.4842 H   0  0  0  0  0  0  0  0  0  0  0  0
   10.3785    2.1244  -16.6014 H   0  0  0  0  0  0  0  0  0  0  0  0
    9.0096    1.0818  -16.8605 H   0  0  0  0  0  0  0  0  0  0  0  0
    9.6174    0.0128  -14.5033 H   0  0  0  0  0  0  0  0  0  0  0  0
   10.6897    1.3561  -14.3068 H   0  0  0  0  0  0  0  0  0  0  0  0
    8.4858    3.2520  -15.8809 H   0  0  0  0  0  0  0  0  0  0  0  0
    7.7007    3.8033  -14.4389 H   0  0  0  0  0  0  0  0  0  0  0  0
   10.7242    3.6610  -14.7550 H   0  0  0  0  0  0  0  0  0  0  0  0
    9.7505    5.0734  -14.9625 H   0  0  0  0  0  0  0  0  0  0  0  0
   10.0226    3.5524  -12.3247 H   0  0  0  0  0  0  0  0  0  0  0  0
   10.8689    5.0036  -12.7779 H   0  0  0  0  0  0  0  0  0  0  0  0
    8.5485    6.1514  -13.0485 H   0  0  0  0  0  0  0  0  0  0  0  0
    7.8625    4.7384  -12.2827 H   0  0  0  0  0  0  0  0  0  0  0  0
    8.8075    5.3112  -10.2432 H   0  0  0  0  0  0  0  0  0  0  0  0
    8.4406    6.2143   -8.4967 H   0  0  0  0  0  0  0  0  0  0  0  0
    9.1313    6.6369   -6.1817 H   0  0  0  0  0  0  0  0  0  0  0  0
   11.6806    5.9654   -4.8828 H   0  0  0  0  0  0  0  0  0  0  0  0
   12.3805    6.3546   -2.5377 H   0  0  0  0  0  0  0  0  0  0  0  0
   12.3811    8.6729   -1.6094 H   0  0  0  0  0  0  0  0  0  0  0  0
   11.6871   10.5736   -3.0374 H   0  0  0  0  0  0  0  0  0  0  0  0
   10.9995   10.1924   -5.3927 H   0  0  0  0  0  0  0  0  0  0  0  0
   12.4914    8.9501   -7.5753 H   0  0  0  0  0  0  0  0  0  0  0  0
   11.8322    8.5070   -9.9094 H   0  0  0  0  0  0  0  0  0  0  0  0
    7.5389    0.3408  -13.4468 H   0  0  0  0  0  0  0  0  0  0  0  0
    6.4860    2.5404  -12.6502 H   0  0  0  0  0  0  0  0  0  0  0  0
    5.8329    2.7205  -14.2478 H   0  0  0  0  0  0  0  0  0  0  0  0
    5.1406    0.5598  -12.2486 H   0  0  0  0  0  0  0  0  0  0  0  0
    4.0734    1.7134  -13.0473 H   0  0  0  0  0  0  0  0  0  0  0  0
    2.8865   -2.1124  -15.4904 H   0  0  0  0  0  0  0  0  0  0  0  0
    5.2573   -1.7233  -16.8599 H   0  0  0  0  0  0  0  0  0  0  0  0
    6.7494    1.1952  -16.2508 H   0  0  0  0  0  0  0  0  0  0  0  0
    7.5762   -0.2807  -15.7915 H   0  0  0  0  0  0  0  0  0  0  0  0
    8.9056    2.0097  -13.2905 H   0  0  0  0  0  0  0  0  0  0  0  0
  2  1  1  0
  3  2  1  0
  4  3  1  0
  5  4  1  0
  6  5  1  0
  7  6  1  0
  8  7  1  0
  9  8  1  0
 10  9  1  0
 11 10  2  0
 12 10  1  0
 13 12  1  0
 14 13  2  0
 15 14  1  0
 16 15  1  0
 17 16  2  0
 18 17  1  0
 19 18  2  0
 20 19  1  0
 21 16  1  0
 21 20  2  0
 22 15  2  0
 23 12  2  0
 23 22  1  0
 24  4  1  0
 25 24  1  0
 26 25  1  0
 27 26  1  0
 28 27  1  0
 29 28  2  0
 30 29  1  0
 31 27  1  0
 31 30  2  0
 32 24  1  0
 32 31  1  0
 33  1  1  0
 34  1  1  0
 35  1  1  0
 36  2  1  0
 37  2  1  0
 38  3  1  0
 39  3  1  0
 40  5  1  0
 41  5  1  0
 42  6  1  0
 43  6  1  0
 44  7  1  0
 45  7  1  0
 46  8  1  0
 47  8  1  0
 48  9  1  0
 49 13  1  0
 50 14  1  0
 51 17  1  0
 52 18  1  0
 53 19  1  0
 54 20  1  0
 55 21  1  0
 56 22  1  0
 57 23  1  0
 24 58  1  1
 59 25  1  0
 60 25  1  0
 61 26  1  0
 62 26  1  0
 63 29  1  0
 64 30  1  0
 65 32  1  0
 66 32  1  0
  4 67  1  1
M  CHG  1   4   1
M  END
>  <b_m_subgroup_collapsed>  (92) 
0

>  <r_i_docking_score>  (92) 
-9.0732240048809398

>  <s_m_subgroup_title>  (92) 
glide-dock_SP_D22_pv

>  <s_m_subgroupid>  (92) 
glide-dock_SP_D22_pv

>  <Molecule ChEMBL ID>  (92) 
CHEMBL1765629

>  <Standard Type>  (92) 
Ki

>  <Standard Value>  (92) 
77.0

>  <label>  (92) 
1

$$$$
CHEMBL4574793
     RDKit          3D

 50 52  0  0  1  0  0  0  0  0999 V2000
   10.5474    8.6820   -6.9470 O   0  0  0  0  0  0  0  0  0  0  0  0
   10.8604    7.7838   -6.1657 C   0  0  0  0  0  0  0  0  0  0  0  0
   10.7112    6.3121   -6.5710 C   0  0  0  0  0  0  0  0  0  0  0  0
   10.3099    6.0573   -8.0259 C   0  0  0  0  0  0  0  0  0  0  0  0
    8.8382    6.4005   -8.3497 C   0  0  0  0  0  0  0  0  0  0  0  0
    8.4868    6.1725   -9.7739 N   0  0  2  0  0  0  0  0  0  0  0  0
    8.3912    4.7374  -10.1372 C   0  0  0  0  0  0  0  0  0  0  0  0
    7.5358    4.5307  -11.4005 C   0  0  0  0  0  0  0  0  0  0  0  0
    8.3716    4.5360  -12.6891 C   0  0  0  0  0  0  0  0  0  0  0  0
    9.2428    5.7034  -12.8039 N   0  0  0  0  0  0  0  0  0  0  0  0
   10.4261    5.6224  -13.5769 C   0  0  0  0  0  0  0  0  0  0  0  0
   10.5791    4.6304  -14.5758 C   0  0  0  0  0  0  0  0  0  0  0  0
   11.7207    4.6535  -15.3976 C   0  0  0  0  0  0  0  0  0  0  0  0
   12.6782    5.6645  -15.2065 C   0  0  0  0  0  0  0  0  0  0  0  0
   14.0649    5.7739  -16.2281 Cl  0  0  0  0  0  0  0  0  0  0  0  0
   12.4661    6.5888  -14.1673 C   0  0  0  0  0  0  0  0  0  0  0  0
   11.3784    6.5663  -13.3669 N   0  0  0  0  0  0  0  0  0  0  0  0
    8.8714    6.9634  -12.1504 C   0  0  0  0  0  0  0  0  0  0  0  0
    9.3262    6.9902  -10.6911 C   0  0  0  0  0  0  0  0  0  0  0  0
   11.3949    8.0380   -4.7998 C   0  0  0  0  0  0  0  0  0  0  0  0
   11.7948    6.9745   -3.9531 C   0  0  0  0  0  0  0  0  0  0  0  0
   12.3469    7.2356   -2.6873 C   0  0  0  0  0  0  0  0  0  0  0  0
   12.4848    8.5607   -2.2458 C   0  0  0  0  0  0  0  0  0  0  0  0
   13.0483    8.8152   -1.0469 F   0  0  0  0  0  0  0  0  0  0  0  0
   12.0367    9.6230   -3.0496 C   0  0  0  0  0  0  0  0  0  0  0  0
   11.5094    9.3658   -4.3296 C   0  0  0  0  0  0  0  0  0  0  0  0
    9.9871    5.8523   -5.9031 H   0  0  0  0  0  0  0  0  0  0  0  0
   11.6687    5.8209   -6.4011 H   0  0  0  0  0  0  0  0  0  0  0  0
   10.4865    5.0062   -8.2519 H   0  0  0  0  0  0  0  0  0  0  0  0
   11.0026    6.6177   -8.6493 H   0  0  0  0  0  0  0  0  0  0  0  0
    8.6302    7.4461   -8.1169 H   0  0  0  0  0  0  0  0  0  0  0  0
    8.1653    5.8267   -7.7117 H   0  0  0  0  0  0  0  0  0  0  0  0
    7.9364    4.1898   -9.3123 H   0  0  0  0  0  0  0  0  0  0  0  0
    9.3879    4.3086  -10.2619 H   0  0  0  0  0  0  0  0  0  0  0  0
    6.7387    5.2764  -11.4484 H   0  0  0  0  0  0  0  0  0  0  0  0
    7.0081    3.5793  -11.3320 H   0  0  0  0  0  0  0  0  0  0  0  0
    7.7207    4.4830  -13.5628 H   0  0  0  0  0  0  0  0  0  0  0  0
    8.9835    3.6330  -12.6942 H   0  0  0  0  0  0  0  0  0  0  0  0
    9.8264    3.8778  -14.7545 H   0  0  0  0  0  0  0  0  0  0  0  0
   11.8469    3.9209  -16.1815 H   0  0  0  0  0  0  0  0  0  0  0  0
   13.1822    7.3735  -13.9753 H   0  0  0  0  0  0  0  0  0  0  0  0
    9.3300    7.8162  -12.6468 H   0  0  0  0  0  0  0  0  0  0  0  0
    7.7961    7.1327  -12.2309 H   0  0  0  0  0  0  0  0  0  0  0  0
    9.2898    8.0246  -10.3441 H   0  0  0  0  0  0  0  0  0  0  0  0
   10.3707    6.6832  -10.6583 H   0  0  0  0  0  0  0  0  0  0  0  0
   11.7037    5.9409   -4.2494 H   0  0  0  0  0  0  0  0  0  0  0  0
   12.6673    6.4165   -2.0596 H   0  0  0  0  0  0  0  0  0  0  0  0
   12.0885   10.6358   -2.6740 H   0  0  0  0  0  0  0  0  0  0  0  0
   11.1877   10.1981   -4.9389 H   0  0  0  0  0  0  0  0  0  0  0  0
    7.5525    6.5871   -9.8621 H   0  0  0  0  0  0  0  0  0  0  0  0
  2  1  2  0
  3  2  1  0
  4  3  1  0
  5  4  1  0
  6  5  1  0
  7  6  1  0
  8  7  1  0
  9  8  1  0
 10  9  1  0
 11 10  1  0
 12 11  2  0
 13 12  1  0
 14 13  2  0
 15 14  1  0
 16 14  1  0
 17 11  1  0
 17 16  2  0
 18 10  1  0
 19  6  1  0
 19 18  1  0
 20  2  1  0
 21 20  1  0
 22 21  2  0
 23 22  1  0
 24 23  1  0
 25 23  2  0
 26 20  2  0
 26 25  1  0
 27  3  1  0
 28  3  1  0
 29  4  1  0
 30  4  1  0
 31  5  1  0
 32  5  1  0
 33  7  1  0
 34  7  1  0
 35  8  1  0
 36  8  1  0
 37  9  1  0
 38  9  1  0
 39 12  1  0
 40 13  1  0
 41 16  1  0
 42 18  1  0
 43 18  1  0
 44 19  1  0
 45 19  1  0
 46 21  1  0
 47 22  1  0
 48 25  1  0
 49 26  1  0
  6 50  1  1
M  CHG  1   6   1
M  END
>  <b_m_subgroup_collapsed>  (93) 
0

>  <r_i_docking_score>  (93) 
-9.0719761464560307

>  <s_m_subgroup_title>  (93) 
glide-dock_SP_D22_pv

>  <s_m_subgroupid>  (93) 
glide-dock_SP_D22_pv

>  <Molecule ChEMBL ID>  (93) 
CHEMBL4574793

>  <Standard Type>  (93) 
Ki

>  <Standard Value>  (93) 
41.0

>  <label>  (93) 
1

$$$$
CHEMBL493069
     RDKit          3D

 55 58  0  0  1  0  0  0  0  0999 V2000
    5.2839   -1.6555  -15.8514 C   0  0  0  0  0  0  0  0  0  0  0  0
    6.1395   -0.5344  -15.6895 O   0  0  0  0  0  0  0  0  0  0  0  0
    6.0035    0.2473  -14.6051 C   0  0  0  0  0  0  0  0  0  0  0  0
    5.1785    0.0541  -13.7111 O   0  0  0  0  0  0  0  0  0  0  0  0
    6.9277    1.4104  -14.6014 C   0  0  0  0  0  0  0  0  0  0  0  0
    8.1056    1.4450  -15.3051 C   0  0  0  0  0  0  0  0  0  0  0  0
    8.7769    2.6184  -15.0998 O   0  0  0  0  0  0  0  0  0  0  0  0
    8.0057    3.3430  -14.2467 C   0  0  0  0  0  0  0  0  0  0  0  0
    6.8609    2.6749  -13.9406 C   0  0  0  0  0  0  0  0  0  0  0  0
    5.8778    3.3248  -13.0590 C   0  0  0  0  0  0  0  0  0  0  0  0
    4.8858    2.7423  -12.6468 O   0  0  0  0  0  0  0  0  0  0  0  0
    6.1211    4.8076  -12.7303 C   0  0  0  0  0  0  0  0  0  0  0  0
    7.6195    5.2051  -12.5995 C   0  0  1  0  0  0  0  0  0  0  0  0
    8.2086    4.7080  -11.2487 C   0  0  0  0  0  0  0  0  0  0  0  0
    8.5026    5.7697  -10.2466 N   0  0  1  0  0  0  0  0  0  0  0  0
    8.8283    5.1660   -8.9233 C   0  0  0  0  0  0  0  0  0  0  0  0
    9.0099    6.2397   -7.8434 C   0  0  0  0  0  0  0  0  0  0  0  0
   10.1700    7.1832   -8.1914 C   0  0  2  0  0  0  0  0  0  0  0  0
   10.2520    8.3288   -7.1650 C   0  0  0  0  0  0  0  0  0  0  0  0
    9.6860    9.3723   -7.4481 O   0  0  0  0  0  0  0  0  0  0  0  0
   10.9666    8.1861   -5.8631 C   0  0  0  0  0  0  0  0  0  0  0  0
   11.2859    6.9329   -5.2997 C   0  0  0  0  0  0  0  0  0  0  0  0
   11.8251    6.8527   -3.9994 C   0  0  0  0  0  0  0  0  0  0  0  0
   12.0860    8.0212   -3.2626 C   0  0  0  0  0  0  0  0  0  0  0  0
   12.5682    7.9381   -2.0009 F   0  0  0  0  0  0  0  0  0  0  0  0
   11.8116    9.2765   -3.8282 C   0  0  0  0  0  0  0  0  0  0  0  0
   11.2540    9.3588   -5.1182 C   0  0  0  0  0  0  0  0  0  0  0  0
    9.9087    7.7462   -9.6187 C   0  0  0  0  0  0  0  0  0  0  0  0
    9.6077    6.6665  -10.6709 C   0  0  0  0  0  0  0  0  0  0  0  0
    8.4666    4.6912  -13.8013 C   0  0  0  0  0  0  0  0  0  0  0  0
    5.5355   -2.1829  -16.7714 H   0  0  0  0  0  0  0  0  0  0  0  0
    5.3967   -2.3535  -15.0205 H   0  0  0  0  0  0  0  0  0  0  0  0
    4.2399   -1.3475  -15.9075 H   0  0  0  0  0  0  0  0  0  0  0  0
    8.6009    0.7451  -15.9607 H   0  0  0  0  0  0  0  0  0  0  0  0
    5.6592    5.3768  -13.5338 H   0  0  0  0  0  0  0  0  0  0  0  0
    5.5810    5.0681  -11.8199 H   0  0  0  0  0  0  0  0  0  0  0  0
    7.6561    6.2930  -12.6202 H   0  0  0  0  0  0  0  0  0  0  0  0
    7.5023    4.0141  -10.7939 H   0  0  0  0  0  0  0  0  0  0  0  0
    9.1174    4.1263  -11.4097 H   0  0  0  0  0  0  0  0  0  0  0  0
    8.0471    4.4769   -8.6105 H   0  0  0  0  0  0  0  0  0  0  0  0
    9.7361    4.5657   -9.0053 H   0  0  0  0  0  0  0  0  0  0  0  0
    9.1739    5.7723   -6.8761 H   0  0  0  0  0  0  0  0  0  0  0  0
    8.0867    6.8069   -7.7322 H   0  0  0  0  0  0  0  0  0  0  0  0
   11.1096    6.6323   -8.1810 H   0  0  0  0  0  0  0  0  0  0  0  0
   11.0952    6.0163   -5.8344 H   0  0  0  0  0  0  0  0  0  0  0  0
   12.0357    5.8871   -3.5636 H   0  0  0  0  0  0  0  0  0  0  0  0
   12.0059   10.1727   -3.2578 H   0  0  0  0  0  0  0  0  0  0  0  0
   11.0206   10.3353   -5.5192 H   0  0  0  0  0  0  0  0  0  0  0  0
   10.7625    8.3423   -9.9432 H   0  0  0  0  0  0  0  0  0  0  0  0
    9.0499    8.4219   -9.6142 H   0  0  0  0  0  0  0  0  0  0  0  0
   10.4870    6.0616  -10.8573 H   0  0  0  0  0  0  0  0  0  0  0  0
    9.3693    7.1610  -11.6115 H   0  0  0  0  0  0  0  0  0  0  0  0
    9.5336    4.6820  -13.5740 H   0  0  0  0  0  0  0  0  0  0  0  0
    8.3506    5.3782  -14.6410 H   0  0  0  0  0  0  0  0  0  0  0  0
    7.6680    6.3458  -10.1360 H   0  0  0  0  0  0  0  0  0  0  0  0
  2  1  1  0
  3  2  1  0
  4  3  2  0
  5  3  1  0
  6  5  2  0
  7  6  1  0
  8  7  1  0
  9  5  1  0
  9  8  2  0
 10  9  1  0
 11 10  2  0
 12 10  1  0
 13 12  1  0
 14 13  1  0
 15 14  1  0
 16 15  1  0
 17 16  1  0
 18 17  1  0
 19 18  1  0
 20 19  2  0
 21 19  1  0
 22 21  1  0
 23 22  2  0
 24 23  1  0
 25 24  1  0
 26 24  2  0
 27 21  2  0
 27 26  1  0
 28 18  1  0
 29 15  1  0
 29 28  1  0
 30  8  1  0
 30 13  1  0
 31  1  1  0
 32  1  1  0
 33  1  1  0
 34  6  1  0
 35 12  1  0
 36 12  1  0
 13 37  1  1
 38 14  1  0
 39 14  1  0
 40 16  1  0
 41 16  1  0
 42 17  1  0
 43 17  1  0
 18 44  1  6
 45 22  1  0
 46 23  1  0
 47 26  1  0
 48 27  1  0
 49 28  1  0
 50 28  1  0
 51 29  1  0
 52 29  1  0
 53 30  1  0
 54 30  1  0
 15 55  1  1
M  CHG  1  15   1
M  END
>  <b_m_subgroup_collapsed>  (94) 
0

>  <r_i_docking_score>  (94) 
-9.0695800771470196

>  <s_m_subgroup_title>  (94) 
glide-dock_SP_D22_pv

>  <s_m_subgroupid>  (94) 
glide-dock_SP_D22_pv

>  <Molecule ChEMBL ID>  (94) 
CHEMBL493069

>  <Standard Type>  (94) 
Ki

>  <Standard Value>  (94) 
10000.0

>  <label>  (94) 
0

$$$$
CHEMBL4528835
     RDKit          3D

 50 53  0  0  1  0  0  0  0  0999 V2000
   10.3659    4.8101  -13.0547 O   0  0  0  0  0  0  0  0  0  0  0  0
    9.3769    4.1638  -13.4120 C   0  0  0  0  0  0  0  0  0  0  0  0
    7.9797    4.5969  -12.9269 C   0  0  0  0  0  0  0  0  0  0  0  0
    8.0043    5.6608  -11.8076 C   0  0  0  0  0  0  0  0  0  0  0  0
    8.4693    5.0916  -10.4478 C   0  0  0  0  0  0  0  0  0  0  0  0
    8.7561    6.1413   -9.4321 N   0  0  1  0  0  0  0  0  0  0  0  0
    8.6424    5.6071   -8.0505 C   0  0  0  0  0  0  0  0  0  0  0  0
    8.7668    6.6865   -6.9560 C   0  0  0  0  0  0  0  0  0  0  0  0
    9.9084    7.6663   -7.1866 C   0  0  2  0  0  0  0  0  0  0  0  0
   10.7269    7.9006   -5.9315 C   0  0  0  0  0  0  0  0  0  0  0  0
   10.8868    9.2044   -5.4035 C   0  0  0  0  0  0  0  0  0  0  0  0
   11.5192    9.4114   -4.1654 C   0  0  0  0  0  0  0  0  0  0  0  0
   12.0018    8.3184   -3.4268 C   0  0  0  0  0  0  0  0  0  0  0  0
   12.6418    8.5724   -1.8479 Cl  0  0  0  0  0  0  0  0  0  0  0  0
   11.9038    7.0208   -3.9596 C   0  0  0  0  0  0  0  0  0  0  0  0
   11.2858    6.8157   -5.2098 C   0  0  0  0  0  0  0  0  0  0  0  0
    9.6339    8.8232   -8.1397 C   0  0  0  0  0  0  0  0  0  0  0  0
   10.5350    7.7106   -8.5665 C   0  0  2  0  0  0  0  0  0  0  0  0
   10.0914    6.7653   -9.6671 C   0  0  0  0  0  0  0  0  0  0  0  0
    9.4758    2.9691  -14.3038 C   0  0  0  0  0  0  0  0  0  0  0  0
    8.3577    2.1536  -14.6122 C   0  0  0  0  0  0  0  0  0  0  0  0
    8.5138    0.9963  -15.4049 C   0  0  0  0  0  0  0  0  0  0  0  0
    9.7784    0.6522  -15.9175 C   0  0  0  0  0  0  0  0  0  0  0  0
    9.9307   -0.4633  -16.6694 F   0  0  0  0  0  0  0  0  0  0  0  0
   10.8862    1.4762  -15.6474 C   0  0  0  0  0  0  0  0  0  0  0  0
   10.7384    2.6201  -14.8412 C   0  0  0  0  0  0  0  0  0  0  0  0
    7.4360    4.9865  -13.7861 H   0  0  0  0  0  0  0  0  0  0  0  0
    7.4299    3.7269  -12.5706 H   0  0  0  0  0  0  0  0  0  0  0  0
    8.6274    6.4999  -12.1190 H   0  0  0  0  0  0  0  0  0  0  0  0
    7.0009    6.0729  -11.6897 H   0  0  0  0  0  0  0  0  0  0  0  0
    7.6866    4.4225  -10.0890 H   0  0  0  0  0  0  0  0  0  0  0  0
    9.3512    4.4594  -10.5631 H   0  0  0  0  0  0  0  0  0  0  0  0
    7.6861    5.1021   -7.9228 H   0  0  0  0  0  0  0  0  0  0  0  0
    9.4168    4.8536   -7.9083 H   0  0  0  0  0  0  0  0  0  0  0  0
    7.8488    7.2573   -6.8427 H   0  0  0  0  0  0  0  0  0  0  0  0
    8.8854    6.1745   -6.0021 H   0  0  0  0  0  0  0  0  0  0  0  0
   10.4770   10.0665   -5.9043 H   0  0  0  0  0  0  0  0  0  0  0  0
   11.5890   10.4097   -3.7561 H   0  0  0  0  0  0  0  0  0  0  0  0
   12.2780    6.1737   -3.4015 H   0  0  0  0  0  0  0  0  0  0  0  0
   11.1957    5.7984   -5.5823 H   0  0  0  0  0  0  0  0  0  0  0  0
    8.6544    8.8848   -8.6122 H   0  0  0  0  0  0  0  0  0  0  0  0
   10.1324    9.7712   -7.9869 H   0  0  0  0  0  0  0  0  0  0  0  0
   11.5912    7.9676   -8.6143 H   0  0  0  0  0  0  0  0  0  0  0  0
   10.8476    5.9846   -9.7429 H   0  0  0  0  0  0  0  0  0  0  0  0
   10.0999    7.3076  -10.6141 H   0  0  0  0  0  0  0  0  0  0  0  0
    7.3716    2.3770  -14.2331 H   0  0  0  0  0  0  0  0  0  0  0  0
    7.6608    0.3656  -15.6153 H   0  0  0  0  0  0  0  0  0  0  0  0
   11.8539    1.2181  -16.0490 H   0  0  0  0  0  0  0  0  0  0  0  0
   11.6116    3.2250  -14.6307 H   0  0  0  0  0  0  0  0  0  0  0  0
    8.0267    6.8479   -9.5322 H   0  0  0  0  0  0  0  0  0  0  0  0
  2  1  2  0
  3  2  1  0
  4  3  1  0
  5  4  1  0
  6  5  1  0
  7  6  1  0
  8  7  1  0
  9  8  1  0
  9 10  1  1
 11 10  1  0
 12 11  2  0
 13 12  1  0
 14 13  1  0
 15 13  2  0
 16 10  2  0
 16 15  1  0
 17  9  1  0
 18  9  1  0
 18 17  1  0
 19  6  1  0
 19 18  1  0
 20  2  1  0
 21 20  1  0
 22 21  2  0
 23 22  1  0
 24 23  1  0
 25 23  2  0
 26 20  2  0
 26 25  1  0
 27  3  1  0
 28  3  1  0
 29  4  1  0
 30  4  1  0
 31  5  1  0
 32  5  1  0
 33  7  1  0
 34  7  1  0
 35  8  1  0
 36  8  1  0
 37 11  1  0
 38 12  1  0
 39 15  1  0
 40 16  1  0
 41 17  1  0
 42 17  1  0
 18 43  1  1
 44 19  1  0
 45 19  1  0
 46 21  1  0
 47 22  1  0
 48 25  1  0
 49 26  1  0
  6 50  1  1
M  CHG  1   6   1
M  END
>  <b_m_subgroup_collapsed>  (95) 
0

>  <r_i_docking_score>  (95) 
-9.0652494220798996

>  <s_m_subgroup_title>  (95) 
glide-dock_SP_D22_pv

>  <s_m_subgroupid>  (95) 
glide-dock_SP_D22_pv

>  <Molecule ChEMBL ID>  (95) 
CHEMBL4528835

>  <Standard Type>  (95) 
Ki

>  <Standard Value>  (95) 
0.1585

>  <label>  (95) 
1

$$$$
CHEMBL5289958
     RDKit          3D

 58 62  0  0  1  0  0  0  0  0999 V2000
   12.8709    7.5683   -2.1807 F   0  0  0  0  0  0  0  0  0  0  0  0
   12.2044    7.8331   -3.3268 C   0  0  0  0  0  0  0  0  0  0  0  0
   11.6860    6.7814   -4.0980 C   0  0  0  0  0  0  0  0  0  0  0  0
   10.9517    7.0477   -5.2685 C   0  0  0  0  0  0  0  0  0  0  0  0
   10.7429    8.3825   -5.6741 C   0  0  0  0  0  0  0  0  0  0  0  0
    9.8623    8.6894   -6.8670 C   0  0  0  0  0  0  0  0  0  0  0  0
   10.3862    8.1621   -8.1425 N   0  0  2  0  0  0  0  0  0  0  0  0
   11.7348    8.6756   -8.4806 C   0  0  0  0  0  0  0  0  0  0  0  0
   12.2506    8.0311   -9.7691 C   0  0  0  0  0  0  0  0  0  0  0  0
   11.2584    8.2209  -10.9030 C   0  0  0  0  0  0  0  0  0  0  0  0
    9.8248    7.7580  -10.5773 C   0  0  1  0  0  0  0  0  0  0  0  0
    8.8864    8.1467  -11.7492 C   0  0  0  0  0  0  0  0  0  0  0  0
    8.3356    6.8252  -12.3054 C   0  0  0  0  0  0  0  0  0  0  0  0
    9.3441    5.8290  -11.9086 N   0  0  2  0  0  0  0  0  0  0  0  0
    8.9572    4.4135  -12.0826 C   0  0  0  0  0  0  0  0  0  0  0  0
    9.3163    3.8802  -13.4381 C   0  0  0  0  0  0  0  0  0  0  0  0
    9.2862    4.4790  -14.6730 C   0  0  0  0  0  0  0  0  0  0  0  0
    9.6837    3.4899  -15.6369 C   0  0  0  0  0  0  0  0  0  0  0  0
    9.8309    3.4713  -17.0444 C   0  0  0  0  0  0  0  0  0  0  0  0
   10.2119    2.2929  -17.7194 C   0  0  0  0  0  0  0  0  0  0  0  0
   10.4604    1.1066  -17.0013 C   0  0  0  0  0  0  0  0  0  0  0  0
   10.8864   -0.3362  -17.8461 Cl  0  0  0  0  0  0  0  0  0  0  0  0
   10.3417    1.1006  -15.5999 C   0  0  0  0  0  0  0  0  0  0  0  0
    9.9562    2.2795  -14.9371 C   0  0  0  0  0  0  0  0  0  0  0  0
    9.7417    2.5723  -13.6068 N   0  0  0  0  0  0  0  0  0  0  0  0
    9.6849    6.2276  -10.5332 C   0  0  0  0  0  0  0  0  0  0  0  0
    9.4086    8.3945   -9.2378 C   0  0  0  0  0  0  0  0  0  0  0  0
   11.2913    9.4386   -4.9168 C   0  0  0  0  0  0  0  0  0  0  0  0
   12.0086    9.1619   -3.7390 C   0  0  0  0  0  0  0  0  0  0  0  0
   12.4858   10.1725   -2.9884 F   0  0  0  0  0  0  0  0  0  0  0  0
   11.8325    5.7716   -3.7643 H   0  0  0  0  0  0  0  0  0  0  0  0
   10.5210    6.2252   -5.8230 H   0  0  0  0  0  0  0  0  0  0  0  0
    8.8700    8.2821   -6.6676 H   0  0  0  0  0  0  0  0  0  0  0  0
    9.7529    9.7667   -6.9782 H   0  0  0  0  0  0  0  0  0  0  0  0
   11.6856    9.7617   -8.5938 H   0  0  0  0  0  0  0  0  0  0  0  0
   12.4425    8.4703   -7.6781 H   0  0  0  0  0  0  0  0  0  0  0  0
   13.2165    8.4596  -10.0390 H   0  0  0  0  0  0  0  0  0  0  0  0
   12.4098    6.9724   -9.6437 H   0  0  0  0  0  0  0  0  0  0  0  0
   11.2288    9.2992  -11.0467 H   0  0  0  0  0  0  0  0  0  0  0  0
   11.6334    7.7721  -11.8252 H   0  0  0  0  0  0  0  0  0  0  0  0
    8.0858    8.8232  -11.4469 H   0  0  0  0  0  0  0  0  0  0  0  0
    9.4322    8.6668  -12.5369 H   0  0  0  0  0  0  0  0  0  0  0  0
    7.3797    6.5729  -11.8424 H   0  0  0  0  0  0  0  0  0  0  0  0
    8.1548    6.8598  -13.3771 H   0  0  0  0  0  0  0  0  0  0  0  0
    9.4899    3.8208  -11.3367 H   0  0  0  0  0  0  0  0  0  0  0  0
    7.8927    4.2730  -11.8801 H   0  0  0  0  0  0  0  0  0  0  0  0
    9.0026    5.4908  -14.9154 H   0  0  0  0  0  0  0  0  0  0  0  0
    9.6320    4.3694  -17.6127 H   0  0  0  0  0  0  0  0  0  0  0  0
   10.3050    2.2942  -18.7958 H   0  0  0  0  0  0  0  0  0  0  0  0
   10.5315    0.1944  -15.0432 H   0  0  0  0  0  0  0  0  0  0  0  0
    9.8571    1.9131  -12.8331 H   0  0  0  0  0  0  0  0  0  0  0  0
   10.5674    5.7509  -10.1351 H   0  0  0  0  0  0  0  0  0  0  0  0
    8.8564    5.9358   -9.8848 H   0  0  0  0  0  0  0  0  0  0  0  0
    8.4706    7.9658   -8.9187 H   0  0  0  0  0  0  0  0  0  0  0  0
    9.2483    9.4657   -9.3571 H   0  0  0  0  0  0  0  0  0  0  0  0
   11.1334   10.4679   -5.2093 H   0  0  0  0  0  0  0  0  0  0  0  0
   10.4688    7.1641   -8.0222 H   0  0  0  0  0  0  0  0  0  0  0  0
   10.1654    5.9811  -12.4762 H   0  0  0  0  0  0  0  0  0  0  0  0
  2  1  1  0
  3  2  1  0
  4  3  2  0
  5  4  1  0
  6  5  1  0
  7  6  1  0
  8  7  1  0
  9  8  1  0
 10  9  1  0
 11 10  1  6
 12 11  1  0
 13 12  1  0
 14 13  1  0
 15 14  1  0
 16 15  1  0
 17 16  2  0
 18 17  1  0
 19 18  2  0
 20 19  1  0
 21 20  2  0
 22 21  1  0
 23 21  1  0
 24 18  1  0
 24 23  2  0
 25 16  1  0
 25 24  1  0
 26 11  1  0
 26 14  1  0
 27  7  1  0
 27 11  1  0
 28  5  2  0
 29  2  2  0
 29 28  1  0
 30 29  1  0
 31  3  1  0
 32  4  1  0
 33  6  1  0
 34  6  1  0
 35  8  1  0
 36  8  1  0
 37  9  1  0
 38  9  1  0
 39 10  1  0
 40 10  1  0
 41 12  1  0
 42 12  1  0
 43 13  1  0
 44 13  1  0
 45 15  1  0
 46 15  1  0
 47 17  1  0
 48 19  1  0
 49 20  1  0
 50 23  1  0
 51 25  1  0
 52 26  1  0
 53 26  1  0
 54 27  1  0
 55 27  1  0
 56 28  1  0
  7 57  1  1
 14 58  1  6
M  CHG  2   7   1  14   1
M  END
>  <b_m_subgroup_collapsed>  (96) 
0

>  <r_i_docking_score>  (96) 
-9.0651452542685096

>  <s_m_subgroup_title>  (96) 
glide-dock_SP_D22_pv

>  <s_m_subgroupid>  (96) 
glide-dock_SP_D22_pv

>  <Molecule ChEMBL ID>  (96) 
CHEMBL5289958

>  <Standard Type>  (96) 
Ki

>  <Standard Value>  (96) 
10000.0

>  <label>  (96) 
0

$$$$
CHEMBL566379
     RDKit          3D

 62 67  0  0  1  0  0  0  0  0999 V2000
   10.0887   -1.3523  -17.4470 O   0  0  0  0  0  0  0  0  0  0  0  0
   10.0112   -0.2807  -16.8513 C   0  0  0  0  0  0  0  0  0  0  0  0
    8.8348    0.1017  -15.9369 C   0  0  0  0  0  0  0  0  0  0  0  0
    9.2497    1.5086  -15.5885 C   0  0  0  0  0  0  0  0  0  0  0  0
   10.4674    1.8128  -16.1829 C   0  0  0  0  0  0  0  0  0  0  0  0
   11.0742    3.0712  -16.0467 C   0  0  0  0  0  0  0  0  0  0  0  0
   10.3933    4.0422  -15.2806 C   0  0  0  0  0  0  0  0  0  0  0  0
    9.1515    3.7417  -14.6682 C   0  0  0  0  0  0  0  0  0  0  0  0
    8.5558    2.4603  -14.8225 C   0  0  0  0  0  0  0  0  0  0  0  0
    7.3399    2.1542  -14.2536 O   0  0  0  0  0  0  0  0  0  0  0  0
    6.6070    3.2767  -13.7694 C   0  0  0  0  0  0  0  0  0  0  0  0
    7.5491    4.2410  -13.0218 C   0  0  2  0  0  0  0  0  0  0  0  0
    6.8225    5.4417  -12.3948 C   0  0  0  0  0  0  0  0  0  0  0  0
    7.6861    6.1722  -11.4469 N   0  0  0  0  0  0  0  0  0  0  0  0
    8.7693    7.0054  -11.9945 C   0  0  0  0  0  0  0  0  0  0  0  0
   10.1128    6.6756  -11.3319 C   0  0  0  0  0  0  0  0  0  0  0  0
   10.5387    7.7048  -10.2771 C   0  0  0  0  0  0  0  0  0  0  0  0
    9.5166    7.9413   -9.1415 C   0  0  1  0  0  0  0  0  0  0  0  0
    9.2689    6.6792   -8.2814 C   0  0  0  0  0  0  0  0  0  0  0  0
   10.4153    6.3772   -7.3072 C   0  0  0  0  0  0  0  0  0  0  0  0
   10.7595    7.5918   -6.5147 C   0  0  0  0  0  0  0  0  0  0  0  0
   10.5205    8.8478   -6.9798 C   0  0  0  0  0  0  0  0  0  0  0  0
   10.8861    9.7722   -6.0158 N   0  0  0  0  0  0  0  0  0  0  0  0
   11.3147    9.1240   -4.8739 C   0  0  0  0  0  0  0  0  0  0  0  0
   11.7048    9.5891   -3.6056 C   0  0  0  0  0  0  0  0  0  0  0  0
   12.1038    8.6658   -2.6230 C   0  0  0  0  0  0  0  0  0  0  0  0
   12.0992    7.2891   -2.9142 C   0  0  0  0  0  0  0  0  0  0  0  0
   12.4858    6.3974   -1.9761 F   0  0  0  0  0  0  0  0  0  0  0  0
   11.6863    6.8314   -4.1784 C   0  0  0  0  0  0  0  0  0  0  0  0
   11.2786    7.7316   -5.1851 C   0  0  0  0  0  0  0  0  0  0  0  0
    9.9203    9.1750   -8.3022 C   0  0  0  0  0  0  0  0  0  0  0  0
    8.5192    4.7184  -13.9429 O   0  0  0  0  0  0  0  0  0  0  0  0
   10.9066    0.7128  -16.9192 N   0  0  0  0  0  0  0  0  0  0  0  0
    8.7919   -0.5320  -15.0510 H   0  0  0  0  0  0  0  0  0  0  0  0
    7.8837    0.0755  -16.4686 H   0  0  0  0  0  0  0  0  0  0  0  0
   12.0196    3.2942  -16.5198 H   0  0  0  0  0  0  0  0  0  0  0  0
   10.8252    5.0248  -15.1601 H   0  0  0  0  0  0  0  0  0  0  0  0
    5.8254    2.9141  -13.1015 H   0  0  0  0  0  0  0  0  0  0  0  0
    6.1087    3.7773  -14.6009 H   0  0  0  0  0  0  0  0  0  0  0  0
    8.0676    3.7138  -12.2232 H   0  0  0  0  0  0  0  0  0  0  0  0
    6.4068    6.1266  -13.1269 H   0  0  0  0  0  0  0  0  0  0  0  0
    5.9736    5.0747  -11.8173 H   0  0  0  0  0  0  0  0  0  0  0  0
    7.0866    6.8250  -10.9063 H   0  0  0  0  0  0  0  0  0  0  0  0
    8.8601    6.8376  -13.0477 H   0  0  0  0  0  0  0  0  0  0  0  0
    8.5092    8.0601  -11.8979 H   0  0  0  0  0  0  0  0  0  0  0  0
   10.0980    5.6671  -10.9175 H   0  0  0  0  0  0  0  0  0  0  0  0
   10.8837    6.6570  -12.1039 H   0  0  0  0  0  0  0  0  0  0  0  0
   11.5005    7.4129   -9.8533 H   0  0  0  0  0  0  0  0  0  0  0  0
   10.7213    8.6457  -10.7976 H   0  0  0  0  0  0  0  0  0  0  0  0
    8.5653    8.2072   -9.6034 H   0  0  0  0  0  0  0  0  0  0  0  0
    8.3689    6.8499   -7.6889 H   0  0  0  0  0  0  0  0  0  0  0  0
    9.0495    5.8050   -8.8913 H   0  0  0  0  0  0  0  0  0  0  0  0
   11.2859    6.0052   -7.8433 H   0  0  0  0  0  0  0  0  0  0  0  0
   10.0848    5.5934   -6.6468 H   0  0  0  0  0  0  0  0  0  0  0  0
   10.7991   10.7698   -6.1385 H   0  0  0  0  0  0  0  0  0  0  0  0
   11.6854   10.6418   -3.3724 H   0  0  0  0  0  0  0  0  0  0  0  0
   12.4063    9.0119   -1.6452 H   0  0  0  0  0  0  0  0  0  0  0  0
   11.6634    5.7724   -4.3778 H   0  0  0  0  0  0  0  0  0  0  0  0
   10.6255    9.7722   -8.8719 H   0  0  0  0  0  0  0  0  0  0  0  0
    9.0256    9.7723   -8.1342 H   0  0  0  0  0  0  0  0  0  0  0  0
   11.7597    0.7052  -17.4582 H   0  0  0  0  0  0  0  0  0  0  0  0
    8.0694    5.5200  -10.7797 H   0  0  0  0  0  0  0  0  0  0  0  0
  2  1  2  0
  3  2  1  0
  4  3  1  0
  5  4  2  0
  6  5  1  0
  7  6  2  0
  8  7  1  0
  9  4  1  0
  9  8  2  0
 10  9  1  0
 11 10  1  0
 12 11  1  0
 13 12  1  0
 14 13  1  0
 15 14  1  0
 16 15  1  0
 17 16  1  0
 18 17  1  0
 19 18  1  0
 20 19  1  0
 21 20  1  0
 22 21  2  0
 23 22  1  0
 24 23  1  0
 25 24  2  0
 26 25  1  0
 27 26  2  0
 28 27  1  0
 29 27  1  0
 30 21  1  0
 30 24  1  0
 30 29  2  0
 31 18  1  0
 31 22  1  0
 32  8  1  0
 32 12  1  0
 33  2  1  0
 33  5  1  0
 34  3  1  0
 35  3  1  0
 36  6  1  0
 37  7  1  0
 38 11  1  0
 39 11  1  0
 12 40  1  1
 41 13  1  0
 42 13  1  0
 43 14  1  0
 44 15  1  0
 45 15  1  0
 46 16  1  0
 47 16  1  0
 48 17  1  0
 49 17  1  0
 18 50  1  6
 51 19  1  0
 52 19  1  0
 53 20  1  0
 54 20  1  0
 55 23  1  0
 56 25  1  0
 57 26  1  0
 58 29  1  0
 59 31  1  0
 60 31  1  0
 61 33  1  0
 62 14  1  0
M  CHG  1  14   1
M  END
>  <b_m_subgroup_collapsed>  (97) 
0

>  <r_i_docking_score>  (97) 
-9.0633221476683499

>  <s_m_subgroup_title>  (97) 
glide-dock_SP_D22_pv

>  <s_m_subgroupid>  (97) 
glide-dock_SP_D22_pv

>  <Molecule ChEMBL ID>  (97) 
CHEMBL566379

>  <Standard Type>  (97) 
Ki

>  <Standard Value>  (97) 
50.0

>  <label>  (97) 
1

$$$$
CHEMBL554693
     RDKit          3D

 58 60  0  0  1  0  0  0  0  0999 V2000
    6.8828   -0.5060  -16.6354 C   0  0  0  0  0  0  0  0  0  0  0  0
    6.2337   -0.4490  -15.3733 O   0  0  0  0  0  0  0  0  0  0  0  0
    6.2768    0.7380  -14.6761 C   0  0  0  0  0  0  0  0  0  0  0  0
    7.1770    1.7850  -14.9848 C   0  0  0  0  0  0  0  0  0  0  0  0
    7.1584    2.9805  -14.2464 C   0  0  0  0  0  0  0  0  0  0  0  0
    6.2613    3.1517  -13.1715 C   0  0  0  0  0  0  0  0  0  0  0  0
    6.2809    4.4616  -12.3930 C   0  0  0  0  0  0  0  0  0  0  0  0
    7.6415    4.7290  -11.6929 C   0  0  0  0  0  0  0  0  0  0  0  0
    7.9250    6.1722  -11.4468 N   0  0  2  0  0  0  0  0  0  0  0  0
    8.2538    6.8908  -12.6885 C   0  0  0  0  0  0  0  0  0  0  0  0
    8.9381    6.3937  -10.3802 C   0  0  0  0  0  0  0  0  0  0  0  0
    9.3492    7.8794  -10.2162 C   0  0  0  0  0  0  0  0  0  0  0  0
   10.2991    8.0591   -9.1353 N   0  0  0  0  0  0  0  0  0  0  0  0
   11.7102    8.2096   -9.4309 C   0  0  0  0  0  0  0  0  0  0  0  0
   12.3222    8.2687   -8.0419 C   0  0  0  0  0  0  0  0  0  0  0  0
   11.1646    8.2952   -7.1680 N   0  0  0  0  0  0  0  0  0  0  0  0
   11.2856    8.4970   -5.7817 C   0  0  0  0  0  0  0  0  0  0  0  0
   11.0707    9.7810   -5.2504 C   0  0  0  0  0  0  0  0  0  0  0  0
   11.2861   10.0016   -3.8816 C   0  0  0  0  0  0  0  0  0  0  0  0
   11.7314    8.9707   -3.0465 C   0  0  0  0  0  0  0  0  0  0  0  0
   11.9323    7.6897   -3.5773 C   0  0  0  0  0  0  0  0  0  0  0  0
   12.4859    6.4459   -2.5415 Cl  0  0  0  0  0  0  0  0  0  0  0  0
   11.6860    7.4376   -4.9401 C   0  0  0  0  0  0  0  0  0  0  0  0
   10.0093    8.1847   -7.8329 C   0  0  0  0  0  0  0  0  0  0  0  0
    8.8863    8.1868   -7.3351 O   0  0  0  0  0  0  0  0  0  0  0  0
    5.3696    2.1054  -12.8506 C   0  0  0  0  0  0  0  0  0  0  0  0
    5.3683    0.9115  -13.6059 C   0  0  0  0  0  0  0  0  0  0  0  0
    4.4852   -0.0792  -13.2678 O   0  0  0  0  0  0  0  0  0  0  0  0
    3.4505   -0.3305  -14.2119 C   0  0  0  0  0  0  0  0  0  0  0  0
    6.6074   -1.4330  -17.1360 H   0  0  0  0  0  0  0  0  0  0  0  0
    6.5768    0.3161  -17.2836 H   0  0  0  0  0  0  0  0  0  0  0  0
    7.9676   -0.4966  -16.5258 H   0  0  0  0  0  0  0  0  0  0  0  0
    7.8906    1.6948  -15.7888 H   0  0  0  0  0  0  0  0  0  0  0  0
    7.8503    3.7674  -14.5074 H   0  0  0  0  0  0  0  0  0  0  0  0
    5.4824    4.4619  -11.6489 H   0  0  0  0  0  0  0  0  0  0  0  0
    6.0129    5.2443  -13.1000 H   0  0  0  0  0  0  0  0  0  0  0  0
    8.4687    4.3325  -12.2814 H   0  0  0  0  0  0  0  0  0  0  0  0
    7.6598    4.1743  -10.7527 H   0  0  0  0  0  0  0  0  0  0  0  0
    9.2330    6.5723  -13.0471 H   0  0  0  0  0  0  0  0  0  0  0  0
    7.5165    6.6864  -13.4469 H   0  0  0  0  0  0  0  0  0  0  0  0
    8.2387    7.9735  -12.5623 H   0  0  0  0  0  0  0  0  0  0  0  0
    9.8243    5.7947  -10.5968 H   0  0  0  0  0  0  0  0  0  0  0  0
    8.5266    6.0235   -9.4397 H   0  0  0  0  0  0  0  0  0  0  0  0
    8.4863    8.5212  -10.0390 H   0  0  0  0  0  0  0  0  0  0  0  0
    9.8326    8.2562  -11.1172 H   0  0  0  0  0  0  0  0  0  0  0  0
   12.0900    7.3700  -10.0143 H   0  0  0  0  0  0  0  0  0  0  0  0
   11.8866    9.1331   -9.9844 H   0  0  0  0  0  0  0  0  0  0  0  0
   12.9660    9.1369   -7.8976 H   0  0  0  0  0  0  0  0  0  0  0  0
   12.8968    7.3722   -7.8470 H   0  0  0  0  0  0  0  0  0  0  0  0
   10.7656   10.5981   -5.8882 H   0  0  0  0  0  0  0  0  0  0  0  0
   11.1421   10.9723   -3.4561 H   0  0  0  0  0  0  0  0  0  0  0  0
   11.9140    9.1636   -1.9989 H   0  0  0  0  0  0  0  0  0  0  0  0
   11.8488    6.4489   -5.3437 H   0  0  0  0  0  0  0  0  0  0  0  0
    4.6792    2.2078  -12.0282 H   0  0  0  0  0  0  0  0  0  0  0  0
    2.7452   -1.0416  -13.7836 H   0  0  0  0  0  0  0  0  0  0  0  0
    2.8894    0.5728  -14.4437 H   0  0  0  0  0  0  0  0  0  0  0  0
    3.8200   -0.7624  -15.1411 H   0  0  0  0  0  0  0  0  0  0  0  0
    7.0922    6.6346  -11.0657 H   0  0  0  0  0  0  0  0  0  0  0  0
  2  1  1  0
  3  2  1  0
  4  3  1  0
  5  4  2  0
  6  5  1  0
  7  6  1  0
  8  7  1  0
  9  8  1  0
 10  9  1  0
 11  9  1  0
 12 11  1  0
 13 12  1  0
 14 13  1  0
 15 14  1  0
 16 15  1  0
 17 16  1  0
 18 17  2  0
 19 18  1  0
 20 19  2  0
 21 20  1  0
 22 21  1  0
 23 17  1  0
 23 21  2  0
 24 13  1  0
 24 16  1  0
 25 24  2  0
 26  6  2  0
 27  3  2  0
 27 26  1  0
 28 27  1  0
 29 28  1  0
 30  1  1  0
 31  1  1  0
 32  1  1  0
 33  4  1  0
 34  5  1  0
 35  7  1  0
 36  7  1  0
 37  8  1  0
 38  8  1  0
 39 10  1  0
 40 10  1  0
 41 10  1  0
 42 11  1  0
 43 11  1  0
 44 12  1  0
 45 12  1  0
 46 14  1  0
 47 14  1  0
 48 15  1  0
 49 15  1  0
 50 18  1  0
 51 19  1  0
 52 20  1  0
 53 23  1  0
 54 26  1  0
 55 29  1  0
 56 29  1  0
 57 29  1  0
  9 58  1  1
M  CHG  1   9   1
M  END
>  <b_m_subgroup_collapsed>  (98) 
0

>  <r_i_docking_score>  (98) 
-9.0601012307031397

>  <s_m_subgroup_title>  (98) 
glide-dock_SP_D22_pv

>  <s_m_subgroupid>  (98) 
glide-dock_SP_D22_pv

>  <Molecule ChEMBL ID>  (98) 
CHEMBL554693

>  <Standard Type>  (98) 
Ki

>  <Standard Value>  (98) 
100.0

>  <label>  (98) 
1

$$$$
CHEMBL5757240
     RDKit          3D

 66 70  0  0  1  0  0  0  0  0999 V2000
   10.8862    5.3679  -13.0469 O   0  0  0  0  0  0  0  0  0  0  0  0
    9.8934    4.6958  -13.3109 C   0  0  0  0  0  0  0  0  0  0  0  0
    9.8998    3.7400  -14.2516 N   0  0  0  0  0  0  0  0  0  0  0  0
   11.0816    3.3328  -15.0122 C   0  0  2  0  0  0  0  0  0  0  0  0
   11.5940    4.4638  -15.9088 C   0  0  0  0  0  0  0  0  0  0  0  0
   10.7711    5.0189  -16.9141 C   0  0  0  0  0  0  0  0  0  0  0  0
   11.2606    6.0480  -17.7417 C   0  0  0  0  0  0  0  0  0  0  0  0
   12.5701    6.5349  -17.5617 C   0  0  0  0  0  0  0  0  0  0  0  0
   13.1828    7.7723  -18.5920 Cl  0  0  0  0  0  0  0  0  0  0  0  0
   13.3857    6.0040  -16.5444 C   0  0  0  0  0  0  0  0  0  0  0  0
   12.8968    4.9724  -15.7209 C   0  0  0  0  0  0  0  0  0  0  0  0
   10.8532    2.0045  -15.7427 C   0  0  0  0  0  0  0  0  0  0  0  0
   10.0862    0.9786  -15.1447 C   0  0  0  0  0  0  0  0  0  0  0  0
    9.8936   -0.2221  -15.8529 C   0  0  0  0  0  0  0  0  0  0  0  0
   10.4747   -0.3625  -17.1260 C   0  0  0  0  0  0  0  0  0  0  0  0
   11.2383    0.7052  -17.6319 C   0  0  0  0  0  0  0  0  0  0  0  0
   11.4259    1.8587  -16.9609 N   0  0  0  0  0  0  0  0  0  0  0  0
    8.5767    4.9401  -12.5564 C   0  0  1  0  0  0  0  0  0  0  0  0
    8.7056    4.6838  -11.0456 C   0  0  0  0  0  0  0  0  0  0  0  0
    9.4124    5.8074  -10.2673 C   0  0  0  0  0  0  0  0  0  0  0  0
    8.8861    7.1649  -10.5693 N   0  0  1  0  0  0  0  0  0  0  0  0
    9.6378    8.2113   -9.8325 C   0  0  0  0  0  0  0  0  0  0  0  0
    8.9142    8.6168   -8.5460 C   0  0  0  0  0  0  0  0  0  0  0  0
    9.7938    9.3723   -7.7319 O   0  0  0  0  0  0  0  0  0  0  0  0
   10.4487    8.7448   -6.7034 C   0  0  0  0  0  0  0  0  0  0  0  0
   10.6825    7.3549   -6.6605 C   0  0  0  0  0  0  0  0  0  0  0  0
   11.2860    6.7870   -5.5324 C   0  0  0  0  0  0  0  0  0  0  0  0
   11.6562    7.5839   -4.4397 C   0  0  0  0  0  0  0  0  0  0  0  0
   12.1752    6.9890   -3.2757 C   0  0  0  0  0  0  0  0  0  0  0  0
   12.4856    7.8182   -2.1894 C   0  0  0  0  0  0  0  0  0  0  0  0
   12.2656    9.1992   -2.3129 C   0  0  0  0  0  0  0  0  0  0  0  0
   11.7726    9.7724   -3.4286 N   0  0  0  0  0  0  0  0  0  0  0  0
   11.4656    8.9886   -4.4804 C   0  0  0  0  0  0  0  0  0  0  0  0
   10.8860    9.5509   -5.6335 C   0  0  0  0  0  0  0  0  0  0  0  0
    8.8246    7.4480  -12.0234 C   0  0  0  0  0  0  0  0  0  0  0  0
    8.0403    6.3614  -12.7828 C   0  0  0  0  0  0  0  0  0  0  0  0
    9.0522    3.2220  -14.4282 H   0  0  0  0  0  0  0  0  0  0  0  0
   11.8604    3.1149  -14.2787 H   0  0  0  0  0  0  0  0  0  0  0  0
    9.7689    4.6437  -17.0627 H   0  0  0  0  0  0  0  0  0  0  0  0
   10.6335    6.4601  -18.5188 H   0  0  0  0  0  0  0  0  0  0  0  0
   14.3874    6.3810  -16.3980 H   0  0  0  0  0  0  0  0  0  0  0  0
   13.5305    4.5732  -14.9441 H   0  0  0  0  0  0  0  0  0  0  0  0
    9.6588    1.0966  -14.1588 H   0  0  0  0  0  0  0  0  0  0  0  0
    9.3119   -1.0229  -15.4231 H   0  0  0  0  0  0  0  0  0  0  0  0
   10.3487   -1.2702  -17.6976 H   0  0  0  0  0  0  0  0  0  0  0  0
   11.7058    0.6332  -18.6026 H   0  0  0  0  0  0  0  0  0  0  0  0
    7.8410    4.2374  -12.9531 H   0  0  0  0  0  0  0  0  0  0  0  0
    7.7150    4.5107  -10.6220 H   0  0  0  0  0  0  0  0  0  0  0  0
    9.2859    3.7743  -10.9007 H   0  0  0  0  0  0  0  0  0  0  0  0
    9.3139    5.6127   -9.1990 H   0  0  0  0  0  0  0  0  0  0  0  0
   10.4807    5.7823  -10.4854 H   0  0  0  0  0  0  0  0  0  0  0  0
   10.6504    7.8704   -9.6150 H   0  0  0  0  0  0  0  0  0  0  0  0
    9.7613    9.1047  -10.4450 H   0  0  0  0  0  0  0  0  0  0  0  0
    8.0861    9.2757   -8.7968 H   0  0  0  0  0  0  0  0  0  0  0  0
    8.4862    7.7644   -8.0176 H   0  0  0  0  0  0  0  0  0  0  0  0
   10.3961    6.7027   -7.4693 H   0  0  0  0  0  0  0  0  0  0  0  0
   11.4581    5.7311   -5.4971 H   0  0  0  0  0  0  0  0  0  0  0  0
   12.3182    5.9194   -3.2072 H   0  0  0  0  0  0  0  0  0  0  0  0
   12.8860    7.4096   -1.2755 H   0  0  0  0  0  0  0  0  0  0  0  0
   12.4860    9.8557   -1.4853 H   0  0  0  0  0  0  0  0  0  0  0  0
   10.7160   10.6156   -5.6675 H   0  0  0  0  0  0  0  0  0  0  0  0
    8.3311    8.4099  -12.1766 H   0  0  0  0  0  0  0  0  0  0  0  0
    9.8361    7.5559  -12.4161 H   0  0  0  0  0  0  0  0  0  0  0  0
    8.0859    6.5724  -13.8468 H   0  0  0  0  0  0  0  0  0  0  0  0
    6.9880    6.4072  -12.4975 H   0  0  0  0  0  0  0  0  0  0  0  0
    7.9099    7.2388  -10.2526 H   0  0  0  0  0  0  0  0  0  0  0  0
  2  1  2  0
  3  2  1  0
  4  3  1  0
  5  4  1  0
  6  5  1  0
  7  6  2  0
  8  7  1  0
  9  8  1  0
 10  8  2  0
 11  5  2  0
 11 10  1  0
 12  4  1  0
 13 12  2  0
 14 13  1  0
 15 14  2  0
 16 15  1  0
 17 12  1  0
 17 16  2  0
 18  2  1  0
 19 18  1  0
 20 19  1  0
 21 20  1  0
 22 21  1  0
 23 22  1  0
 24 23  1  0
 25 24  1  0
 26 25  2  0
 27 26  1  0
 28 27  2  0
 29 28  1  0
 30 29  2  0
 31 30  1  0
 32 31  2  0
 33 28  1  0
 33 32  1  0
 34 25  1  0
 34 33  2  0
 35 21  1  0
 36 18  1  0
 36 35  1  0
 37  3  1  0
  4 38  1  1
 39  6  1  0
 40  7  1  0
 41 10  1  0
 42 11  1  0
 43 13  1  0
 44 14  1  0
 45 15  1  0
 46 16  1  0
 18 47  1  6
 48 19  1  0
 49 19  1  0
 50 20  1  0
 51 20  1  0
 52 22  1  0
 53 22  1  0
 54 23  1  0
 55 23  1  0
 56 26  1  0
 57 27  1  0
 58 29  1  0
 59 30  1  0
 60 31  1  0
 61 34  1  0
 62 35  1  0
 63 35  1  0
 64 36  1  0
 65 36  1  0
 21 66  1  1
M  CHG  1  21   1
M  END
>  <b_m_subgroup_collapsed>  (99) 
0

>  <r_i_docking_score>  (99) 
-9.0477961641710003

>  <s_m_subgroup_title>  (99) 
glide-dock_SP_D22_pv

>  <s_m_subgroupid>  (99) 
glide-dock_SP_D22_pv

>  <Molecule ChEMBL ID>  (99) 
CHEMBL5757240

>  <Standard Type>  (99) 
Ki

>  <Standard Value>  (99) 
20000.0

>  <label>  (99) 
0

$$$$
CHEMBL5779786
     RDKit          3D

 62 65  0  0  1  0  0  0  0  0999 V2000
   10.7036    5.6954  -12.9114 O   0  0  0  0  0  0  0  0  0  0  0  0
    9.6986    5.0522  -13.2022 C   0  0  0  0  0  0  0  0  0  0  0  0
    9.7162    4.0729  -14.1192 N   0  0  0  0  0  0  0  0  0  0  0  0
   10.9262    3.5743  -14.7810 C   0  0  1  0  0  0  0  0  0  0  0  0
   10.6923    2.2487  -15.5154 C   0  0  0  0  0  0  0  0  0  0  0  0
    9.7226    1.3290  -15.0473 C   0  0  0  0  0  0  0  0  0  0  0  0
    9.5162    0.1090  -15.7149 C   0  0  0  0  0  0  0  0  0  0  0  0
   10.2793   -0.2209  -16.8498 C   0  0  0  0  0  0  0  0  0  0  0  0
   10.0860   -1.4023  -17.4821 F   0  0  0  0  0  0  0  0  0  0  0  0
   11.2588    0.6734  -17.3134 C   0  0  0  0  0  0  0  0  0  0  0  0
   11.4697    1.8953  -16.6472 C   0  0  0  0  0  0  0  0  0  0  0  0
   11.5770    4.6435  -15.6564 C   0  0  0  0  0  0  0  0  0  0  0  0
   12.8842    5.0901  -15.3621 C   0  0  0  0  0  0  0  0  0  0  0  0
   13.4931    6.0784  -16.1584 C   0  0  0  0  0  0  0  0  0  0  0  0
   12.8012    6.6187  -17.2573 C   0  0  0  0  0  0  0  0  0  0  0  0
   13.5513    7.8250  -18.2324 Cl  0  0  0  0  0  0  0  0  0  0  0  0
   11.4979    6.1739  -17.5584 C   0  0  0  0  0  0  0  0  0  0  0  0
   10.8828    5.1958  -16.7543 C   0  0  0  0  0  0  0  0  0  0  0  0
    8.3557    5.3495  -12.5074 C   0  0  1  0  0  0  0  0  0  0  0  0
    8.3178    4.8214  -11.0631 C   0  0  0  0  0  0  0  0  0  0  0  0
    9.1845    5.6347  -10.0838 C   0  0  0  0  0  0  0  0  0  0  0  0
    8.8861    7.0901  -10.1209 N   0  0  1  0  0  0  0  0  0  0  0  0
    9.7435    7.8675   -9.1851 C   0  0  0  0  0  0  0  0  0  0  0  0
    8.9807    8.3485   -7.9441 C   0  0  0  0  0  0  0  0  0  0  0  0
    9.8477    9.1772   -7.1738 O   0  0  0  0  0  0  0  0  0  0  0  0
   10.5907    8.6445   -6.1429 C   0  0  0  0  0  0  0  0  0  0  0  0
   11.2847    9.5621   -5.3235 C   0  0  0  0  0  0  0  0  0  0  0  0
   12.0249    9.1216   -4.2085 C   0  0  0  0  0  0  0  0  0  0  0  0
   12.0865    7.7510   -3.9038 C   0  0  0  0  0  0  0  0  0  0  0  0
   11.4205    6.8259   -4.7294 C   0  0  0  0  0  0  0  0  0  0  0  0
   10.6833    7.2633   -5.8467 C   0  0  0  0  0  0  0  0  0  0  0  0
    8.8895    7.6609  -11.4930 C   0  0  0  0  0  0  0  0  0  0  0  0
    8.0069    6.8494  -12.4661 C   0  0  0  0  0  0  0  0  0  0  0  0
    8.8538    3.5959  -14.3314 H   0  0  0  0  0  0  0  0  0  0  0  0
   11.6314    3.3269  -13.9853 H   0  0  0  0  0  0  0  0  0  0  0  0
    9.1369    1.5430  -14.1645 H   0  0  0  0  0  0  0  0  0  0  0  0
    8.7745   -0.5877  -15.3516 H   0  0  0  0  0  0  0  0  0  0  0  0
   11.8581    0.4169  -18.1736 H   0  0  0  0  0  0  0  0  0  0  0  0
   12.2397    2.5546  -17.0183 H   0  0  0  0  0  0  0  0  0  0  0  0
   13.4214    4.6851  -14.5176 H   0  0  0  0  0  0  0  0  0  0  0  0
   14.4904    6.4189  -15.9232 H   0  0  0  0  0  0  0  0  0  0  0  0
   10.9663    6.5930  -18.4000 H   0  0  0  0  0  0  0  0  0  0  0  0
    9.8810    4.8643  -16.9865 H   0  0  0  0  0  0  0  0  0  0  0  0
    7.5754    4.8402  -13.0769 H   0  0  0  0  0  0  0  0  0  0  0  0
    8.6513    3.7851  -11.0556 H   0  0  0  0  0  0  0  0  0  0  0  0
    7.2863    4.8134  -10.7154 H   0  0  0  0  0  0  0  0  0  0  0  0
   10.2380    5.4790  -10.3083 H   0  0  0  0  0  0  0  0  0  0  0  0
    9.0284    5.2666   -9.0695 H   0  0  0  0  0  0  0  0  0  0  0  0
   10.1465    8.7474   -9.6907 H   0  0  0  0  0  0  0  0  0  0  0  0
   10.6139    7.2845   -8.8847 H   0  0  0  0  0  0  0  0  0  0  0  0
    8.5378    7.5322   -7.3710 H   0  0  0  0  0  0  0  0  0  0  0  0
    8.1455    8.9787   -8.2529 H   0  0  0  0  0  0  0  0  0  0  0  0
   11.2316   10.6193   -5.5422 H   0  0  0  0  0  0  0  0  0  0  0  0
   12.5397    9.8342   -3.5796 H   0  0  0  0  0  0  0  0  0  0  0  0
   12.6475    7.4070   -3.0479 H   0  0  0  0  0  0  0  0  0  0  0  0
   11.4723    5.7729   -4.5007 H   0  0  0  0  0  0  0  0  0  0  0  0
   10.1913    6.5164   -6.4502 H   0  0  0  0  0  0  0  0  0  0  0  0
    8.5069    8.6802  -11.4472 H   0  0  0  0  0  0  0  0  0  0  0  0
    9.9114    7.7419  -11.8614 H   0  0  0  0  0  0  0  0  0  0  0  0
    8.0835    7.2831  -13.4469 H   0  0  0  0  0  0  0  0  0  0  0  0
    6.9504    6.9668  -12.2281 H   0  0  0  0  0  0  0  0  0  0  0  0
    7.9075    7.2264   -9.8467 H   0  0  0  0  0  0  0  0  0  0  0  0
  2  1  2  0
  3  2  1  0
  4  3  1  0
  5  4  1  0
  6  5  1  0
  7  6  2  0
  8  7  1  0
  9  8  1  0
 10  8  2  0
 11  5  2  0
 11 10  1  0
 12  4  1  0
 13 12  1  0
 14 13  2  0
 15 14  1  0
 16 15  1  0
 17 15  2  0
 18 12  2  0
 18 17  1  0
 19  2  1  0
 20 19  1  0
 21 20  1  0
 22 21  1  0
 23 22  1  0
 24 23  1  0
 25 24  1  0
 26 25  1  0
 27 26  2  0
 28 27  1  0
 29 28  2  0
 30 29  1  0
 31 26  1  0
 31 30  2  0
 32 22  1  0
 33 19  1  0
 33 32  1  0
 34  3  1  0
  4 35  1  1
 36  6  1  0
 37  7  1  0
 38 10  1  0
 39 11  1  0
 40 13  1  0
 41 14  1  0
 42 17  1  0
 43 18  1  0
 19 44  1  6
 45 20  1  0
 46 20  1  0
 47 21  1  0
 48 21  1  0
 49 23  1  0
 50 23  1  0
 51 24  1  0
 52 24  1  0
 53 27  1  0
 54 28  1  0
 55 29  1  0
 56 30  1  0
 57 31  1  0
 58 32  1  0
 59 32  1  0
 60 33  1  0
 61 33  1  0
 22 62  1  1
M  CHG  1  22   1
M  END
>  <b_m_subgroup_collapsed>  (100) 
0

>  <r_i_docking_score>  (100) 
-9.0467455948508206

>  <s_m_subgroup_title>  (100) 
glide-dock_SP_D22_pv

>  <s_m_subgroupid>  (100) 
glide-dock_SP_D22_pv

>  <Molecule ChEMBL ID>  (100) 
CHEMBL5779786

>  <Standard Type>  (100) 
Ki

>  <Standard Value>  (100) 
55.0

>  <label>  (100) 
1

$$$$
CHEMBL196866
     RDKit          3D

 49 52  0  0  1  0  0  0  0  0999 V2000
   10.9736    7.7718  -11.3761 O   0  0  0  0  0  0  0  0  0  0  0  0
   10.0778    7.5271  -10.5676 C   0  0  0  0  0  0  0  0  0  0  0  0
    8.8863    7.0250  -10.9296 N   0  0  0  0  0  0  0  0  0  0  0  0
    8.5665    6.4834  -12.2472 C   0  0  1  0  0  0  0  0  0  0  0  0
    9.5818    5.4492  -12.7843 C   0  0  0  0  0  0  0  0  0  0  0  0
    8.7890    4.1558  -12.9096 C   0  0  0  0  0  0  0  0  0  0  0  0
    7.3977    4.5909  -13.1523 N   0  0  1  0  0  0  0  0  0  0  0  0
    6.3418    3.5487  -13.0256 C   0  0  0  0  0  0  0  0  0  0  0  0
    6.5371    2.2734  -13.8565 C   0  0  0  0  0  0  0  0  0  0  0  0
    7.2759    2.2575  -15.0630 C   0  0  0  0  0  0  0  0  0  0  0  0
    7.3920    1.0797  -15.8244 C   0  0  0  0  0  0  0  0  0  0  0  0
    6.7769   -0.1051  -15.3859 C   0  0  0  0  0  0  0  0  0  0  0  0
    6.0646   -0.1155  -14.1757 C   0  0  0  0  0  0  0  0  0  0  0  0
    5.9483    1.0646  -13.4175 C   0  0  0  0  0  0  0  0  0  0  0  0
    5.2846    1.0281  -12.2412 F   0  0  0  0  0  0  0  0  0  0  0  0
    7.2150    5.7506  -12.2484 C   0  0  0  0  0  0  0  0  0  0  0  0
   10.3007    7.7521   -9.0990 C   0  0  0  0  0  0  0  0  0  0  0  0
   11.2378    8.7171   -8.6713 C   0  0  0  0  0  0  0  0  0  0  0  0
   11.5741    8.8326   -7.3091 C   0  0  0  0  0  0  0  0  0  0  0  0
   10.9942    7.9748   -6.3497 C   0  0  0  0  0  0  0  0  0  0  0  0
   11.4218    8.0164   -4.9565 C   0  0  0  0  0  0  0  0  0  0  0  0
   11.6860    6.9716   -4.1074 C   0  0  0  0  0  0  0  0  0  0  0  0
   12.0863    7.3944   -2.8060 C   0  0  0  0  0  0  0  0  0  0  0  0
   12.1357    8.7580   -2.6858 C   0  0  0  0  0  0  0  0  0  0  0  0
   11.6852    9.5489   -4.1704 S   0  0  0  0  0  0  0  0  0  0  0  0
   10.0358    7.0305   -6.7733 C   0  0  0  0  0  0  0  0  0  0  0  0
    9.6866    6.9205   -8.1333 C   0  0  0  0  0  0  0  0  0  0  0  0
    8.1324    7.0480  -10.2478 H   0  0  0  0  0  0  0  0  0  0  0  0
    8.4913    7.3229  -12.9392 H   0  0  0  0  0  0  0  0  0  0  0  0
    9.9243    5.7664  -13.7706 H   0  0  0  0  0  0  0  0  0  0  0  0
   10.4753    5.3080  -12.1752 H   0  0  0  0  0  0  0  0  0  0  0  0
    9.1950    3.5111  -13.6871 H   0  0  0  0  0  0  0  0  0  0  0  0
    8.8480    3.6145  -11.9655 H   0  0  0  0  0  0  0  0  0  0  0  0
    6.2549    3.2746  -11.9727 H   0  0  0  0  0  0  0  0  0  0  0  0
    5.3833    3.9872  -13.3067 H   0  0  0  0  0  0  0  0  0  0  0  0
    7.7718    3.1392  -15.4283 H   0  0  0  0  0  0  0  0  0  0  0  0
    7.9565    1.0824  -16.7451 H   0  0  0  0  0  0  0  0  0  0  0  0
    6.8678   -1.0117  -15.9679 H   0  0  0  0  0  0  0  0  0  0  0  0
    5.6127   -1.0336  -13.8309 H   0  0  0  0  0  0  0  0  0  0  0  0
    6.9739    5.3938  -11.2450 H   0  0  0  0  0  0  0  0  0  0  0  0
    6.3952    6.3927  -12.5718 H   0  0  0  0  0  0  0  0  0  0  0  0
   11.7336    9.3524   -9.3931 H   0  0  0  0  0  0  0  0  0  0  0  0
   12.3207    9.5550   -7.0127 H   0  0  0  0  0  0  0  0  0  0  0  0
   11.5981    5.9278   -4.3710 H   0  0  0  0  0  0  0  0  0  0  0  0
   12.3230    6.6927   -2.0196 H   0  0  0  0  0  0  0  0  0  0  0  0
   12.4105    9.3494   -1.8234 H   0  0  0  0  0  0  0  0  0  0  0  0
    9.5751    6.3692   -6.0530 H   0  0  0  0  0  0  0  0  0  0  0  0
    8.9739    6.1631   -8.4260 H   0  0  0  0  0  0  0  0  0  0  0  0
    7.3668    4.9450  -14.0966 H   0  0  0  0  0  0  0  0  0  0  0  0
  2  1  2  0
  3  2  1  0
  4  3  1  0
  5  4  1  0
  6  5  1  0
  7  6  1  0
  8  7  1  0
  9  8  1  0
 10  9  2  0
 11 10  1  0
 12 11  2  0
 13 12  1  0
 14  9  1  0
 14 13  2  0
 15 14  1  0
 16  4  1  0
 16  7  1  0
 17  2  1  0
 18 17  1  0
 19 18  2  0
 20 19  1  0
 21 20  1  0
 22 21  2  0
 23 22  1  0
 24 23  2  0
 25 21  1  0
 25 24  1  0
 26 20  2  0
 27 17  2  0
 27 26  1  0
 28  3  1  0
  4 29  1  6
 30  5  1  0
 31  5  1  0
 32  6  1  0
 33  6  1  0
 34  8  1  0
 35  8  1  0
 36 10  1  0
 37 11  1  0
 38 12  1  0
 39 13  1  0
 40 16  1  0
 41 16  1  0
 42 18  1  0
 43 19  1  0
 44 22  1  0
 45 23  1  0
 46 24  1  0
 47 26  1  0
 48 27  1  0
  7 49  1  6
M  CHG  1   7   1
M  END
>  <b_m_subgroup_collapsed>  (101) 
0

>  <r_i_docking_score>  (101) 
-9.0307576337793503

>  <s_m_subgroup_title>  (101) 
glide-dock_SP_D22_pv

>  <s_m_subgroupid>  (101) 
glide-dock_SP_D22_pv

>  <Molecule ChEMBL ID>  (101) 
CHEMBL196866

>  <Standard Type>  (101) 
Ki

>  <Standard Value>  (101) 
38000.0

>  <label>  (101) 
0

$$$$
CHEMBL5289845
     RDKit          3D

 44 46  0  0  1  0  0  0  0  0999 V2000
   10.7406    4.0839  -14.0772 O   0  0  0  0  0  0  0  0  0  0  0  0
    9.7937    4.5817  -13.4696 C   0  0  0  0  0  0  0  0  0  0  0  0
    9.9595    5.8076  -12.6624 C   0  0  0  0  0  0  0  0  0  0  0  0
    8.9191    6.3417  -11.9879 C   0  0  0  0  0  0  0  0  0  0  0  0
    9.0356    7.6018  -11.1590 C   0  0  0  0  0  0  0  0  0  0  0  0
    8.8860    7.2498   -9.7303 N   0  0  0  0  0  0  0  0  0  0  0  0
    9.2996    8.2839   -8.7587 C   0  0  0  0  0  0  0  0  0  0  0  0
   10.7490    8.1169   -8.2364 C   0  0  1  0  0  0  0  0  0  0  0  0
   11.7962    8.3939   -9.3407 C   0  0  0  0  0  0  0  0  0  0  0  0
   13.1104    8.1724   -8.8856 O   0  0  0  0  0  0  0  0  0  0  0  0
   10.9608    9.0499   -7.0047 C   0  0  0  0  0  0  0  0  0  0  0  0
   11.2933    8.4023   -5.6800 C   0  0  0  0  0  0  0  0  0  0  0  0
   11.2745    7.0077   -5.3442 C   0  0  0  0  0  0  0  0  0  0  0  0
   11.6858    6.7489   -4.0626 C   0  0  0  0  0  0  0  0  0  0  0  0
   12.0861    8.2067   -3.2063 S   0  0  0  0  0  0  0  0  0  0  0  0
   11.6872    9.1635   -4.6065 C   0  0  0  0  0  0  0  0  0  0  0  0
    7.6551    5.7725  -12.0138 N   0  0  0  0  0  0  0  0  0  0  0  0
    7.3853    4.6047  -12.7350 C   0  0  0  0  0  0  0  0  0  0  0  0
    6.0990    4.0325  -12.7093 C   0  0  0  0  0  0  0  0  0  0  0  0
    5.8420    2.8610  -13.4474 C   0  0  0  0  0  0  0  0  0  0  0  0
    6.8572    2.2748  -14.2311 C   0  0  0  0  0  0  0  0  0  0  0  0
    6.5994    1.1547  -14.9456 F   0  0  0  0  0  0  0  0  0  0  0  0
    8.1467    2.8376  -14.2470 C   0  0  0  0  0  0  0  0  0  0  0  0
    8.4218    3.9967  -13.4896 C   0  0  0  0  0  0  0  0  0  0  0  0
   10.9373    6.2653  -12.6368 H   0  0  0  0  0  0  0  0  0  0  0  0
    8.2484    8.3019  -11.4469 H   0  0  0  0  0  0  0  0  0  0  0  0
    9.9726    8.1071  -11.3804 H   0  0  0  0  0  0  0  0  0  0  0  0
    9.3111    6.3591   -9.5206 H   0  0  0  0  0  0  0  0  0  0  0  0
    8.6143    8.1833   -7.9146 H   0  0  0  0  0  0  0  0  0  0  0  0
    9.1300    9.2820   -9.1658 H   0  0  0  0  0  0  0  0  0  0  0  0
   10.8703    7.0753   -7.9509 H   0  0  0  0  0  0  0  0  0  0  0  0
   11.7061    9.4131   -9.7187 H   0  0  0  0  0  0  0  0  0  0  0  0
   11.6707    7.7159  -10.1820 H   0  0  0  0  0  0  0  0  0  0  0  0
   13.6798    8.8002   -9.3175 H   0  0  0  0  0  0  0  0  0  0  0  0
   11.7461    9.7703   -7.2363 H   0  0  0  0  0  0  0  0  0  0  0  0
   10.0858    9.6818   -6.8634 H   0  0  0  0  0  0  0  0  0  0  0  0
   10.9775    6.2294   -6.0296 H   0  0  0  0  0  0  0  0  0  0  0  0
   11.7653    5.7868   -3.5722 H   0  0  0  0  0  0  0  0  0  0  0  0
   11.7833   10.2367   -4.5586 H   0  0  0  0  0  0  0  0  0  0  0  0
    6.8921    6.2370  -11.5247 H   0  0  0  0  0  0  0  0  0  0  0  0
    5.3126    4.4815  -12.1194 H   0  0  0  0  0  0  0  0  0  0  0  0
    4.8611    2.4123  -13.4235 H   0  0  0  0  0  0  0  0  0  0  0  0
    8.9231    2.3655  -14.8320 H   0  0  0  0  0  0  0  0  0  0  0  0
    7.8705    7.1722   -9.6369 H   0  0  0  0  0  0  0  0  0  0  0  0
  2  1  2  0
  3  2  1  0
  4  3  2  0
  5  4  1  0
  6  5  1  0
  7  6  1  0
  8  7  1  0
  9  8  1  0
 10  9  1  0
 11  8  1  0
 12 11  1  0
 13 12  1  0
 14 13  2  0
 15 14  1  0
 16 12  2  0
 16 15  1  0
 17  4  1  0
 18 17  1  0
 19 18  2  0
 20 19  1  0
 21 20  2  0
 22 21  1  0
 23 21  1  0
 24  2  1  0
 24 18  1  0
 24 23  2  0
 25  3  1  0
 26  5  1  0
 27  5  1  0
 28  6  1  0
 29  7  1  0
 30  7  1  0
  8 31  1  1
 32  9  1  0
 33  9  1  0
 34 10  1  0
 35 11  1  0
 36 11  1  0
 37 13  1  0
 38 14  1  0
 39 16  1  0
 40 17  1  0
 41 19  1  0
 42 20  1  0
 43 23  1  0
 44  6  1  0
M  CHG  1   6   1
M  END
>  <b_m_subgroup_collapsed>  (102) 
0

>  <r_i_docking_score>  (102) 
-9.0305215353841994

>  <s_m_subgroup_title>  (102) 
glide-dock_SP_D22_pv

>  <s_m_subgroupid>  (102) 
glide-dock_SP_D22_pv

>  <Molecule ChEMBL ID>  (102) 
CHEMBL5289845

>  <Standard Type>  (102) 
Ki

>  <Standard Value>  (102) 
10000.0

>  <label>  (102) 
0

$$$$
CHEMBL400827
     RDKit          3D

 49 52  0  0  1  0  0  0  0  0999 V2000
   11.6867   11.0578   -6.0032 C   0  0  0  0  0  0  0  0  0  0  0  0
   11.3363    9.6787   -5.9034 N   0  0  0  0  0  0  0  0  0  0  0  0
   10.6884    8.9330   -6.8730 C   0  0  0  0  0  0  0  0  0  0  0  0
   10.7268    7.6015   -6.5425 C   0  0  0  0  0  0  0  0  0  0  0  0
   10.3269    6.3807   -7.3520 C   0  0  0  0  0  0  0  0  0  0  0  0
    9.6121    6.5867   -8.6498 N   0  0  2  0  0  0  0  0  0  0  0  0
    9.1776    5.2902   -9.2447 C   0  0  0  0  0  0  0  0  0  0  0  0
    8.2948    5.4731  -10.5011 C   0  0  0  0  0  0  0  0  0  0  0  0
    8.8224    6.5046  -11.5479 C   0  0  2  0  0  0  0  0  0  0  0  0
    7.6863    6.9744  -12.2469 O   0  0  0  0  0  0  0  0  0  0  0  0
    9.8058    5.8862  -12.5606 C   0  0  0  0  0  0  0  0  0  0  0  0
   11.0679    6.4668  -12.8531 C   0  0  0  0  0  0  0  0  0  0  0  0
   11.8986    5.9242  -13.8511 C   0  0  0  0  0  0  0  0  0  0  0  0
   11.4811    4.8006  -14.5839 C   0  0  0  0  0  0  0  0  0  0  0  0
   12.4827    4.1719  -15.8381 Cl  0  0  0  0  0  0  0  0  0  0  0  0
   10.2366    4.2084  -14.3049 C   0  0  0  0  0  0  0  0  0  0  0  0
    9.4053    4.7522  -13.3066 C   0  0  0  0  0  0  0  0  0  0  0  0
    9.3821    7.7448  -10.8055 C   0  0  0  0  0  0  0  0  0  0  0  0
   10.3588    7.3425   -9.6891 C   0  0  0  0  0  0  0  0  0  0  0  0
   11.2714    7.5736   -5.2047 C   0  0  0  0  0  0  0  0  0  0  0  0
   11.5201    6.5713   -4.2511 C   0  0  0  0  0  0  0  0  0  0  0  0
   12.0845    6.8343   -2.9878 C   0  0  0  0  0  0  0  0  0  0  0  0
   12.4337    8.1470   -2.6407 C   0  0  0  0  0  0  0  0  0  0  0  0
   12.2159    9.1755   -3.5687 C   0  0  0  0  0  0  0  0  0  0  0  0
   11.6386    8.8874   -4.8221 C   0  0  0  0  0  0  0  0  0  0  0  0
   12.7734   11.1041   -5.9922 H   0  0  0  0  0  0  0  0  0  0  0  0
   11.3296   11.4821   -6.9352 H   0  0  0  0  0  0  0  0  0  0  0  0
   11.2857   11.5958   -5.1458 H   0  0  0  0  0  0  0  0  0  0  0  0
   10.3225    9.4339   -7.7543 H   0  0  0  0  0  0  0  0  0  0  0  0
    9.6752    5.7733   -6.7251 H   0  0  0  0  0  0  0  0  0  0  0  0
   11.2114    5.7688   -7.5365 H   0  0  0  0  0  0  0  0  0  0  0  0
    8.6188    4.7128   -8.5066 H   0  0  0  0  0  0  0  0  0  0  0  0
   10.0566    4.6954   -9.4994 H   0  0  0  0  0  0  0  0  0  0  0  0
    7.3114    5.7729  -10.1499 H   0  0  0  0  0  0  0  0  0  0  0  0
    8.1057    4.5022  -10.9560 H   0  0  0  0  0  0  0  0  0  0  0  0
    7.0937    7.3688  -11.5978 H   0  0  0  0  0  0  0  0  0  0  0  0
   11.4308    7.3423  -12.3414 H   0  0  0  0  0  0  0  0  0  0  0  0
   12.8541    6.3816  -14.0646 H   0  0  0  0  0  0  0  0  0  0  0  0
    9.9081    3.3493  -14.8713 H   0  0  0  0  0  0  0  0  0  0  0  0
    8.4360    4.3071  -13.1399 H   0  0  0  0  0  0  0  0  0  0  0  0
    9.8261    8.4613  -11.4961 H   0  0  0  0  0  0  0  0  0  0  0  0
    8.5705    8.3034  -10.3384 H   0  0  0  0  0  0  0  0  0  0  0  0
   10.8473    8.2345   -9.3205 H   0  0  0  0  0  0  0  0  0  0  0  0
   11.1709    6.7258  -10.0741 H   0  0  0  0  0  0  0  0  0  0  0  0
   11.2513    5.5629   -4.5012 H   0  0  0  0  0  0  0  0  0  0  0  0
   12.2415    6.0253   -2.2877 H   0  0  0  0  0  0  0  0  0  0  0  0
   12.8662    8.3654   -1.6747 H   0  0  0  0  0  0  0  0  0  0  0  0
   12.4942   10.1777   -3.3023 H   0  0  0  0  0  0  0  0  0  0  0  0
    8.7685    7.1063   -8.4365 H   0  0  0  0  0  0  0  0  0  0  0  0
  2  1  1  0
  3  2  1  0
  4  3  2  0
  5  4  1  0
  6  5  1  0
  7  6  1  0
  8  7  1  0
  9  8  1  0
  9 10  1  6
 11  9  1  0
 12 11  2  0
 13 12  1  0
 14 13  2  0
 15 14  1  0
 16 14  1  0
 17 11  1  0
 17 16  2  0
 18  9  1  0
 19  6  1  0
 19 18  1  0
 20  4  1  0
 21 20  2  0
 22 21  1  0
 23 22  2  0
 24 23  1  0
 25  2  1  0
 25 20  1  0
 25 24  2  0
 26  1  1  0
 27  1  1  0
 28  1  1  0
 29  3  1  0
 30  5  1  0
 31  5  1  0
 32  7  1  0
 33  7  1  0
 34  8  1  0
 35  8  1  0
 36 10  1  0
 37 12  1  0
 38 13  1  0
 39 16  1  0
 40 17  1  0
 41 18  1  0
 42 18  1  0
 43 19  1  0
 44 19  1  0
 45 21  1  0
 46 22  1  0
 47 23  1  0
 48 24  1  0
  6 49  1  1
M  CHG  1   6   1
M  END
>  <b_m_subgroup_collapsed>  (103) 
0

>  <r_i_docking_score>  (103) 
-9.0219093085539992

>  <s_m_subgroup_title>  (103) 
glide-dock_SP_D22_pv

>  <s_m_subgroupid>  (103) 
glide-dock_SP_D22_pv

>  <Molecule ChEMBL ID>  (103) 
CHEMBL400827

>  <Standard Type>  (103) 
Ki

>  <Standard Value>  (103) 
29.6

>  <label>  (103) 
1

$$$$
CHEMBL4293999
     RDKit          3D

 66 71  0  0  1  0  0  0  0  0999 V2000
   10.2563    5.1777  -14.1406 O   0  0  0  0  0  0  0  0  0  0  0  0
    9.7330    4.0757  -14.3082 C   0  0  0  0  0  0  0  0  0  0  0  0
    8.5152    3.6721  -13.4617 C   0  0  0  0  0  0  0  0  0  0  0  0
    7.5848    4.8085  -12.9842 C   0  0  0  0  0  0  0  0  0  0  0  0
    8.1348    5.8321  -11.9831 C   0  0  0  0  0  0  0  0  0  0  0  0
    8.5187    5.2333  -10.6201 C   0  0  0  0  0  0  0  0  0  0  0  0
    8.8423    6.2814   -9.6200 N   0  0  1  0  0  0  0  0  0  0  0  0
    8.6993    5.7754   -8.2289 C   0  0  0  0  0  0  0  0  0  0  0  0
    9.0133    6.8623   -7.1861 C   0  0  0  0  0  0  0  0  0  0  0  0
   10.4379    7.3875   -7.3962 C   0  0  2  0  0  0  0  0  0  0  0  0
   10.8510    8.3721   -6.3337 C   0  0  0  0  0  0  0  0  0  0  0  0
   10.6733    9.6813   -6.4936 N   0  0  0  0  0  0  0  0  0  0  0  0
   11.1275   10.3270   -5.3127 O   0  0  0  0  0  0  0  0  0  0  0  0
   11.5627    9.3757   -4.4080 C   0  0  0  0  0  0  0  0  0  0  0  0
   12.0701    9.4888   -3.1091 C   0  0  0  0  0  0  0  0  0  0  0  0
   12.3948    8.3011   -2.4245 C   0  0  0  0  0  0  0  0  0  0  0  0
   12.8860    8.3677   -1.1682 F   0  0  0  0  0  0  0  0  0  0  0  0
   12.1967    7.0425   -3.0421 C   0  0  0  0  0  0  0  0  0  0  0  0
   11.6857    6.9553   -4.3580 C   0  0  0  0  0  0  0  0  0  0  0  0
   11.3732    8.1481   -5.0453 C   0  0  0  0  0  0  0  0  0  0  0  0
   10.5466    7.9575   -8.8211 C   0  0  0  0  0  0  0  0  0  0  0  0
   10.1740    6.8975   -9.8663 C   0  0  0  0  0  0  0  0  0  0  0  0
   10.2445    3.0850  -15.2994 C   0  0  0  0  0  0  0  0  0  0  0  0
   11.3055    3.4730  -16.1665 C   0  0  0  0  0  0  0  0  0  0  0  0
   11.8152    2.5851  -17.1367 C   0  0  0  0  0  0  0  0  0  0  0  0
   11.2177    1.3157  -17.2070 C   0  0  0  0  0  0  0  0  0  0  0  0
   10.2009    0.8866  -16.3630 C   0  0  0  0  0  0  0  0  0  0  0  0
    9.7112    1.7664  -15.3839 C   0  0  0  0  0  0  0  0  0  0  0  0
    9.8616   -0.5391  -16.7324 C   0  0  0  0  0  0  0  0  0  0  0  0
   10.7247   -0.8645  -17.9661 C   0  0  0  0  0  0  0  0  0  0  0  0
   11.5588    0.3173  -18.1357 N   0  0  0  0  0  0  0  0  0  0  0  0
   12.4422    0.4985  -19.1331 C   0  0  0  0  0  0  0  0  0  0  0  0
   12.8163   -0.4106  -19.8742 O   0  0  0  0  0  0  0  0  0  0  0  0
   12.9342    1.9311  -19.3696 C   0  0  0  0  0  0  0  0  0  0  0  0
   12.9934    2.7816  -18.0830 C   0  0  0  0  0  0  0  0  0  0  0  0
    7.8839    3.0091  -14.0504 H   0  0  0  0  0  0  0  0  0  0  0  0
    8.8860    3.0866  -12.6278 H   0  0  0  0  0  0  0  0  0  0  0  0
    7.2394    5.3667  -13.8473 H   0  0  0  0  0  0  0  0  0  0  0  0
    6.6895    4.3557  -12.5562 H   0  0  0  0  0  0  0  0  0  0  0  0
    8.9679    6.3783  -12.4167 H   0  0  0  0  0  0  0  0  0  0  0  0
    7.3499    6.5740  -11.8409 H   0  0  0  0  0  0  0  0  0  0  0  0
    7.6859    4.6344  -10.2557 H   0  0  0  0  0  0  0  0  0  0  0  0
    9.3579    4.5452  -10.7235 H   0  0  0  0  0  0  0  0  0  0  0  0
    7.6868    5.4079   -8.0708 H   0  0  0  0  0  0  0  0  0  0  0  0
    9.3590    4.9202   -8.0848 H   0  0  0  0  0  0  0  0  0  0  0  0
    8.9103    6.4422   -6.1861 H   0  0  0  0  0  0  0  0  0  0  0  0
    8.2916    7.6781   -7.2517 H   0  0  0  0  0  0  0  0  0  0  0  0
   11.1171    6.5358   -7.3308 H   0  0  0  0  0  0  0  0  0  0  0  0
   12.1887   10.4552   -2.6456 H   0  0  0  0  0  0  0  0  0  0  0  0
   12.4399    6.1375   -2.5035 H   0  0  0  0  0  0  0  0  0  0  0  0
   11.5363    5.9940   -4.8247 H   0  0  0  0  0  0  0  0  0  0  0  0
   11.5601    8.3134   -9.0049 H   0  0  0  0  0  0  0  0  0  0  0  0
    9.8897    8.8209   -8.9366 H   0  0  0  0  0  0  0  0  0  0  0  0
   10.9076    6.1021   -9.8474 H   0  0  0  0  0  0  0  0  0  0  0  0
   10.2135    7.3469  -10.8572 H   0  0  0  0  0  0  0  0  0  0  0  0
   11.7442    4.4581  -16.0887 H   0  0  0  0  0  0  0  0  0  0  0  0
    8.9366    1.4054  -14.7268 H   0  0  0  0  0  0  0  0  0  0  0  0
   10.1026   -1.1841  -15.8888 H   0  0  0  0  0  0  0  0  0  0  0  0
    8.7959   -0.6329  -16.9416 H   0  0  0  0  0  0  0  0  0  0  0  0
   10.0962   -0.9872  -18.8480 H   0  0  0  0  0  0  0  0  0  0  0  0
   11.3089   -1.7726  -17.8466 H   0  0  0  0  0  0  0  0  0  0  0  0
   12.2298    2.3879  -20.0641 H   0  0  0  0  0  0  0  0  0  0  0  0
   13.9026    1.9209  -19.8712 H   0  0  0  0  0  0  0  0  0  0  0  0
   13.0446    3.8364  -18.3544 H   0  0  0  0  0  0  0  0  0  0  0  0
   13.9093    2.5730  -17.5316 H   0  0  0  0  0  0  0  0  0  0  0  0
    8.1309    6.9994   -9.7307 H   0  0  0  0  0  0  0  0  0  0  0  0
  2  1  2  0
  3  2  1  0
  4  3  1  0
  5  4  1  0
  6  5  1  0
  7  6  1  0
  8  7  1  0
  9  8  1  0
 10  9  1  0
 11 10  1  0
 12 11  2  0
 13 12  1  0
 14 13  1  0
 15 14  2  0
 16 15  1  0
 17 16  1  0
 18 16  2  0
 19 18  1  0
 20 11  1  0
 20 14  1  0
 20 19  2  0
 21 10  1  0
 22  7  1  0
 22 21  1  0
 23  2  1  0
 24 23  2  0
 25 24  1  0
 26 25  2  0
 27 26  1  0
 28 23  1  0
 28 27  2  0
 29 27  1  0
 30 29  1  0
 31 26  1  0
 31 30  1  0
 32 31  1  0
 33 32  2  0
 34 32  1  0
 35 25  1  0
 35 34  1  0
 36  3  1  0
 37  3  1  0
 38  4  1  0
 39  4  1  0
 40  5  1  0
 41  5  1  0
 42  6  1  0
 43  6  1  0
 44  8  1  0
 45  8  1  0
 46  9  1  0
 47  9  1  0
 10 48  1  6
 49 15  1  0
 50 18  1  0
 51 19  1  0
 52 21  1  0
 53 21  1  0
 54 22  1  0
 55 22  1  0
 56 24  1  0
 57 28  1  0
 58 29  1  0
 59 29  1  0
 60 30  1  0
 61 30  1  0
 62 34  1  0
 63 34  1  0
 64 35  1  0
 65 35  1  0
  7 66  1  1
M  CHG  1   7   1
M  END
>  <b_m_subgroup_collapsed>  (104) 
0

>  <r_i_docking_score>  (104) 
-9.0161736548135298

>  <s_m_subgroup_title>  (104) 
glide-dock_SP_D22_pv

>  <s_m_subgroupid>  (104) 
glide-dock_SP_D22_pv

>  <Molecule ChEMBL ID>  (104) 
CHEMBL4293999

>  <Standard Type>  (104) 
Ki

>  <Standard Value>  (104) 
2.9

>  <label>  (104) 
1

$$$$
CHEMBL443006
     RDKit          3D

 52 55  0  0  1  0  0  0  0  0999 V2000
   11.0820    1.6299  -16.8622 C   0  0  0  0  0  0  0  0  0  0  0  0
    9.9354    0.5047  -15.9716 S   0  0  0  0  0  0  0  0  0  0  0  0
    9.5029   -0.5487  -16.9002 O   0  0  0  0  0  0  0  0  0  0  0  0
   10.4860    0.1724  -14.6508 O   0  0  0  0  0  0  0  0  0  0  0  0
    8.5369    1.4823  -15.6684 N   0  0  0  0  0  0  0  0  0  0  0  0
    8.3475    2.4208  -14.6468 C   0  0  0  0  0  0  0  0  0  0  0  0
    9.4445    3.0359  -14.0070 C   0  0  0  0  0  0  0  0  0  0  0  0
    9.2376    3.9813  -12.9895 C   0  0  0  0  0  0  0  0  0  0  0  0
    7.9292    4.3101  -12.5793 C   0  0  0  0  0  0  0  0  0  0  0  0
    7.7205    5.3455  -11.4936 C   0  0  0  0  0  0  0  0  0  0  0  0
    8.4859    5.0655  -10.1707 C   0  0  0  0  0  0  0  0  0  0  0  0
    8.4932    6.2719   -9.3106 N   0  0  2  0  0  0  0  0  0  0  0  0
    9.1847    7.4151   -9.9657 C   0  0  0  0  0  0  0  0  0  0  0  0
    9.7873    8.1915   -8.8248 C   0  0  2  0  0  0  0  0  0  0  0  0
   10.9528    9.1202   -9.1123 C   0  0  0  0  0  0  0  0  0  0  0  0
   11.2860    9.7723   -7.8958 O   0  0  0  0  0  0  0  0  0  0  0  0
   11.3313    9.0356   -6.7376 C   0  0  0  0  0  0  0  0  0  0  0  0
   11.8848    9.6785   -5.6216 C   0  0  0  0  0  0  0  0  0  0  0  0
   12.0682    8.9731   -4.4275 C   0  0  0  0  0  0  0  0  0  0  0  0
   11.6914    7.6201   -4.3582 C   0  0  0  0  0  0  0  0  0  0  0  0
   12.0860    6.8830   -3.1811 C   0  0  0  0  0  0  0  0  0  0  0  0
   12.4207    6.3007   -2.2469 N   0  0  0  0  0  0  0  0  0  0  0  0
   11.0530    6.9823   -5.4485 C   0  0  0  0  0  0  0  0  0  0  0  0
   10.8599    7.6974   -6.6499 C   0  0  0  0  0  0  0  0  0  0  0  0
   10.2708    7.0879   -7.9185 C   0  0  1  0  0  0  0  0  0  0  0  0
    9.0584    6.1392   -7.9293 C   0  0  0  0  0  0  0  0  0  0  0  0
    6.8267    3.7120  -13.2238 C   0  0  0  0  0  0  0  0  0  0  0  0
    7.0382    2.7653  -14.2469 C   0  0  0  0  0  0  0  0  0  0  0  0
   11.9926    1.0822  -17.1049 H   0  0  0  0  0  0  0  0  0  0  0  0
   11.3396    2.4863  -16.2434 H   0  0  0  0  0  0  0  0  0  0  0  0
   10.6090    1.9719  -17.7821 H   0  0  0  0  0  0  0  0  0  0  0  0
    7.6851    1.0940  -16.0457 H   0  0  0  0  0  0  0  0  0  0  0  0
   10.4586    2.7880  -14.2738 H   0  0  0  0  0  0  0  0  0  0  0  0
   10.0951    4.4447  -12.5255 H   0  0  0  0  0  0  0  0  0  0  0  0
    8.0209    6.2885  -11.9470 H   0  0  0  0  0  0  0  0  0  0  0  0
    6.6556    5.4524  -11.2844 H   0  0  0  0  0  0  0  0  0  0  0  0
    8.0311    4.2290   -9.6411 H   0  0  0  0  0  0  0  0  0  0  0  0
    9.5205    4.7782  -10.3596 H   0  0  0  0  0  0  0  0  0  0  0  0
    9.9779    7.0642  -10.6290 H   0  0  0  0  0  0  0  0  0  0  0  0
    8.5020    8.0295  -10.5552 H   0  0  0  0  0  0  0  0  0  0  0  0
    8.9894    8.7581   -8.3372 H   0  0  0  0  0  0  0  0  0  0  0  0
   11.8201    8.5861   -9.5039 H   0  0  0  0  0  0  0  0  0  0  0  0
   10.6748    9.8693   -9.8468 H   0  0  0  0  0  0  0  0  0  0  0  0
   12.2187   10.7007   -5.7100 H   0  0  0  0  0  0  0  0  0  0  0  0
   12.5530    9.4584   -3.5913 H   0  0  0  0  0  0  0  0  0  0  0  0
   10.7728    5.9426   -5.3802 H   0  0  0  0  0  0  0  0  0  0  0  0
   11.0975    6.5653   -8.4038 H   0  0  0  0  0  0  0  0  0  0  0  0
    8.3021    6.4756   -7.2178 H   0  0  0  0  0  0  0  0  0  0  0  0
    9.3271    5.1136   -7.6785 H   0  0  0  0  0  0  0  0  0  0  0  0
    5.8180    3.9667  -12.9321 H   0  0  0  0  0  0  0  0  0  0  0  0
    6.1849    2.3035  -14.7193 H   0  0  0  0  0  0  0  0  0  0  0  0
    7.5286    6.5859   -9.2047 H   0  0  0  0  0  0  0  0  0  0  0  0
  2  1  1  0
  3  2  2  0
  4  2  2  0
  5  2  1  0
  6  5  1  0
  7  6  1  0
  8  7  2  0
  9  8  1  0
 10  9  1  0
 11 10  1  0
 12 11  1  0
 13 12  1  0
 14 13  1  0
 15 14  1  0
 16 15  1  0
 17 16  1  0
 18 17  1  0
 19 18  2  0
 20 19  1  0
 21 20  1  0
 22 21  3  0
 23 20  2  0
 24 17  2  0
 24 23  1  0
 25 14  1  0
 25 24  1  0
 26 12  1  0
 26 25  1  0
 27  9  2  0
 28  6  2  0
 28 27  1  0
 29  1  1  0
 30  1  1  0
 31  1  1  0
 32  5  1  0
 33  7  1  0
 34  8  1  0
 35 10  1  0
 36 10  1  0
 37 11  1  0
 38 11  1  0
 39 13  1  0
 40 13  1  0
 14 41  1  1
 42 15  1  0
 43 15  1  0
 44 18  1  0
 45 19  1  0
 46 23  1  0
 25 47  1  6
 48 26  1  0
 49 26  1  0
 50 27  1  0
 51 28  1  0
 12 52  1  1
M  CHG  1  12   1
M  END
>  <b_m_subgroup_collapsed>  (105) 
0

>  <r_i_docking_score>  (105) 
-9.0112504646100202

>  <s_m_subgroup_title>  (105) 
glide-dock_SP_D22_pv

>  <s_m_subgroupid>  (105) 
glide-dock_SP_D22_pv

>  <Molecule ChEMBL ID>  (105) 
CHEMBL443006

>  <Standard Type>  (105) 
Ki

>  <Standard Value>  (105) 
25.12

>  <label>  (105) 
1

$$$$
CHEMBL139089
     RDKit          3D

 60 63  0  0  1  0  0  0  0  0999 V2000
   11.5005    4.0741  -13.9913 O   0  0  0  0  0  0  0  0  0  0  0  0
   10.4952    3.3931  -14.2009 C   0  0  0  0  0  0  0  0  0  0  0  0
   10.7119    1.9833  -14.7743 C   0  0  0  0  0  0  0  0  0  0  0  0
    9.5007    1.4633  -15.5743 C   0  0  0  0  0  0  0  0  0  0  0  0
    9.6967   -0.0100  -15.9749 C   0  0  0  0  0  0  0  0  0  0  0  0
   10.5499    0.0139  -17.2461 C   0  0  0  0  0  0  0  0  0  0  0  0
   10.3005    1.3817  -17.8981 C   0  0  0  0  0  0  0  0  0  0  0  0
    9.3737    2.1530  -16.9485 C   0  0  0  0  0  0  0  0  0  0  0  0
    8.2516    1.6502  -14.6956 C   0  0  0  0  0  0  0  0  0  0  0  0
    8.1227    3.0749  -14.1304 C   0  0  0  0  0  0  0  0  0  0  0  0
    6.9877    3.4666  -13.8473 O   0  0  0  0  0  0  0  0  0  0  0  0
    9.2352    3.8310  -13.9140 N   0  0  0  0  0  0  0  0  0  0  0  0
    9.0770    5.1642  -13.2896 C   0  0  0  0  0  0  0  0  0  0  0  0
    9.1559    5.0729  -11.7532 C   0  0  0  0  0  0  0  0  0  0  0  0
    9.0789    6.4330  -11.0370 C   0  0  0  0  0  0  0  0  0  0  0  0
    9.3849    6.2744   -9.5399 C   0  0  0  0  0  0  0  0  0  0  0  0
    9.2864    7.5329   -8.7566 N   0  0  0  0  0  0  0  0  0  0  0  0
   10.2192    7.5931   -7.5919 C   0  0  2  0  0  0  0  0  0  0  0  0
   10.0434    6.3970   -6.6506 C   0  0  0  0  0  0  0  0  0  0  0  0
   11.1177    6.3744   -5.5585 C   0  0  0  0  0  0  0  0  0  0  0  0
   11.3754    7.6977   -4.8967 C   0  0  0  0  0  0  0  0  0  0  0  0
   12.0440    7.6939   -3.6507 C   0  0  0  0  0  0  0  0  0  0  0  0
   12.4860    6.5353   -3.1067 F   0  0  0  0  0  0  0  0  0  0  0  0
   12.1996    8.8843   -2.9335 C   0  0  0  0  0  0  0  0  0  0  0  0
   11.6860   10.0717   -3.4667 C   0  0  0  0  0  0  0  0  0  0  0  0
   11.0487   10.0919   -4.7274 C   0  0  0  0  0  0  0  0  0  0  0  0
   10.8860    8.8981   -5.4596 C   0  0  0  0  0  0  0  0  0  0  0  0
   10.0733    8.8899   -6.7634 C   0  0  0  0  0  0  0  0  0  0  0  0
   11.6135    1.9798  -15.3884 H   0  0  0  0  0  0  0  0  0  0  0  0
   10.9121    1.3230  -13.9310 H   0  0  0  0  0  0  0  0  0  0  0  0
   10.1368   -0.6208  -15.1860 H   0  0  0  0  0  0  0  0  0  0  0  0
    8.7287   -0.4532  -16.2137 H   0  0  0  0  0  0  0  0  0  0  0  0
   11.6065   -0.0789  -16.9920 H   0  0  0  0  0  0  0  0  0  0  0  0
   10.2981   -0.8124  -17.9131 H   0  0  0  0  0  0  0  0  0  0  0  0
   11.2474    1.9109  -18.0208 H   0  0  0  0  0  0  0  0  0  0  0  0
    9.8510    1.2831  -18.8868 H   0  0  0  0  0  0  0  0  0  0  0  0
    8.3496    2.0619  -17.3132 H   0  0  0  0  0  0  0  0  0  0  0  0
    9.6050    3.2184  -16.9254 H   0  0  0  0  0  0  0  0  0  0  0  0
    7.3468    1.3989  -15.2504 H   0  0  0  0  0  0  0  0  0  0  0  0
    8.2902    0.9626  -13.8491 H   0  0  0  0  0  0  0  0  0  0  0  0
    8.1375    5.6364  -13.5850 H   0  0  0  0  0  0  0  0  0  0  0  0
    9.8425    5.8520  -13.6515 H   0  0  0  0  0  0  0  0  0  0  0  0
   10.0854    4.5757  -11.4770 H   0  0  0  0  0  0  0  0  0  0  0  0
    8.3548    4.4303  -11.3844 H   0  0  0  0  0  0  0  0  0  0  0  0
    8.0896    6.8613  -11.1885 H   0  0  0  0  0  0  0  0  0  0  0  0
    9.7926    7.1247  -11.4854 H   0  0  0  0  0  0  0  0  0  0  0  0
   10.3954    5.8703   -9.4521 H   0  0  0  0  0  0  0  0  0  0  0  0
    8.7073    5.5404   -9.0980 H   0  0  0  0  0  0  0  0  0  0  0  0
    8.3232    7.6249   -8.4528 H   0  0  0  0  0  0  0  0  0  0  0  0
   11.2334    7.5629   -7.9911 H   0  0  0  0  0  0  0  0  0  0  0  0
    9.0556    6.4532   -6.1876 H   0  0  0  0  0  0  0  0  0  0  0  0
   10.0760    5.4486   -7.1820 H   0  0  0  0  0  0  0  0  0  0  0  0
   12.0559    5.9600   -5.9289 H   0  0  0  0  0  0  0  0  0  0  0  0
   10.7714    5.7626   -4.7367 H   0  0  0  0  0  0  0  0  0  0  0  0
   12.6813    8.8817   -1.9660 H   0  0  0  0  0  0  0  0  0  0  0  0
   11.7611   10.9721   -2.8805 H   0  0  0  0  0  0  0  0  0  0  0  0
   10.6482   11.0195   -5.1079 H   0  0  0  0  0  0  0  0  0  0  0  0
    9.0233    8.9756   -6.4804 H   0  0  0  0  0  0  0  0  0  0  0  0
   10.3284    9.7695   -7.3567 H   0  0  0  0  0  0  0  0  0  0  0  0
    9.4903    8.3051   -9.3733 H   0  0  0  0  0  0  0  0  0  0  0  0
  2  1  2  0
  3  2  1  0
  4  3  1  0
  5  4  1  0
  6  5  1  0
  7  6  1  0
  8  4  1  0
  8  7  1  0
  9  4  1  0
 10  9  1  0
 11 10  2  0
 12  2  1  0
 12 10  1  0
 13 12  1  0
 14 13  1  0
 15 14  1  0
 16 15  1  0
 17 16  1  0
 18 17  1  0
 19 18  1  0
 20 19  1  0
 21 20  1  0
 22 21  2  0
 23 22  1  0
 24 22  1  0
 25 24  2  0
 26 25  1  0
 27 21  1  0
 27 26  2  0
 28 18  1  0
 28 27  1  0
 29  3  1  0
 30  3  1  0
 31  5  1  0
 32  5  1  0
 33  6  1  0
 34  6  1  0
 35  7  1  0
 36  7  1  0
 37  8  1  0
 38  8  1  0
 39  9  1  0
 40  9  1  0
 41 13  1  0
 42 13  1  0
 43 14  1  0
 44 14  1  0
 45 15  1  0
 46 15  1  0
 47 16  1  0
 48 16  1  0
 49 17  1  0
 18 50  1  6
 51 19  1  0
 52 19  1  0
 53 20  1  0
 54 20  1  0
 55 24  1  0
 56 25  1  0
 57 26  1  0
 58 28  1  0
 59 28  1  0
 60 17  1  0
M  CHG  1  17   1
M  END
>  <b_m_subgroup_collapsed>  (106) 
0

>  <r_i_docking_score>  (106) 
-9.0063285730052201

>  <s_m_subgroup_title>  (106) 
glide-dock_SP_D22_pv

>  <s_m_subgroupid>  (106) 
glide-dock_SP_D22_pv

>  <Molecule ChEMBL ID>  (106) 
CHEMBL139089

>  <Standard Type>  (106) 
Ki

>  <Standard Value>  (106) 
37.0

>  <label>  (106) 
1

$$$$
CHEMBL3918282
     RDKit          3D

 68 71  0  0  1  0  0  0  0  0999 V2000
    8.7239    2.3004  -14.2470 O   0  0  0  0  0  0  0  0  0  0  0  0
    9.2861    3.6011  -14.8236 S   0  0  0  0  0  0  0  0  0  0  0  0
    9.9403    4.6169  -13.4118 C   0  0  0  0  0  0  0  0  0  0  0  0
    9.0352    4.4002  -12.1896 C   0  0  0  0  0  0  0  0  0  0  0  0
    9.4019    5.3181  -11.1137 N   0  0  0  0  0  0  0  0  0  0  0  0
    8.7753    6.6238  -11.3285 C   0  0  0  0  0  0  0  0  0  0  0  0
    9.2856    7.5939  -10.2530 C   0  0  0  0  0  0  0  0  0  0  0  0
    8.9230    7.1119   -8.8946 N   0  0  0  0  0  0  0  0  0  0  0  0
    9.2373    8.0607   -7.7847 C   0  0  0  0  0  0  0  0  0  0  0  0
   10.7487    8.2984   -7.4859 C   0  0  1  0  0  0  0  0  0  0  0  0
   11.3353    8.9720   -8.5792 O   0  0  0  0  0  0  0  0  0  0  0  0
   10.9767    9.2242   -6.2619 C   0  0  0  0  0  0  0  0  0  0  0  0
   11.4201    8.6201   -4.9327 C   0  0  0  0  0  0  0  0  0  0  0  0
   11.6405    9.5215   -3.8715 C   0  0  0  0  0  0  0  0  0  0  0  0
   12.0863    9.0736   -2.6171 C   0  0  0  0  0  0  0  0  0  0  0  0
   12.3144    7.7063   -2.4055 C   0  0  0  0  0  0  0  0  0  0  0  0
   12.0857    6.7960   -3.4490 C   0  0  0  0  0  0  0  0  0  0  0  0
   11.6328    7.2400   -4.7066 C   0  0  0  0  0  0  0  0  0  0  0  0
    9.4100    5.7295   -8.6821 C   0  0  0  0  0  0  0  0  0  0  0  0
    8.9472    4.8023   -9.8203 C   0  0  0  0  0  0  0  0  0  0  0  0
   10.9187    3.2081  -15.6190 C   0  0  0  0  0  0  0  0  0  0  0  0
   11.6252    4.4932  -16.0599 C   0  0  0  0  0  0  0  0  0  0  0  0
   12.8865    4.8047  -15.5093 C   0  0  0  0  0  0  0  0  0  0  0  0
   13.5654    5.9805  -15.8800 C   0  0  0  0  0  0  0  0  0  0  0  0
   12.9872    6.8605  -16.8117 C   0  0  0  0  0  0  0  0  0  0  0  0
   13.6431    7.9870  -17.1763 F   0  0  0  0  0  0  0  0  0  0  0  0
   11.7247    6.5683  -17.3590 C   0  0  0  0  0  0  0  0  0  0  0  0
   11.0334    5.4053  -16.9648 C   0  0  0  0  0  0  0  0  0  0  0  0
   10.7224    2.1087  -16.6654 C   0  0  0  0  0  0  0  0  0  0  0  0
   10.5651    2.3695  -18.0490 C   0  0  0  0  0  0  0  0  0  0  0  0
   10.3674    1.3139  -18.9592 C   0  0  0  0  0  0  0  0  0  0  0  0
   10.3283   -0.0150  -18.5040 C   0  0  0  0  0  0  0  0  0  0  0  0
   10.1426   -1.0276  -19.3818 F   0  0  0  0  0  0  0  0  0  0  0  0
   10.4862   -0.2876  -17.1332 C   0  0  0  0  0  0  0  0  0  0  0  0
   10.6775    0.7666  -16.2224 C   0  0  0  0  0  0  0  0  0  0  0  0
    9.9879    5.6566  -13.7338 H   0  0  0  0  0  0  0  0  0  0  0  0
   10.9547    4.3049  -13.1617 H   0  0  0  0  0  0  0  0  0  0  0  0
    9.1856    3.3736  -11.8550 H   0  0  0  0  0  0  0  0  0  0  0  0
    7.9789    4.5009  -12.4441 H   0  0  0  0  0  0  0  0  0  0  0  0
    7.6881    6.5386  -11.3153 H   0  0  0  0  0  0  0  0  0  0  0  0
    9.0430    7.0183  -12.3083 H   0  0  0  0  0  0  0  0  0  0  0  0
    8.8673    8.5880  -10.4174 H   0  0  0  0  0  0  0  0  0  0  0  0
   10.3642    7.6705  -10.3722 H   0  0  0  0  0  0  0  0  0  0  0  0
    8.7537    7.6758   -6.8853 H   0  0  0  0  0  0  0  0  0  0  0  0
    8.7443    9.0120   -7.9945 H   0  0  0  0  0  0  0  0  0  0  0  0
   11.2989    7.3660   -7.3824 H   0  0  0  0  0  0  0  0  0  0  0  0
   12.2671    9.0497   -8.4323 H   0  0  0  0  0  0  0  0  0  0  0  0
   11.7519    9.9580   -6.4961 H   0  0  0  0  0  0  0  0  0  0  0  0
   10.0863    9.8180   -6.0733 H   0  0  0  0  0  0  0  0  0  0  0  0
   11.4618   10.5726   -4.0204 H   0  0  0  0  0  0  0  0  0  0  0  0
   12.2592    9.7763   -1.8163 H   0  0  0  0  0  0  0  0  0  0  0  0
   12.6612    7.3548   -1.4468 H   0  0  0  0  0  0  0  0  0  0  0  0
   12.2533    5.7474   -3.2776 H   0  0  0  0  0  0  0  0  0  0  0  0
   11.4646    6.4983   -5.4713 H   0  0  0  0  0  0  0  0  0  0  0  0
   10.4987    5.7109   -8.6371 H   0  0  0  0  0  0  0  0  0  0  0  0
    9.0403    5.3603   -7.7248 H   0  0  0  0  0  0  0  0  0  0  0  0
    7.8635    4.6791   -9.8198 H   0  0  0  0  0  0  0  0  0  0  0  0
    9.3926    3.8244   -9.6406 H   0  0  0  0  0  0  0  0  0  0  0  0
   11.5286    2.7575  -14.8349 H   0  0  0  0  0  0  0  0  0  0  0  0
   13.3393    4.1416  -14.7897 H   0  0  0  0  0  0  0  0  0  0  0  0
   14.5291    6.2049  -15.4488 H   0  0  0  0  0  0  0  0  0  0  0  0
   11.2850    7.2461  -18.0762 H   0  0  0  0  0  0  0  0  0  0  0  0
   10.0508    5.2172  -17.3739 H   0  0  0  0  0  0  0  0  0  0  0  0
   10.5912    3.3703  -18.4464 H   0  0  0  0  0  0  0  0  0  0  0  0
   10.2458    1.5250  -20.0112 H   0  0  0  0  0  0  0  0  0  0  0  0
   10.4840   -1.3082  -16.7833 H   0  0  0  0  0  0  0  0  0  0  0  0
   10.7920    0.5409  -15.1710 H   0  0  0  0  0  0  0  0  0  0  0  0
    7.9069    7.0582   -8.9153 H   0  0  0  0  0  0  0  0  0  0  0  0
  2  1  2  0
  2  3  1  1
  4  3  1  0
  5  4  1  0
  6  5  1  0
  7  6  1  0
  8  7  1  0
  9  8  1  0
 10  9  1  0
 11 10  1  0
 12 10  1  0
 13 12  1  0
 14 13  2  0
 15 14  1  0
 16 15  2  0
 17 16  1  0
 18 13  1  0
 18 17  2  0
 19  8  1  0
 20  5  1  0
 20 19  1  0
 21  2  1  0
 22 21  1  0
 23 22  1  0
 24 23  2  0
 25 24  1  0
 26 25  1  0
 27 25  2  0
 28 22  2  0
 28 27  1  0
 29 21  1  0
 30 29  1  0
 31 30  2  0
 32 31  1  0
 33 32  1  0
 34 32  2  0
 35 29  2  0
 35 34  1  0
 36  3  1  0
 37  3  1  0
 38  4  1  0
 39  4  1  0
 40  6  1  0
 41  6  1  0
 42  7  1  0
 43  7  1  0
 44  9  1  0
 45  9  1  0
 10 46  1  1
 47 11  1  0
 48 12  1  0
 49 12  1  0
 50 14  1  0
 51 15  1  0
 52 16  1  0
 53 17  1  0
 54 18  1  0
 55 19  1  0
 56 19  1  0
 57 20  1  0
 58 20  1  0
 59 21  1  0
 60 23  1  0
 61 24  1  0
 62 27  1  0
 63 28  1  0
 64 30  1  0
 65 31  1  0
 66 34  1  0
 67 35  1  0
 68  8  1  0
M  CHG  1   8   1
M  END
>  <b_m_subgroup_collapsed>  (107) 
0

>  <r_i_docking_score>  (107) 
-8.9977175389353796

>  <s_m_subgroup_title>  (107) 
glide-dock_SP_D22_pv

>  <s_m_subgroupid>  (107) 
glide-dock_SP_D22_pv

>  <Molecule ChEMBL ID>  (107) 
CHEMBL3918282

>  <Standard Type>  (107) 
Ki

>  <Standard Value>  (107) 
78.6

>  <label>  (107) 
1

$$$$
CHEMBL196514
     RDKit          3D

 59 63  0  0  1  0  0  0  0  0999 V2000
    7.6743    1.2301  -14.2471 C   0  0  0  0  0  0  0  0  0  0  0  0
    7.7979    2.3896  -15.2443 C   0  0  1  0  0  0  0  0  0  0  0  0
    8.0860    3.6191  -14.5567 O   0  0  0  0  0  0  0  0  0  0  0  0
    9.3915    4.0412  -14.4123 C   0  0  0  0  0  0  0  0  0  0  0  0
   10.3870    3.5119  -15.2673 C   0  0  0  0  0  0  0  0  0  0  0  0
   11.7171    3.9600  -15.1935 C   0  0  0  0  0  0  0  0  0  0  0  0
   12.0555    4.9667  -14.2762 C   0  0  0  0  0  0  0  0  0  0  0  0
   11.0659    5.5234  -13.4465 C   0  0  0  0  0  0  0  0  0  0  0  0
    9.7217    5.0719  -13.4851 C   0  0  0  0  0  0  0  0  0  0  0  0
    8.7364    5.6639  -12.6520 N   0  0  0  0  0  0  0  0  0  0  0  0
    7.8429    4.7988  -11.8847 C   0  0  0  0  0  0  0  0  0  0  0  0
    8.3472    4.6697  -10.4449 C   0  0  0  0  0  0  0  0  0  0  0  0
    8.4862    5.9912   -9.7879 N   0  0  0  0  0  0  0  0  0  0  0  0
    8.8132    5.7979   -8.3468 C   0  0  0  0  0  0  0  0  0  0  0  0
    9.1881    7.0595   -7.5456 C   0  0  0  0  0  0  0  0  0  0  0  0
   10.7085    7.2220   -7.3528 C   0  0  0  0  0  0  0  0  0  0  0  0
   11.0346    8.2926   -6.3589 C   0  0  0  0  0  0  0  0  0  0  0  0
   11.0499    9.6367   -6.6110 C   0  0  0  0  0  0  0  0  0  0  0  0
   11.3143   10.3216   -5.4438 N   0  0  0  0  0  0  0  0  0  0  0  0
   11.5961    9.4416   -4.4215 C   0  0  0  0  0  0  0  0  0  0  0  0
   11.9837    9.6393   -3.0838 C   0  0  0  0  0  0  0  0  0  0  0  0
   12.2674    8.5260   -2.2795 C   0  0  0  0  0  0  0  0  0  0  0  0
   12.1307    7.2326   -2.8107 C   0  0  0  0  0  0  0  0  0  0  0  0
   12.4612    6.1724   -2.0477 F   0  0  0  0  0  0  0  0  0  0  0  0
   11.6865    7.0385   -4.1341 C   0  0  0  0  0  0  0  0  0  0  0  0
   11.4305    8.1402   -4.9829 C   0  0  0  0  0  0  0  0  0  0  0  0
    9.4114    6.8605  -10.5645 C   0  0  0  0  0  0  0  0  0  0  0  0
    8.9496    6.9777  -12.0374 C   0  0  0  0  0  0  0  0  0  0  0  0
   10.0330    2.5747  -16.2571 N   0  0  0  0  0  0  0  0  0  0  0  0
    8.8072    2.0524  -16.3571 C   0  0  0  0  0  0  0  0  0  0  0  0
    8.4837    1.3241  -17.2927 O   0  0  0  0  0  0  0  0  0  0  0  0
    7.3863    0.3059  -14.7493 H   0  0  0  0  0  0  0  0  0  0  0  0
    8.6218    1.0470  -13.7398 H   0  0  0  0  0  0  0  0  0  0  0  0
    6.9175    1.4412  -13.4887 H   0  0  0  0  0  0  0  0  0  0  0  0
    6.8296    2.5310  -15.7237 H   0  0  0  0  0  0  0  0  0  0  0  0
   12.4745    3.5520  -15.8475 H   0  0  0  0  0  0  0  0  0  0  0  0
   13.0725    5.3268  -14.2222 H   0  0  0  0  0  0  0  0  0  0  0  0
   11.3753    6.2988  -12.7639 H   0  0  0  0  0  0  0  0  0  0  0  0
    6.8388    5.2269  -11.8959 H   0  0  0  0  0  0  0  0  0  0  0  0
    7.7583    3.7987  -12.3009 H   0  0  0  0  0  0  0  0  0  0  0  0
    7.6861    4.0337   -9.8641 H   0  0  0  0  0  0  0  0  0  0  0  0
    9.3201    4.1746  -10.4513 H   0  0  0  0  0  0  0  0  0  0  0  0
    7.9276    5.3608   -7.8830 H   0  0  0  0  0  0  0  0  0  0  0  0
    9.5997    5.0485   -8.2442 H   0  0  0  0  0  0  0  0  0  0  0  0
    8.7280    7.9580   -7.9583 H   0  0  0  0  0  0  0  0  0  0  0  0
    8.7470    6.9496   -6.5532 H   0  0  0  0  0  0  0  0  0  0  0  0
   11.1371    6.2776   -7.0160 H   0  0  0  0  0  0  0  0  0  0  0  0
   11.1857    7.4429   -8.3073 H   0  0  0  0  0  0  0  0  0  0  0  0
   10.8863   10.1667   -7.5303 H   0  0  0  0  0  0  0  0  0  0  0  0
   11.3640   11.3289   -5.3932 H   0  0  0  0  0  0  0  0  0  0  0  0
   12.0851   10.6333   -2.6727 H   0  0  0  0  0  0  0  0  0  0  0  0
   12.5955    8.6631   -1.2597 H   0  0  0  0  0  0  0  0  0  0  0  0
   11.5829    6.0339   -4.5154 H   0  0  0  0  0  0  0  0  0  0  0  0
    9.4487    7.8598  -10.1319 H   0  0  0  0  0  0  0  0  0  0  0  0
   10.4208    6.4507  -10.5156 H   0  0  0  0  0  0  0  0  0  0  0  0
    9.6404    7.5884  -12.6174 H   0  0  0  0  0  0  0  0  0  0  0  0
    7.9993    7.5123  -12.0688 H   0  0  0  0  0  0  0  0  0  0  0  0
   10.7241    2.3205  -16.9466 H   0  0  0  0  0  0  0  0  0  0  0  0
    7.5830    6.4647   -9.8379 H   0  0  0  0  0  0  0  0  0  0  0  0
  2  1  1  0
  3  2  1  0
  4  3  1  0
  5  4  2  0
  6  5  1  0
  7  6  2  0
  8  7  1  0
  9  4  1  0
  9  8  2  0
 10  9  1  0
 11 10  1  0
 12 11  1  0
 13 12  1  0
 14 13  1  0
 15 14  1  0
 16 15  1  0
 17 16  1  0
 18 17  2  0
 19 18  1  0
 20 19  1  0
 21 20  2  0
 22 21  1  0
 23 22  2  0
 24 23  1  0
 25 23  1  0
 26 17  1  0
 26 20  1  0
 26 25  2  0
 27 13  1  0
 28 10  1  0
 28 27  1  0
 29  5  1  0
 30  2  1  0
 30 29  1  0
 31 30  2  0
 32  1  1  0
 33  1  1  0
 34  1  1  0
  2 35  1  6
 36  6  1  0
 37  7  1  0
 38  8  1  0
 39 11  1  0
 40 11  1  0
 41 12  1  0
 42 12  1  0
 43 14  1  0
 44 14  1  0
 45 15  1  0
 46 15  1  0
 47 16  1  0
 48 16  1  0
 49 18  1  0
 50 19  1  0
 51 21  1  0
 52 22  1  0
 53 25  1  0
 54 27  1  0
 55 27  1  0
 56 28  1  0
 57 28  1  0
 58 29  1  0
 59 13  1  0
M  CHG  1  13   1
M  END
>  <b_m_subgroup_collapsed>  (108) 
0

>  <r_i_docking_score>  (108) 
-8.9947362293245394

>  <s_m_subgroup_title>  (108) 
glide-dock_SP_D22_pv

>  <s_m_subgroupid>  (108) 
glide-dock_SP_D22_pv

>  <Molecule ChEMBL ID>  (108) 
CHEMBL196514

>  <Standard Type>  (108) 
Ki

>  <Standard Value>  (108) 
0.7943

>  <label>  (108) 
1

$$$$
CHEMBL2203406
     RDKit          3D

 69 73  0  0  1  0  0  0  0  0999 V2000
   12.1249    3.2959  -16.1198 C   0  0  0  0  0  0  0  0  0  0  0  0
   10.6358    3.5340  -15.8485 C   0  0  0  0  0  0  0  0  0  0  0  0
   10.1375    2.8238  -14.5775 C   0  0  0  0  0  0  0  0  0  0  0  0
    8.7200    3.1814  -14.2782 N   0  0  2  0  0  0  0  0  0  0  0  0
    8.5908    4.0569  -13.0708 C   0  0  0  0  0  0  0  0  0  0  0  0
    9.3884    5.3774  -13.1618 C   0  0  0  0  0  0  0  0  0  0  0  0
    8.9483    6.4361  -12.1362 C   0  0  2  0  0  0  0  0  0  0  0  0
    7.7272    6.9512  -12.6470 O   0  0  0  0  0  0  0  0  0  0  0  0
    9.9718    7.5108  -11.6979 C   0  0  0  0  0  0  0  0  0  0  0  0
    9.3182    7.4872  -10.3115 C   0  0  2  0  0  0  0  0  0  0  0  0
   10.2312    7.6688   -9.1763 N   0  0  0  0  0  0  0  0  0  0  0  0
   10.0877    7.0785   -7.9745 C   0  0  0  0  0  0  0  0  0  0  0  0
    9.4435    6.0458   -7.7961 O   0  0  0  0  0  0  0  0  0  0  0  0
   10.7544    7.7500   -6.8038 C   0  0  0  0  0  0  0  0  0  0  0  0
   10.7942    9.1571   -6.6875 C   0  0  0  0  0  0  0  0  0  0  0  0
   11.2638    9.7719   -5.5065 C   0  0  0  0  0  0  0  0  0  0  0  0
   11.6867    8.9817   -4.4169 C   0  0  0  0  0  0  0  0  0  0  0  0
   12.0799    9.5644   -3.1927 C   0  0  0  0  0  0  0  0  0  0  0  0
   12.4826    8.7589   -2.1127 C   0  0  0  0  0  0  0  0  0  0  0  0
   12.4859    7.3612   -2.2486 C   0  0  0  0  0  0  0  0  0  0  0  0
   12.0861    6.7738   -3.4579 C   0  0  0  0  0  0  0  0  0  0  0  0
   11.6853    7.5739   -4.5417 C   0  0  0  0  0  0  0  0  0  0  0  0
   11.2251    6.9698   -5.7274 C   0  0  0  0  0  0  0  0  0  0  0  0
    8.8923    6.0456  -10.6481 C   0  0  0  0  0  0  0  0  0  0  0  0
    7.8052    1.9867  -14.3271 C   0  0  1  0  0  0  0  0  0  0  0  0
    6.4066    2.1886  -13.6671 C   0  0  0  0  0  0  0  0  0  0  0  0
    5.5705    0.8866  -13.6249 C   0  0  0  0  0  0  0  0  0  0  0  0
    5.6217    0.1705  -14.9376 C   0  0  0  0  0  0  0  0  0  0  0  0
    4.6950   -0.8175  -15.2897 N   0  0  0  0  0  0  0  0  0  0  0  0
    4.9061   -1.2674  -16.5298 C   0  0  0  0  0  0  0  0  0  0  0  0
    4.1380   -2.2277  -17.1707 N   0  0  0  0  0  0  0  0  0  0  0  0
    6.2765   -0.5074  -17.3395 S   0  0  0  0  0  0  0  0  0  0  0  0
    6.5448    0.4528  -15.9094 C   0  0  0  0  0  0  0  0  0  0  0  0
    7.6243    1.4831  -15.7878 C   0  0  0  0  0  0  0  0  0  0  0  0
   12.4329    3.7710  -17.0524 H   0  0  0  0  0  0  0  0  0  0  0  0
   12.7376    3.7171  -15.3222 H   0  0  0  0  0  0  0  0  0  0  0  0
   12.3536    2.2323  -16.2006 H   0  0  0  0  0  0  0  0  0  0  0  0
   10.0573    3.1916  -16.7084 H   0  0  0  0  0  0  0  0  0  0  0  0
   10.4711    4.6081  -15.7813 H   0  0  0  0  0  0  0  0  0  0  0  0
   10.7853    3.0601  -13.7342 H   0  0  0  0  0  0  0  0  0  0  0  0
   10.2526    1.7473  -14.7079 H   0  0  0  0  0  0  0  0  0  0  0  0
    8.8854    3.5054  -12.1774 H   0  0  0  0  0  0  0  0  0  0  0  0
    7.5508    4.3515  -12.9466 H   0  0  0  0  0  0  0  0  0  0  0  0
    9.2808    5.7725  -14.1713 H   0  0  0  0  0  0  0  0  0  0  0  0
   10.4514    5.1720  -13.0371 H   0  0  0  0  0  0  0  0  0  0  0  0
    7.2762    7.3723  -11.9184 H   0  0  0  0  0  0  0  0  0  0  0  0
   11.0039    7.1514  -11.7001 H   0  0  0  0  0  0  0  0  0  0  0  0
    9.8761    8.4642  -12.2199 H   0  0  0  0  0  0  0  0  0  0  0  0
    8.4866    8.1895  -10.2826 H   0  0  0  0  0  0  0  0  0  0  0  0
   10.8402    8.4714   -9.2219 H   0  0  0  0  0  0  0  0  0  0  0  0
   10.4119    9.7723   -7.4855 H   0  0  0  0  0  0  0  0  0  0  0  0
   11.2572   10.8496   -5.4268 H   0  0  0  0  0  0  0  0  0  0  0  0
   12.0640   10.6312   -3.0476 H   0  0  0  0  0  0  0  0  0  0  0  0
   12.7952    9.2189   -1.1861 H   0  0  0  0  0  0  0  0  0  0  0  0
   12.8456    6.7341   -1.4474 H   0  0  0  0  0  0  0  0  0  0  0  0
   12.0879    5.7031   -3.5526 H   0  0  0  0  0  0  0  0  0  0  0  0
   11.1859    5.8924   -5.7909 H   0  0  0  0  0  0  0  0  0  0  0  0
    7.9025    5.7722  -10.2741 H   0  0  0  0  0  0  0  0  0  0  0  0
    9.6372    5.2947  -10.3799 H   0  0  0  0  0  0  0  0  0  0  0  0
    8.2870    1.1828  -13.7684 H   0  0  0  0  0  0  0  0  0  0  0  0
    6.4776    2.5582  -12.6475 H   0  0  0  0  0  0  0  0  0  0  0  0
    5.8580    2.9473  -14.2293 H   0  0  0  0  0  0  0  0  0  0  0  0
    4.5398    1.1160  -13.3504 H   0  0  0  0  0  0  0  0  0  0  0  0
    5.9585    0.2332  -12.8415 H   0  0  0  0  0  0  0  0  0  0  0  0
    3.5307   -2.8605  -16.6442 H   0  0  0  0  0  0  0  0  0  0  0  0
    4.4579   -2.6154  -18.0448 H   0  0  0  0  0  0  0  0  0  0  0  0
    7.3693    2.3227  -16.4357 H   0  0  0  0  0  0  0  0  0  0  0  0
    8.5576    1.0704  -16.1712 H   0  0  0  0  0  0  0  0  0  0  0  0
    8.4179    3.7669  -15.0419 H   0  0  0  0  0  0  0  0  0  0  0  0
  2  1  1  0
  3  2  1  0
  4  3  1  0
  5  4  1  0
  6  5  1  0
  7  6  1  0
  7  8  1  6
  9  7  1  0
 10  9  1  0
 11 10  1  0
 12 11  1  0
 13 12  2  0
 14 12  1  0
 15 14  1  0
 16 15  2  0
 17 16  1  0
 18 17  2  0
 19 18  1  0
 20 19  2  0
 21 20  1  0
 22 17  1  0
 22 21  2  0
 23 14  2  0
 23 22  1  0
 24  7  1  0
 24 10  1  0
 25  4  1  0
 26 25  1  0
 27 26  1  0
 28 27  1  0
 29 28  1  0
 30 29  2  0
 31 30  1  0
 32 30  1  0
 33 28  2  0
 33 32  1  0
 34 25  1  0
 34 33  1  0
 35  1  1  0
 36  1  1  0
 37  1  1  0
 38  2  1  0
 39  2  1  0
 40  3  1  0
 41  3  1  0
 42  5  1  0
 43  5  1  0
 44  6  1  0
 45  6  1  0
 46  8  1  0
 47  9  1  0
 48  9  1  0
 10 49  1  6
 50 11  1  0
 51 15  1  0
 52 16  1  0
 53 18  1  0
 54 19  1  0
 55 20  1  0
 56 21  1  0
 57 23  1  0
 58 24  1  0
 59 24  1  0
 25 60  1  1
 61 26  1  0
 62 26  1  0
 63 27  1  0
 64 27  1  0
 65 31  1  0
 66 31  1  0
 67 34  1  0
 68 34  1  0
  4 69  1  6
M  CHG  1   4   1
M  END
>  <b_m_subgroup_collapsed>  (109) 
0

>  <r_i_docking_score>  (109) 
-8.9873189331024896

>  <s_m_subgroup_title>  (109) 
glide-dock_SP_D22_pv

>  <s_m_subgroupid>  (109) 
glide-dock_SP_D22_pv

>  <Molecule ChEMBL ID>  (109) 
CHEMBL2203406

>  <Standard Type>  (109) 
Ki

>  <Standard Value>  (109) 
21.0

>  <label>  (109) 
1

$$$$
CHEMBL2159486
     RDKit          3D

 51 53  0  0  1  0  0  0  0  0999 V2000
   11.8298   10.7365   -6.5647 C   0  0  0  0  0  0  0  0  0  0  0  0
   10.8860   10.5723   -5.0469 S   0  0  0  0  0  0  0  0  0  0  0  0
   11.3844    9.0633   -4.3377 C   0  0  0  0  0  0  0  0  0  0  0  0
   11.8762    9.0985   -3.0201 C   0  0  0  0  0  0  0  0  0  0  0  0
   12.2499    7.9102   -2.3745 C   0  0  0  0  0  0  0  0  0  0  0  0
   12.1442    6.6887   -3.0592 C   0  0  0  0  0  0  0  0  0  0  0  0
   11.6860    6.6663   -4.3917 C   0  0  0  0  0  0  0  0  0  0  0  0
   11.2860    7.8427   -5.0464 C   0  0  0  0  0  0  0  0  0  0  0  0
   10.8692    7.7432   -6.3561 O   0  0  0  0  0  0  0  0  0  0  0  0
    9.4970    8.0213   -6.6479 C   0  0  0  0  0  0  0  0  0  0  0  0
    9.3429    8.0677   -8.1840 C   0  0  0  0  0  0  0  0  0  0  0  0
    8.9297    6.7739   -8.7831 N   0  0  2  0  0  0  0  0  0  0  0  0
    9.5777    5.5776   -8.2215 C   0  0  0  0  0  0  0  0  0  0  0  0
    9.2708    4.4535   -9.2061 C   0  0  0  0  0  0  0  0  0  0  0  0
    9.0244    5.1575  -10.5518 C   0  0  1  0  0  0  0  0  0  0  0  0
    7.6859    4.8368  -11.0470 N   0  0  0  0  0  0  0  0  0  0  0  0
    7.1781    5.2185  -12.6468 S   0  0  0  0  0  0  0  0  0  0  0  0
    5.7788    5.6608  -12.5800 O   0  0  0  0  0  0  0  0  0  0  0  0
    8.2140    6.0676  -13.2519 O   0  0  0  0  0  0  0  0  0  0  0  0
    7.1905    3.6220  -13.4473 C   0  0  0  0  0  0  0  0  0  0  0  0
    8.3102    3.2243  -14.2062 C   0  0  0  0  0  0  0  0  0  0  0  0
    8.3337    1.9419  -14.7885 C   0  0  0  0  0  0  0  0  0  0  0  0
    7.2465    1.0637  -14.6047 C   0  0  0  0  0  0  0  0  0  0  0  0
    6.1275    1.4679  -13.8471 C   0  0  0  0  0  0  0  0  0  0  0  0
    4.8153    0.3745  -13.6180 Cl  0  0  0  0  0  0  0  0  0  0  0  0
    6.0859    2.7591  -13.2831 C   0  0  0  0  0  0  0  0  0  0  0  0
    9.1497    6.6603  -10.2387 C   0  0  0  0  0  0  0  0  0  0  0  0
   11.6861   11.7341   -6.9792 H   0  0  0  0  0  0  0  0  0  0  0  0
   12.8858   10.5942   -6.3452 H   0  0  0  0  0  0  0  0  0  0  0  0
   11.5244   10.0025   -7.3068 H   0  0  0  0  0  0  0  0  0  0  0  0
   11.9544   10.0397   -2.4948 H   0  0  0  0  0  0  0  0  0  0  0  0
   12.6183    7.9407   -1.3602 H   0  0  0  0  0  0  0  0  0  0  0  0
   12.4348    5.7724   -2.5687 H   0  0  0  0  0  0  0  0  0  0  0  0
   11.6336    5.7426   -4.9343 H   0  0  0  0  0  0  0  0  0  0  0  0
    8.8413    7.2810   -6.1934 H   0  0  0  0  0  0  0  0  0  0  0  0
    9.1713    8.9723   -6.2466 H   0  0  0  0  0  0  0  0  0  0  0  0
    8.5748    8.7963   -8.4476 H   0  0  0  0  0  0  0  0  0  0  0  0
   10.2686    8.4244   -8.6369 H   0  0  0  0  0  0  0  0  0  0  0  0
   10.6563    5.7347   -8.1651 H   0  0  0  0  0  0  0  0  0  0  0  0
    9.2128    5.3723   -7.2201 H   0  0  0  0  0  0  0  0  0  0  0  0
   10.0859    3.7318   -9.2609 H   0  0  0  0  0  0  0  0  0  0  0  0
    8.3835    3.9137   -8.8693 H   0  0  0  0  0  0  0  0  0  0  0  0
    9.7590    4.8529  -11.2987 H   0  0  0  0  0  0  0  0  0  0  0  0
    6.9268    4.7759  -10.3585 H   0  0  0  0  0  0  0  0  0  0  0  0
    9.1522    3.8905  -14.3288 H   0  0  0  0  0  0  0  0  0  0  0  0
    9.1914    1.6261  -15.3647 H   0  0  0  0  0  0  0  0  0  0  0  0
    7.2741    0.0750  -15.0411 H   0  0  0  0  0  0  0  0  0  0  0  0
    5.2325    3.0711  -12.6987 H   0  0  0  0  0  0  0  0  0  0  0  0
    8.4860    7.2973  -10.8202 H   0  0  0  0  0  0  0  0  0  0  0  0
   10.1672    6.9806  -10.4703 H   0  0  0  0  0  0  0  0  0  0  0  0
    7.9264    6.6907   -8.6369 H   0  0  0  0  0  0  0  0  0  0  0  0
  2  1  1  0
  3  2  1  0
  4  3  2  0
  5  4  1  0
  6  5  2  0
  7  6  1  0
  8  3  1  0
  8  7  2  0
  9  8  1  0
 10  9  1  0
 11 10  1  0
 12 11  1  0
 13 12  1  0
 14 13  1  0
 15 14  1  0
 16 15  1  0
 17 16  1  0
 18 17  2  0
 19 17  2  0
 20 17  1  0
 21 20  2  0
 22 21  1  0
 23 22  2  0
 24 23  1  0
 25 24  1  0
 26 20  1  0
 26 24  2  0
 27 12  1  0
 27 15  1  0
 28  1  1  0
 29  1  1  0
 30  1  1  0
 31  4  1  0
 32  5  1  0
 33  6  1  0
 34  7  1  0
 35 10  1  0
 36 10  1  0
 37 11  1  0
 38 11  1  0
 39 13  1  0
 40 13  1  0
 41 14  1  0
 42 14  1  0
 15 43  1  6
 44 16  1  0
 45 21  1  0
 46 22  1  0
 47 23  1  0
 48 26  1  0
 49 27  1  0
 50 27  1  0
 12 51  1  6
M  CHG  1  12   1
M  END
>  <b_m_subgroup_collapsed>  (110) 
0

>  <r_i_docking_score>  (110) 
-8.9873178146434505

>  <s_m_subgroup_title>  (110) 
glide-dock_SP_D22_pv

>  <s_m_subgroupid>  (110) 
glide-dock_SP_D22_pv

>  <Molecule ChEMBL ID>  (110) 
CHEMBL2159486

>  <Standard Type>  (110) 
Ki

>  <Standard Value>  (110) 
36.0

>  <label>  (110) 
1

$$$$
CHEMBL4755336
     RDKit          3D

137142  0  0  1  0  0  0  0  0999 V2000
    3.6062   -1.1753  -15.7660 C   0  0  0  0  0  0  0  0  0  0  0  0
    4.9047   -0.9267  -16.5430 C   0  0  0  0  0  0  0  0  0  0  0  0
    5.0019   -1.7937  -17.8135 C   0  0  0  0  0  0  0  0  0  0  0  0
    6.2622   -1.5331  -18.5650 N   0  0  2  0  0  0  0  0  0  0  0  0
    6.2002   -0.2990  -19.3967 C   0  0  0  0  0  0  0  0  0  0  0  0
    7.5654    0.4041  -19.4976 C   0  0  0  0  0  0  0  0  0  0  0  0
    7.5285    1.5882  -20.4754 C   0  0  0  0  0  0  0  0  0  0  0  0
    8.7863    2.4743  -20.4184 C   0  0  0  0  0  0  0  0  0  0  0  0
    8.5568    3.8244  -21.0290 C   0  0  0  0  0  0  0  0  0  0  0  0
    8.4862    5.0430  -20.4176 C   0  0  0  0  0  0  0  0  0  0  0  0
    8.1538    5.8982  -21.4460 N   0  0  0  0  0  0  0  0  0  0  0  0
    7.8534    7.3178  -21.3785 C   0  0  0  0  0  0  0  0  0  0  0  0
    9.1076    8.1891  -21.2386 C   0  0  0  0  0  0  0  0  0  0  0  0
    9.9945    7.9335  -22.3138 O   0  0  0  0  0  0  0  0  0  0  0  0
   11.0677    8.8593  -22.3608 C   0  0  0  0  0  0  0  0  0  0  0  0
   12.0914    8.4381  -23.4186 C   0  0  0  0  0  0  0  0  0  0  0  0
   12.8752    7.3763  -22.8995 O   0  0  0  0  0  0  0  0  0  0  0  0
   13.9910    7.0598  -23.7160 C   0  0  0  0  0  0  0  0  0  0  0  0
   14.7808    5.9254  -23.0612 C   0  0  0  0  0  0  0  0  0  0  0  0
   15.3845    6.4130  -21.8746 O   0  0  0  0  0  0  0  0  0  0  0  0
   16.2004    5.4483  -21.2316 C   0  0  0  0  0  0  0  0  0  0  0  0
   16.5470    5.9483  -19.8267 C   0  0  0  0  0  0  0  0  0  0  0  0
   15.4090    5.7640  -18.9979 O   0  0  0  0  0  0  0  0  0  0  0  0
   15.6407    6.0826  -17.6370 C   0  0  0  0  0  0  0  0  0  0  0  0
   14.3106    6.0534  -16.8746 C   0  0  0  0  0  0  0  0  0  0  0  0
   13.8235    4.7182  -16.8130 O   0  0  0  0  0  0  0  0  0  0  0  0
   12.9807    4.4511  -15.6978 C   0  0  0  0  0  0  0  0  0  0  0  0
   11.5742    5.0547  -15.8589 C   0  0  0  0  0  0  0  0  0  0  0  0
   10.8926    5.2152  -14.5880 N   0  0  0  0  0  0  0  0  0  0  0  0
    9.6925    4.6795  -14.1678 C   0  0  0  0  0  0  0  0  0  0  0  0
    9.4542    5.3202  -12.9825 C   0  0  0  0  0  0  0  0  0  0  0  0
    8.1919    5.3604  -12.1656 C   0  0  0  0  0  0  0  0  0  0  0  0
    8.3348    5.2247  -10.6333 C   0  0  0  0  0  0  0  0  0  0  0  0
    9.3224    6.2163   -9.9985 C   0  0  0  0  0  0  0  0  0  0  0  0
    9.1014    6.6194   -8.5254 C   0  0  0  0  0  0  0  0  0  0  0  0
   10.0967    7.6490   -8.0887 N   0  0  1  0  0  0  0  0  0  0  0  0
    9.9482    8.9524   -8.8001 C   0  0  0  0  0  0  0  0  0  0  0  0
   11.2860    9.3860   -9.4412 C   0  0  0  0  0  0  0  0  0  0  0  0
   11.7132    8.5415  -10.6458 C   0  0  0  0  0  0  0  0  0  0  0  0
   10.2316    7.7724   -6.5988 C   0  0  0  0  0  0  0  0  0  0  0  0
   10.8164    9.1004   -6.0330 C   0  0  0  0  0  0  0  0  0  0  0  0
   11.3726    8.6921   -4.7041 C   0  0  0  0  0  0  0  0  0  0  0  0
   11.6875    9.5213   -3.6187 C   0  0  0  0  0  0  0  0  0  0  0  0
   12.2230    8.9296   -2.4560 C   0  0  0  0  0  0  0  0  0  0  0  0
   12.4263    7.5334   -2.3982 C   0  0  0  0  0  0  0  0  0  0  0  0
   12.0860    6.7111   -3.4955 C   0  0  0  0  0  0  0  0  0  0  0  0
   11.5510    7.3179   -4.6468 C   0  0  0  0  0  0  0  0  0  0  0  0
   11.0741    6.6598   -5.9203 C   0  0  0  0  0  0  0  0  0  0  0  0
   10.5272    6.1723  -12.7283 N   0  0  0  0  0  0  0  0  0  0  0  0
   11.3968    6.0828  -13.6799 N   0  0  0  0  0  0  0  0  0  0  0  0
    8.0890    5.2461  -22.6327 N   0  0  0  0  0  0  0  0  0  0  0  0
    8.3277    3.9935  -22.3945 N   0  0  0  0  0  0  0  0  0  0  0  0
    6.7572   -2.7026  -19.3435 C   0  0  0  0  0  0  0  0  0  0  0  0
    7.4007   -3.8502  -18.5337 C   0  0  0  0  0  0  0  0  0  0  0  0
    7.2666   -4.9973  -19.4985 C   0  0  0  0  0  0  0  0  0  0  0  0
    7.9440   -6.2277  -19.4473 C   0  0  0  0  0  0  0  0  0  0  0  0
    7.6683   -7.1805  -20.4530 C   0  0  0  0  0  0  0  0  0  0  0  0
    6.7338   -6.8980  -21.4776 C   0  0  0  0  0  0  0  0  0  0  0  0
    6.0697   -5.6505  -21.5234 C   0  0  0  0  0  0  0  0  0  0  0  0
    6.3558   -4.7151  -20.5157 C   0  0  0  0  0  0  0  0  0  0  0  0
    5.7746   -3.3366  -20.3651 C   0  0  0  0  0  0  0  0  0  0  0  0
    3.5534   -0.5476  -14.8770 H   0  0  0  0  0  0  0  0  0  0  0  0
    2.7292   -0.9619  -16.3795 H   0  0  0  0  0  0  0  0  0  0  0  0
    3.5330   -2.2154  -15.4460 H   0  0  0  0  0  0  0  0  0  0  0  0
    5.7534   -1.1390  -15.8900 H   0  0  0  0  0  0  0  0  0  0  0  0
    4.9605    0.1329  -16.7910 H   0  0  0  0  0  0  0  0  0  0  0  0
    4.1366   -1.6285  -18.4605 H   0  0  0  0  0  0  0  0  0  0  0  0
    4.9511   -2.8399  -17.5077 H   0  0  0  0  0  0  0  0  0  0  0  0
    5.4875    0.4108  -18.9729 H   0  0  0  0  0  0  0  0  0  0  0  0
    5.8161   -0.5414  -20.3895 H   0  0  0  0  0  0  0  0  0  0  0  0
    8.3512   -0.2842  -19.8167 H   0  0  0  0  0  0  0  0  0  0  0  0
    7.8549    0.7537  -18.5035 H   0  0  0  0  0  0  0  0  0  0  0  0
    6.6464    2.1806  -20.2459 H   0  0  0  0  0  0  0  0  0  0  0  0
    7.3763    1.2330  -21.4983 H   0  0  0  0  0  0  0  0  0  0  0  0
    9.6192    1.9702  -20.9142 H   0  0  0  0  0  0  0  0  0  0  0  0
    9.0928    2.6050  -19.3789 H   0  0  0  0  0  0  0  0  0  0  0  0
    8.5861    5.3547  -19.3858 H   0  0  0  0  0  0  0  0  0  0  0  0
    7.1802    7.4867  -20.5388 H   0  0  0  0  0  0  0  0  0  0  0  0
    7.3025    7.6042  -22.2742 H   0  0  0  0  0  0  0  0  0  0  0  0
    9.6090    7.9839  -20.2910 H   0  0  0  0  0  0  0  0  0  0  0  0
    8.8126    9.2418  -21.2276 H   0  0  0  0  0  0  0  0  0  0  0  0
   11.5495    8.9659  -21.3879 H   0  0  0  0  0  0  0  0  0  0  0  0
   10.6593    9.8314  -22.6309 H   0  0  0  0  0  0  0  0  0  0  0  0
   12.7363    9.2905  -23.6381 H   0  0  0  0  0  0  0  0  0  0  0  0
   11.6009    8.1503  -24.3490 H   0  0  0  0  0  0  0  0  0  0  0  0
   14.6308    7.9328  -23.8575 H   0  0  0  0  0  0  0  0  0  0  0  0
   13.6404    6.7463  -24.6998 H   0  0  0  0  0  0  0  0  0  0  0  0
   15.5511    5.5713  -23.7446 H   0  0  0  0  0  0  0  0  0  0  0  0
   14.1219    5.0836  -22.8395 H   0  0  0  0  0  0  0  0  0  0  0  0
   17.1125    5.3092  -21.8170 H   0  0  0  0  0  0  0  0  0  0  0  0
   15.7036    4.4801  -21.1675 H   0  0  0  0  0  0  0  0  0  0  0  0
   16.8483    6.9963  -19.8522 H   0  0  0  0  0  0  0  0  0  0  0  0
   17.3841    5.3742  -19.4331 H   0  0  0  0  0  0  0  0  0  0  0  0
   16.0709    7.0814  -17.5659 H   0  0  0  0  0  0  0  0  0  0  0  0
   16.3530    5.3846  -17.1931 H   0  0  0  0  0  0  0  0  0  0  0  0
   13.5805    6.7042  -17.3546 H   0  0  0  0  0  0  0  0  0  0  0  0
   14.4856    6.4490  -15.8733 H   0  0  0  0  0  0  0  0  0  0  0  0
   13.4711    4.7903  -14.7824 H   0  0  0  0  0  0  0  0  0  0  0  0
   12.8860    3.3718  -15.6005 H   0  0  0  0  0  0  0  0  0  0  0  0
   10.9698    4.4345  -16.5218 H   0  0  0  0  0  0  0  0  0  0  0  0
   11.6222    6.0388  -16.3192 H   0  0  0  0  0  0  0  0  0  0  0  0
    9.0983    3.9926  -14.7559 H   0  0  0  0  0  0  0  0  0  0  0  0
    7.5123    4.5825  -12.5118 H   0  0  0  0  0  0  0  0  0  0  0  0
    7.6751    6.3004  -12.3706 H   0  0  0  0  0  0  0  0  0  0  0  0
    8.6078    4.2115  -10.3567 H   0  0  0  0  0  0  0  0  0  0  0  0
    7.3369    5.4069  -10.2418 H   0  0  0  0  0  0  0  0  0  0  0  0
    9.2705    7.1016  -10.6237 H   0  0  0  0  0  0  0  0  0  0  0  0
   10.3276    5.8132  -10.0940 H   0  0  0  0  0  0  0  0  0  0  0  0
    9.1954    5.7297   -7.9005 H   0  0  0  0  0  0  0  0  0  0  0  0
    8.0862    6.9891   -8.3798 H   0  0  0  0  0  0  0  0  0  0  0  0
    9.1760    8.9301   -9.5724 H   0  0  0  0  0  0  0  0  0  0  0  0
    9.5645    9.7175   -8.1270 H   0  0  0  0  0  0  0  0  0  0  0  0
   11.2261   10.4208   -9.7745 H   0  0  0  0  0  0  0  0  0  0  0  0
   12.0914    9.3718   -8.7120 H   0  0  0  0  0  0  0  0  0  0  0  0
   12.6261    8.9363  -11.0911 H   0  0  0  0  0  0  0  0  0  0  0  0
   11.9123    7.5057  -10.3724 H   0  0  0  0  0  0  0  0  0  0  0  0
   10.9435    8.5465  -11.4155 H   0  0  0  0  0  0  0  0  0  0  0  0
    9.2222    7.7011   -6.1788 H   0  0  0  0  0  0  0  0  0  0  0  0
   10.0861    9.8928   -5.9094 H   0  0  0  0  0  0  0  0  0  0  0  0
   11.6522    9.4802   -6.6139 H   0  0  0  0  0  0  0  0  0  0  0  0
   11.5251   10.5837   -3.6661 H   0  0  0  0  0  0  0  0  0  0  0  0
   12.4819    9.5485   -1.6060 H   0  0  0  0  0  0  0  0  0  0  0  0
   12.8390    7.0869   -1.5085 H   0  0  0  0  0  0  0  0  0  0  0  0
   12.2414    5.6486   -3.4447 H   0  0  0  0  0  0  0  0  0  0  0  0
   11.9318    6.3660   -6.5227 H   0  0  0  0  0  0  0  0  0  0  0  0
   10.4859    5.7729   -5.7023 H   0  0  0  0  0  0  0  0  0  0  0  0
    7.5872   -2.3451  -19.9550 H   0  0  0  0  0  0  0  0  0  0  0  0
    8.4436   -3.6512  -18.2736 H   0  0  0  0  0  0  0  0  0  0  0  0
    6.8500   -4.0852  -17.6220 H   0  0  0  0  0  0  0  0  0  0  0  0
    8.6489   -6.4355  -18.6547 H   0  0  0  0  0  0  0  0  0  0  0  0
    8.1635   -8.1408  -20.4360 H   0  0  0  0  0  0  0  0  0  0  0  0
    6.5325   -7.6382  -22.2396 H   0  0  0  0  0  0  0  0  0  0  0  0
    5.3582   -5.4278  -22.3049 H   0  0  0  0  0  0  0  0  0  0  0  0
    4.7560   -3.4264  -19.9838 H   0  0  0  0  0  0  0  0  0  0  0  0
    5.7534   -2.8044  -21.3178 H   0  0  0  0  0  0  0  0  0  0  0  0
    6.9597   -1.3628  -17.8553 H   0  0  0  0  0  0  0  0  0  0  0  0
   10.9856    7.2939   -8.4030 H   0  0  0  0  0  0  0  0  0  0  0  0
  2  1  1  0
  3  2  1  0
  4  3  1  0
  5  4  1  0
  6  5  1  0
  7  6  1  0
  8  7  1  0
  9  8  1  0
 10  9  2  0
 11 10  1  0
 12 11  1  0
 13 12  1  0
 14 13  1  0
 15 14  1  0
 16 15  1  0
 17 16  1  0
 18 17  1  0
 19 18  1  0
 20 19  1  0
 21 20  1  0
 22 21  1  0
 23 22  1  0
 24 23  1  0
 25 24  1  0
 26 25  1  0
 27 26  1  0
 28 27  1  0
 29 28  1  0
 30 29  1  0
 31 30  2  0
 32 31  1  0
 33 32  1  0
 34 33  1  0
 35 34  1  0
 36 35  1  0
 37 36  1  0
 38 37  1  0
 39 38  1  0
 40 36  1  0
 41 40  1  0
 42 41  1  0
 43 42  2  0
 44 43  1  0
 45 44  2  0
 46 45  1  0
 47 42  1  0
 47 46  2  0
 48 40  1  0
 48 47  1  0
 49 31  1  0
 50 29  1  0
 50 49  2  0
 51 11  1  0
 52  9  1  0
 52 51  2  0
 53  4  1  0
 54 53  1  0
 55 54  1  0
 56 55  2  0
 57 56  1  0
 58 57  2  0
 59 58  1  0
 60 55  1  0
 60 59  2  0
 61 53  1  0
 61 60  1  0
 62  1  1  0
 63  1  1  0
 64  1  1  0
 65  2  1  0
 66  2  1  0
 67  3  1  0
 68  3  1  0
 69  5  1  0
 70  5  1  0
 71  6  1  0
 72  6  1  0
 73  7  1  0
 74  7  1  0
 75  8  1  0
 76  8  1  0
 77 10  1  0
 78 12  1  0
 79 12  1  0
 80 13  1  0
 81 13  1  0
 82 15  1  0
 83 15  1  0
 84 16  1  0
 85 16  1  0
 86 18  1  0
 87 18  1  0
 88 19  1  0
 89 19  1  0
 90 21  1  0
 91 21  1  0
 92 22  1  0
 93 22  1  0
 94 24  1  0
 95 24  1  0
 96 25  1  0
 97 25  1  0
 98 27  1  0
 99 27  1  0
100 28  1  0
101 28  1  0
102 30  1  0
103 32  1  0
104 32  1  0
105 33  1  0
106 33  1  0
107 34  1  0
108 34  1  0
109 35  1  0
110 35  1  0
111 37  1  0
112 37  1  0
113 38  1  0
114 38  1  0
115 39  1  0
116 39  1  0
117 39  1  0
118 40  1  0
119 41  1  0
120 41  1  0
121 43  1  0
122 44  1  0
123 45  1  0
124 46  1  0
125 48  1  0
126 48  1  0
127 53  1  0
128 54  1  0
129 54  1  0
130 56  1  0
131 57  1  0
132 58  1  0
133 59  1  0
134 61  1  0
135 61  1  0
  4136  1  1
 36137  1  6
M  CHG  2   4   1  36   1
M  END
>  <b_m_subgroup_collapsed>  (111) 
0

>  <r_i_docking_score>  (111) 
-8.9868690767783797

>  <s_m_subgroup_title>  (111) 
glide-dock_SP_D22_pv

>  <s_m_subgroupid>  (111) 
glide-dock_SP_D22_pv

>  <Molecule ChEMBL ID>  (111) 
CHEMBL4755336

>  <Standard Type>  (111) 
Ki

>  <Standard Value>  (111) 
48.0

>  <label>  (111) 
1

$$$$
CHEMBL5821806
     RDKit          3D

 62 64  0  0  1  0  0  0  0  0999 V2000
    4.0860    0.1720  -19.7505 C   0  0  0  0  0  0  0  0  0  0  0  0
    5.1547   -0.5048  -19.1055 O   0  0  0  0  0  0  0  0  0  0  0  0
    5.0358   -0.5677  -17.7401 C   0  0  0  0  0  0  0  0  0  0  0  0
    5.9162    0.1947  -16.9487 C   0  0  0  0  0  0  0  0  0  0  0  0
    5.8290    0.1723  -15.5389 C   0  0  0  0  0  0  0  0  0  0  0  0
    6.7871    1.0134  -14.7156 C   0  0  0  0  0  0  0  0  0  0  0  0
    6.1406    1.9038  -13.6277 C   0  0  0  0  0  0  0  0  0  0  0  0
    6.9447    3.2081  -13.4930 C   0  0  0  0  0  0  0  0  0  0  0  0
    6.6472    4.0477  -12.2468 C   0  0  0  0  0  0  0  0  0  0  0  0
    7.6049    5.2494  -12.1650 C   0  0  0  0  0  0  0  0  0  0  0  0
    7.6860    5.7723  -10.7910 N   0  0  0  0  0  0  0  0  0  0  0  0
    9.0460    5.8606  -10.2350 C   0  0  0  0  0  0  0  0  0  0  0  0
    9.0360    6.5975   -8.8936 C   0  0  0  0  0  0  0  0  0  0  0  0
   10.3540    6.4198   -8.1359 C   0  0  0  0  0  0  0  0  0  0  0  0
   10.4548    7.3117   -6.8872 C   0  0  2  0  0  0  0  0  0  0  0  0
   11.1010    8.6838   -7.2223 C   0  0  0  0  0  0  0  0  0  0  0  0
   11.2393    9.6200   -6.0035 C   0  0  0  0  0  0  0  0  0  0  0  0
   11.6586    8.8648   -4.7834 C   0  0  0  0  0  0  0  0  0  0  0  0
   12.0860    9.5069   -3.6264 N   0  0  0  0  0  0  0  0  0  0  0  0
   12.3737    8.6296   -2.6690 C   0  0  0  0  0  0  0  0  0  0  0  0
   12.8860    8.9723   -1.4469 N   0  0  0  0  0  0  0  0  0  0  0  0
   12.0860    6.9587   -3.0892 S   0  0  0  0  0  0  0  0  0  0  0  0
   11.6265    7.5015   -4.6731 C   0  0  0  0  0  0  0  0  0  0  0  0
   11.2054    6.5781   -5.7545 C   0  0  0  0  0  0  0  0  0  0  0  0
    4.8617   -0.6412  -14.9187 C   0  0  0  0  0  0  0  0  0  0  0  0
    3.9996   -1.4282  -15.7044 C   0  0  0  0  0  0  0  0  0  0  0  0
    4.0899   -1.4071  -17.1102 C   0  0  0  0  0  0  0  0  0  0  0  0
    3.2860   -2.2277  -17.8469 O   0  0  0  0  0  0  0  0  0  0  0  0
    4.2139    0.1091  -20.8309 H   0  0  0  0  0  0  0  0  0  0  0  0
    3.1096   -0.2472  -19.5071 H   0  0  0  0  0  0  0  0  0  0  0  0
    4.0860    1.2272  -19.4785 H   0  0  0  0  0  0  0  0  0  0  0  0
    6.6554    0.8114  -17.4374 H   0  0  0  0  0  0  0  0  0  0  0  0
    7.5263    0.3537  -14.2590 H   0  0  0  0  0  0  0  0  0  0  0  0
    7.3475    1.6398  -15.4112 H   0  0  0  0  0  0  0  0  0  0  0  0
    5.1056    2.1575  -13.8471 H   0  0  0  0  0  0  0  0  0  0  0  0
    6.0860    1.3548  -12.6869 H   0  0  0  0  0  0  0  0  0  0  0  0
    8.0067    2.9574  -13.4855 H   0  0  0  0  0  0  0  0  0  0  0  0
    6.7862    3.8166  -14.3829 H   0  0  0  0  0  0  0  0  0  0  0  0
    5.6100    4.3861  -12.2441 H   0  0  0  0  0  0  0  0  0  0  0  0
    6.7657    3.4186  -11.3638 H   0  0  0  0  0  0  0  0  0  0  0  0
    8.6012    4.9511  -12.4961 H   0  0  0  0  0  0  0  0  0  0  0  0
    7.2833    6.0459  -12.8371 H   0  0  0  0  0  0  0  0  0  0  0  0
    7.2232    6.6935  -10.7058 H   0  0  0  0  0  0  0  0  0  0  0  0
    9.4368    4.8487  -10.1146 H   0  0  0  0  0  0  0  0  0  0  0  0
    9.7031    6.3827  -10.9323 H   0  0  0  0  0  0  0  0  0  0  0  0
    8.8368    7.6566   -9.0635 H   0  0  0  0  0  0  0  0  0  0  0  0
    8.2205    6.2266   -8.2695 H   0  0  0  0  0  0  0  0  0  0  0  0
   10.4300    5.3723   -7.8469 H   0  0  0  0  0  0  0  0  0  0  0  0
   11.2019    6.6060   -8.7962 H   0  0  0  0  0  0  0  0  0  0  0  0
    9.4484    7.5101   -6.5121 H   0  0  0  0  0  0  0  0  0  0  0  0
   12.1005    8.5002   -7.6195 H   0  0  0  0  0  0  0  0  0  0  0  0
   10.5504    9.1911   -8.0151 H   0  0  0  0  0  0  0  0  0  0  0  0
   10.2820   10.0986   -5.8060 H   0  0  0  0  0  0  0  0  0  0  0  0
   11.9438   10.4224   -6.2264 H   0  0  0  0  0  0  0  0  0  0  0  0
   13.2826    9.9053   -1.3483 H   0  0  0  0  0  0  0  0  0  0  0  0
   13.2721    8.2632   -0.8443 H   0  0  0  0  0  0  0  0  0  0  0  0
   10.5729    5.8019   -5.3307 H   0  0  0  0  0  0  0  0  0  0  0  0
   12.0860    6.0763   -6.1539 H   0  0  0  0  0  0  0  0  0  0  0  0
    4.7908   -0.6784  -13.8434 H   0  0  0  0  0  0  0  0  0  0  0  0
    3.2815   -2.0747  -15.2246 H   0  0  0  0  0  0  0  0  0  0  0  0
    2.9339   -2.9451  -17.3200 H   0  0  0  0  0  0  0  0  0  0  0  0
    7.1419    5.1560  -10.1980 H   0  0  0  0  0  0  0  0  0  0  0  0
  2  1  1  0
  3  2  1  0
  4  3  1  0
  5  4  2  0
  6  5  1  0
  7  6  1  0
  8  7  1  0
  9  8  1  0
 10  9  1  0
 11 10  1  0
 12 11  1  0
 13 12  1  0
 14 13  1  0
 15 14  1  0
 16 15  1  0
 17 16  1  0
 18 17  1  0
 19 18  1  0
 20 19  2  0
 21 20  1  0
 22 20  1  0
 23 18  2  0
 23 22  1  0
 24 15  1  0
 24 23  1  0
 25  5  1  0
 26 25  2  0
 27  3  2  0
 27 26  1  0
 28 27  1  0
 29  1  1  0
 30  1  1  0
 31  1  1  0
 32  4  1  0
 33  6  1  0
 34  6  1  0
 35  7  1  0
 36  7  1  0
 37  8  1  0
 38  8  1  0
 39  9  1  0
 40  9  1  0
 41 10  1  0
 42 10  1  0
 43 11  1  0
 44 12  1  0
 45 12  1  0
 46 13  1  0
 47 13  1  0
 48 14  1  0
 49 14  1  0
 15 50  1  1
 51 16  1  0
 52 16  1  0
 53 17  1  0
 54 17  1  0
 55 21  1  0
 56 21  1  0
 57 24  1  0
 58 24  1  0
 59 25  1  0
 60 26  1  0
 61 28  1  0
 62 11  1  0
M  CHG  1  11   1
M  END
>  <b_m_subgroup_collapsed>  (112) 
0

>  <r_i_docking_score>  (112) 
-8.9812155825490905

>  <s_m_subgroup_title>  (112) 
glide-dock_SP_D22_pv

>  <s_m_subgroupid>  (112) 
glide-dock_SP_D22_pv

>  <Molecule ChEMBL ID>  (112) 
CHEMBL5821806

>  <Standard Type>  (112) 
Ki

>  <Standard Value>  (112) 
68.3

>  <label>  (112) 
1

$$$$
CHEMBL1172210
     RDKit          3D

 45 48  0  0  1  0  0  0  0  0999 V2000
    7.5337    7.0217  -12.6493 O   0  0  0  0  0  0  0  0  0  0  0  0
    8.6514    6.4557  -11.9952 C   0  0  1  0  0  0  0  0  0  0  0  0
    9.5860    5.7718  -13.0054 C   0  0  0  0  0  0  0  0  0  0  0  0
    9.0393    4.8484  -13.9273 C   0  0  0  0  0  0  0  0  0  0  0  0
    9.8460    4.2406  -14.9072 C   0  0  0  0  0  0  0  0  0  0  0  0
   11.2150    4.5529  -14.9825 C   0  0  0  0  0  0  0  0  0  0  0  0
   12.2962    3.7719  -16.3382 Br  0  0  0  0  0  0  0  0  0  0  0  0
   11.7774    5.4594  -14.0661 C   0  0  0  0  0  0  0  0  0  0  0  0
   10.9690    6.0669  -13.0857 C   0  0  0  0  0  0  0  0  0  0  0  0
    9.2855    7.6508  -11.2227 C   0  0  0  0  0  0  0  0  0  0  0  0
   10.1011    7.2415   -9.9858 C   0  0  0  0  0  0  0  0  0  0  0  0
    9.2970    6.3620   -9.1047 N   0  0  2  0  0  0  0  0  0  0  0  0
    9.9777    5.9882   -7.8479 C   0  0  0  0  0  0  0  0  0  0  0  0
   10.4458    7.0470   -6.9045 C   0  0  0  0  0  0  0  0  0  0  0  0
   10.2413    8.4001   -6.7446 C   0  0  0  0  0  0  0  0  0  0  0  0
   10.8859    8.7420   -5.5008 C   0  0  0  0  0  0  0  0  0  0  0  0
   11.0464    9.8862   -4.6896 C   0  0  0  0  0  0  0  0  0  0  0  0
   11.6857    9.7874   -3.4329 C   0  0  0  0  0  0  0  0  0  0  0  0
   12.2060    8.5678   -2.9631 C   0  0  0  0  0  0  0  0  0  0  0  0
   12.0868    7.4215   -3.7622 C   0  0  0  0  0  0  0  0  0  0  0  0
   11.4338    7.5381   -4.9987 C   0  0  0  0  0  0  0  0  0  0  0  0
   11.2062    6.5347   -5.8954 O   0  0  0  0  0  0  0  0  0  0  0  0
    8.9133    5.1185   -9.8251 C   0  0  0  0  0  0  0  0  0  0  0  0
    8.0360    5.4137  -11.0356 C   0  0  0  0  0  0  0  0  0  0  0  0
    6.9533    7.3715  -11.9764 H   0  0  0  0  0  0  0  0  0  0  0  0
    7.9842    4.6184  -13.8997 H   0  0  0  0  0  0  0  0  0  0  0  0
    9.4108    3.5474  -15.6116 H   0  0  0  0  0  0  0  0  0  0  0  0
   12.8281    5.7039  -14.1265 H   0  0  0  0  0  0  0  0  0  0  0  0
   11.4410    6.7768  -12.4270 H   0  0  0  0  0  0  0  0  0  0  0  0
    9.8603    8.2948  -11.8881 H   0  0  0  0  0  0  0  0  0  0  0  0
    8.4861    8.2946  -10.8504 H   0  0  0  0  0  0  0  0  0  0  0  0
   11.0200    6.7280  -10.2652 H   0  0  0  0  0  0  0  0  0  0  0  0
   10.4038    8.1440   -9.4568 H   0  0  0  0  0  0  0  0  0  0  0  0
    9.2772    5.3724   -7.2895 H   0  0  0  0  0  0  0  0  0  0  0  0
   10.8274    5.3517   -8.0940 H   0  0  0  0  0  0  0  0  0  0  0  0
    9.6656    9.0676   -7.3689 H   0  0  0  0  0  0  0  0  0  0  0  0
   10.6460   10.8338   -5.0175 H   0  0  0  0  0  0  0  0  0  0  0  0
   11.7774   10.6654   -2.8104 H   0  0  0  0  0  0  0  0  0  0  0  0
   12.6908    8.5186   -1.9985 H   0  0  0  0  0  0  0  0  0  0  0  0
   12.4702    6.4677   -3.4308 H   0  0  0  0  0  0  0  0  0  0  0  0
    9.8052    4.5746  -10.1402 H   0  0  0  0  0  0  0  0  0  0  0  0
    8.3632    4.4533   -9.1571 H   0  0  0  0  0  0  0  0  0  0  0  0
    7.0837    5.7722  -10.6474 H   0  0  0  0  0  0  0  0  0  0  0  0
    7.7823    4.4873  -11.5512 H   0  0  0  0  0  0  0  0  0  0  0  0
    8.4411    6.8521   -8.8629 H   0  0  0  0  0  0  0  0  0  0  0  0
  2  1  1  6
  3  2  1  0
  4  3  2  0
  5  4  1  0
  6  5  2  0
  7  6  1  0
  8  6  1  0
  9  3  1  0
  9  8  2  0
 10  2  1  0
 11 10  1  0
 12 11  1  0
 13 12  1  0
 14 13  1  0
 15 14  2  0
 16 15  1  0
 17 16  2  0
 18 17  1  0
 19 18  2  0
 20 19  1  0
 21 16  1  0
 21 20  2  0
 22 14  1  0
 22 21  1  0
 23 12  1  0
 24  2  1  0
 24 23  1  0
 25  1  1  0
 26  4  1  0
 27  5  1  0
 28  8  1  0
 29  9  1  0
 30 10  1  0
 31 10  1  0
 32 11  1  0
 33 11  1  0
 34 13  1  0
 35 13  1  0
 36 15  1  0
 37 17  1  0
 38 18  1  0
 39 19  1  0
 40 20  1  0
 41 23  1  0
 42 23  1  0
 43 24  1  0
 44 24  1  0
 12 45  1  1
M  CHG  1  12   1
M  END
>  <b_m_subgroup_collapsed>  (113) 
0

>  <r_i_docking_score>  (113) 
-8.9766343642571798

>  <s_m_subgroup_title>  (113) 
glide-dock_SP_D22_pv

>  <s_m_subgroupid>  (113) 
glide-dock_SP_D22_pv

>  <Molecule ChEMBL ID>  (113) 
CHEMBL1172210

>  <Standard Type>  (113) 
Ki

>  <Standard Value>  (113) 
17.3

>  <label>  (113) 
1

$$$$
CHEMBL569746
     RDKit          3D

 71 75  0  0  1  0  0  0  0  0999 V2000
   11.6807    3.9460  -14.0174 C   0  0  0  0  0  0  0  0  0  0  0  0
   10.1732    4.1665  -14.1582 C   0  0  0  0  0  0  0  0  0  0  0  0
    9.3312    3.3774  -13.1360 C   0  0  0  0  0  0  0  0  0  0  0  0
    7.8777    3.5460  -13.4470 N   0  0  2  0  0  0  0  0  0  0  0  0
    7.0899    4.1981  -12.3551 C   0  0  0  0  0  0  0  0  0  0  0  0
    7.4693    5.6754  -12.1285 C   0  0  0  0  0  0  0  0  0  0  0  0
    8.7080    5.8629  -11.3735 N   0  0  0  0  0  0  0  0  0  0  0  0
    9.1842    7.2283  -11.5721 C   0  0  0  0  0  0  0  0  0  0  0  0
   10.5431    7.3518  -10.8877 C   0  0  0  0  0  0  0  0  0  0  0  0
   10.3672    7.2131   -9.4387 N   0  0  0  0  0  0  0  0  0  0  0  0
   10.6926    8.2291   -8.5997 C   0  0  0  0  0  0  0  0  0  0  0  0
   10.8858    9.3719   -9.0187 O   0  0  0  0  0  0  0  0  0  0  0  0
   10.9105    7.9832   -7.1483 C   0  0  0  0  0  0  0  0  0  0  0  0
   11.1552    6.8725   -6.3744 C   0  0  0  0  0  0  0  0  0  0  0  0
   11.4559    7.3330   -5.0468 C   0  0  0  0  0  0  0  0  0  0  0  0
   11.8285    6.7107   -3.8346 C   0  0  0  0  0  0  0  0  0  0  0  0
   12.1456    7.4552   -2.6836 C   0  0  0  0  0  0  0  0  0  0  0  0
   12.0853    8.8584   -2.7144 C   0  0  0  0  0  0  0  0  0  0  0  0
   11.6835    9.5037   -3.8970 C   0  0  0  0  0  0  0  0  0  0  0  0
   11.3862    8.7510   -5.0459 C   0  0  0  0  0  0  0  0  0  0  0  0
   11.0232    9.0993   -6.3294 N   0  0  0  0  0  0  0  0  0  0  0  0
    9.7611    5.9185   -9.0813 C   0  0  0  0  0  0  0  0  0  0  0  0
    8.5166    5.5984   -9.9398 C   0  0  0  0  0  0  0  0  0  0  0  0
    7.2027    2.4117  -14.1886 C   0  0  1  0  0  0  0  0  0  0  0  0
    8.1364    1.2992  -14.7270 C   0  0  0  0  0  0  0  0  0  0  0  0
    7.4403    0.3857  -15.7415 C   0  0  0  0  0  0  0  0  0  0  0  0
    6.0561   -0.0641  -15.3087 C   0  0  0  0  0  0  0  0  0  0  0  0
    5.3848   -1.0817  -16.0281 C   0  0  0  0  0  0  0  0  0  0  0  0
    6.0107   -1.7416  -17.0465 O   0  0  0  0  0  0  0  0  0  0  0  0
    4.0593   -1.4277  -15.6983 C   0  0  0  0  0  0  0  0  0  0  0  0
    3.4153   -0.7949  -14.6201 C   0  0  0  0  0  0  0  0  0  0  0  0
    4.1008    0.1723  -13.8745 C   0  0  0  0  0  0  0  0  0  0  0  0
    5.3934    0.5725  -14.2338 C   0  0  0  0  0  0  0  0  0  0  0  0
    5.9580    1.7815  -13.5029 C   0  0  0  0  0  0  0  0  0  0  0  0
   12.2278    4.5027  -14.7779 H   0  0  0  0  0  0  0  0  0  0  0  0
   12.0419    4.2786  -13.0469 H   0  0  0  0  0  0  0  0  0  0  0  0
   11.9309    2.8933  -14.1362 H   0  0  0  0  0  0  0  0  0  0  0  0
    9.8803    3.8929  -15.1718 H   0  0  0  0  0  0  0  0  0  0  0  0
    9.9603    5.2323  -14.0606 H   0  0  0  0  0  0  0  0  0  0  0  0
    9.5749    3.7078  -12.1301 H   0  0  0  0  0  0  0  0  0  0  0  0
    9.6499    2.3425  -13.0874 H   0  0  0  0  0  0  0  0  0  0  0  0
    6.0448    4.2476  -12.6554 H   0  0  0  0  0  0  0  0  0  0  0  0
    7.1079    3.6252  -11.4296 H   0  0  0  0  0  0  0  0  0  0  0  0
    7.5454    6.1665  -13.0986 H   0  0  0  0  0  0  0  0  0  0  0  0
    6.6524    6.1724  -11.6057 H   0  0  0  0  0  0  0  0  0  0  0  0
    9.2949    7.4304  -12.6379 H   0  0  0  0  0  0  0  0  0  0  0  0
    8.4861    7.9632  -11.1706 H   0  0  0  0  0  0  0  0  0  0  0  0
   11.2118    6.5727  -11.2529 H   0  0  0  0  0  0  0  0  0  0  0  0
   11.0077    8.2955  -11.1767 H   0  0  0  0  0  0  0  0  0  0  0  0
   11.1851    5.8408   -6.6909 H   0  0  0  0  0  0  0  0  0  0  0  0
   11.9090    5.6421   -3.8018 H   0  0  0  0  0  0  0  0  0  0  0  0
   12.4517    6.9439   -1.7836 H   0  0  0  0  0  0  0  0  0  0  0  0
   12.3283    9.4368   -1.8343 H   0  0  0  0  0  0  0  0  0  0  0  0
   11.6098   10.5725   -3.9236 H   0  0  0  0  0  0  0  0  0  0  0  0
   10.9240   10.0327   -6.7008 H   0  0  0  0  0  0  0  0  0  0  0  0
   10.4900    5.1205   -9.1969 H   0  0  0  0  0  0  0  0  0  0  0  0
    9.4276    5.8967   -8.0453 H   0  0  0  0  0  0  0  0  0  0  0  0
    7.6840    6.1730   -9.5558 H   0  0  0  0  0  0  0  0  0  0  0  0
    8.2455    4.5551   -9.7844 H   0  0  0  0  0  0  0  0  0  0  0  0
    6.8107    2.9058  -15.0778 H   0  0  0  0  0  0  0  0  0  0  0  0
    8.4719    0.6787  -13.8937 H   0  0  0  0  0  0  0  0  0  0  0  0
    9.0261    1.7055  -15.2073 H   0  0  0  0  0  0  0  0  0  0  0  0
    8.0682   -0.4835  -15.9326 H   0  0  0  0  0  0  0  0  0  0  0  0
    7.3371    0.9069  -16.6940 H   0  0  0  0  0  0  0  0  0  0  0  0
    6.8142   -2.1469  -16.7362 H   0  0  0  0  0  0  0  0  0  0  0  0
    3.5395   -2.1918  -16.2597 H   0  0  0  0  0  0  0  0  0  0  0  0
    2.3958   -1.0274  -14.3639 H   0  0  0  0  0  0  0  0  0  0  0  0
    3.6362    0.6765  -13.0511 H   0  0  0  0  0  0  0  0  0  0  0  0
    5.1517    2.5147  -13.4795 H   0  0  0  0  0  0  0  0  0  0  0  0
    6.0859    1.4922  -12.4618 H   0  0  0  0  0  0  0  0  0  0  0  0
    7.9015    4.2747  -14.1445 H   0  0  0  0  0  0  0  0  0  0  0  0
  2  1  1  0
  3  2  1  0
  4  3  1  0
  5  4  1  0
  6  5  1  0
  7  6  1  0
  8  7  1  0
  9  8  1  0
 10  9  1  0
 11 10  1  0
 12 11  2  0
 13 11  1  0
 14 13  2  0
 15 14  1  0
 16 15  2  0
 17 16  1  0
 18 17  2  0
 19 18  1  0
 20 15  1  0
 20 19  2  0
 21 13  1  0
 21 20  1  0
 22 10  1  0
 23  7  1  0
 23 22  1  0
 24  4  1  0
 25 24  1  0
 26 25  1  0
 27 26  1  0
 28 27  2  0
 29 28  1  0
 30 28  1  0
 31 30  2  0
 32 31  1  0
 33 27  1  0
 33 32  2  0
 34 24  1  0
 34 33  1  0
 35  1  1  0
 36  1  1  0
 37  1  1  0
 38  2  1  0
 39  2  1  0
 40  3  1  0
 41  3  1  0
 42  5  1  0
 43  5  1  0
 44  6  1  0
 45  6  1  0
 46  8  1  0
 47  8  1  0
 48  9  1  0
 49  9  1  0
 50 14  1  0
 51 16  1  0
 52 17  1  0
 53 18  1  0
 54 19  1  0
 55 21  1  0
 56 22  1  0
 57 22  1  0
 58 23  1  0
 59 23  1  0
 24 60  1  6
 61 25  1  0
 62 25  1  0
 63 26  1  0
 64 26  1  0
 65 29  1  0
 66 30  1  0
 67 31  1  0
 68 32  1  0
 69 34  1  0
 70 34  1  0
  4 71  1  6
M  CHG  1   4   1
M  END
>  <b_m_subgroup_collapsed>  (114) 
0

>  <r_i_docking_score>  (114) 
-8.9761354201507793

>  <s_m_subgroup_title>  (114) 
glide-dock_SP_D22_pv

>  <s_m_subgroupid>  (114) 
glide-dock_SP_D22_pv

>  <Molecule ChEMBL ID>  (114) 
CHEMBL569746

>  <Standard Type>  (114) 
Ki

>  <Standard Value>  (114) 
47.5

>  <label>  (114) 
1

$$$$
CHEMBL5856810
     RDKit          3D

 57 59  0  0  1  0  0  0  0  0999 V2000
    5.5981    3.3978  -12.4869 C   0  0  0  0  0  0  0  0  0  0  0  0
    6.4075    4.3793  -13.3524 C   0  0  0  0  0  0  0  0  0  0  0  0
    7.6986    4.7370  -12.7321 N   0  0  0  0  0  0  0  0  0  0  0  0
    7.6029    5.6250  -11.5641 C   0  0  0  0  0  0  0  0  0  0  0  0
    8.3671    5.0512  -10.3641 C   0  0  0  0  0  0  0  0  0  0  0  0
    8.7630    6.1176   -9.4071 N   0  0  2  0  0  0  0  0  0  0  0  0
   10.1292    6.6448   -9.6806 C   0  0  0  0  0  0  0  0  0  0  0  0
   10.5503    7.7365   -8.6823 C   0  0  0  0  0  0  0  0  0  0  0  0
   10.4107    7.2437   -7.2287 C   0  0  1  0  0  0  0  0  0  0  0  0
   10.8181    8.2763   -6.2109 C   0  0  0  0  0  0  0  0  0  0  0  0
   10.5784    9.5685   -6.4182 N   0  0  0  0  0  0  0  0  0  0  0  0
   11.0218   10.2783   -5.2684 O   0  0  0  0  0  0  0  0  0  0  0  0
   11.5027    9.3819   -4.3313 C   0  0  0  0  0  0  0  0  0  0  0  0
   12.0119    9.5704   -3.0422 C   0  0  0  0  0  0  0  0  0  0  0  0
   12.3740    8.4276   -2.2997 C   0  0  0  0  0  0  0  0  0  0  0  0
   12.8721    8.5687   -1.0478 F   0  0  0  0  0  0  0  0  0  0  0  0
   12.2029    7.1357   -2.8593 C   0  0  0  0  0  0  0  0  0  0  0  0
   11.6927    6.9725   -4.1714 C   0  0  0  0  0  0  0  0  0  0  0  0
   11.3534    8.1237   -4.9153 C   0  0  0  0  0  0  0  0  0  0  0  0
    8.9761    6.7659   -6.9970 C   0  0  0  0  0  0  0  0  0  0  0  0
    8.6051    5.6683   -8.0017 C   0  0  0  0  0  0  0  0  0  0  0  0
    9.1873    4.6871  -13.6397 S   0  0  0  0  0  0  0  0  0  0  0  0
   10.1674    5.5159  -12.9201 O   0  0  0  0  0  0  0  0  0  0  0  0
    8.8861    4.9723  -15.0466 O   0  0  0  0  0  0  0  0  0  0  0  0
    9.7522    2.9381  -13.5382 C   0  0  2  0  0  0  0  0  0  0  0  0
   11.2190    2.8936  -13.9957 C   0  0  0  0  0  0  0  0  0  0  0  0
    8.8719    2.0170  -14.3993 C   0  0  0  0  0  0  0  0  0  0  0  0
    9.2930    0.6806  -14.2469 O   0  0  0  0  0  0  0  0  0  0  0  0
    4.6153    3.2274  -12.9246 H   0  0  0  0  0  0  0  0  0  0  0  0
    6.0860    2.4273  -12.4118 H   0  0  0  0  0  0  0  0  0  0  0  0
    5.4413    3.7684  -11.4728 H   0  0  0  0  0  0  0  0  0  0  0  0
    5.8267    5.2898  -13.5051 H   0  0  0  0  0  0  0  0  0  0  0  0
    6.5687    3.9512  -14.3381 H   0  0  0  0  0  0  0  0  0  0  0  0
    7.9852    6.6068  -11.8487 H   0  0  0  0  0  0  0  0  0  0  0  0
    6.5610    5.7726  -11.2807 H   0  0  0  0  0  0  0  0  0  0  0  0
    7.7198    4.3112   -9.8929 H   0  0  0  0  0  0  0  0  0  0  0  0
    9.2543    4.4975  -10.6760 H   0  0  0  0  0  0  0  0  0  0  0  0
   10.8470    5.8269   -9.6250 H   0  0  0  0  0  0  0  0  0  0  0  0
   10.1765    7.0382  -10.6970 H   0  0  0  0  0  0  0  0  0  0  0  0
   11.5784    8.0414   -8.8793 H   0  0  0  0  0  0  0  0  0  0  0  0
    9.9318    8.6213   -8.8411 H   0  0  0  0  0  0  0  0  0  0  0  0
   11.0706    6.3840   -7.1067 H   0  0  0  0  0  0  0  0  0  0  0  0
   12.0906   10.5637   -2.6262 H   0  0  0  0  0  0  0  0  0  0  0  0
   12.4655    6.2629   -2.2769 H   0  0  0  0  0  0  0  0  0  0  0  0
   11.5630    5.9835   -4.5889 H   0  0  0  0  0  0  0  0  0  0  0  0
    8.8853    6.3726   -5.9854 H   0  0  0  0  0  0  0  0  0  0  0  0
    8.2774    7.6037   -7.0660 H   0  0  0  0  0  0  0  0  0  0  0  0
    7.5740    5.3712   -7.8288 H   0  0  0  0  0  0  0  0  0  0  0  0
    9.2241    4.7834   -7.8462 H   0  0  0  0  0  0  0  0  0  0  0  0
    9.6861    2.6403  -12.4916 H   0  0  0  0  0  0  0  0  0  0  0  0
   11.6503    1.9054  -13.8470 H   0  0  0  0  0  0  0  0  0  0  0  0
   11.3073    3.1335  -15.0558 H   0  0  0  0  0  0  0  0  0  0  0  0
   11.8356    3.6095  -13.4535 H   0  0  0  0  0  0  0  0  0  0  0  0
    8.9064    2.2932  -15.4534 H   0  0  0  0  0  0  0  0  0  0  0  0
    7.8345    2.0685  -14.0811 H   0  0  0  0  0  0  0  0  0  0  0  0
    9.5207    0.5621  -13.3286 H   0  0  0  0  0  0  0  0  0  0  0  0
    8.0970    6.8752   -9.5349 H   0  0  0  0  0  0  0  0  0  0  0  0
  2  1  1  0
  3  2  1  0
  4  3  1  0
  5  4  1  0
  6  5  1  0
  7  6  1  0
  8  7  1  0
  9  8  1  0
 10  9  1  0
 11 10  2  0
 12 11  1  0
 13 12  1  0
 14 13  2  0
 15 14  1  0
 16 15  1  0
 17 15  2  0
 18 17  1  0
 19 10  1  0
 19 13  1  0
 19 18  2  0
 20  9  1  0
 21  6  1  0
 21 20  1  0
 22  3  1  0
 23 22  2  0
 24 22  2  0
 25 22  1  0
 26 25  1  0
 27 25  1  0
 28 27  1  0
 29  1  1  0
 30  1  1  0
 31  1  1  0
 32  2  1  0
 33  2  1  0
 34  4  1  0
 35  4  1  0
 36  5  1  0
 37  5  1  0
 38  7  1  0
 39  7  1  0
 40  8  1  0
 41  8  1  0
  9 42  1  6
 43 14  1  0
 44 17  1  0
 45 18  1  0
 46 20  1  0
 47 20  1  0
 48 21  1  0
 49 21  1  0
 25 50  1  1
 51 26  1  0
 52 26  1  0
 53 26  1  0
 54 27  1  0
 55 27  1  0
 56 28  1  0
  6 57  1  1
M  CHG  1   6   1
M  END
>  <b_m_subgroup_collapsed>  (115) 
0

>  <r_i_docking_score>  (115) 
-8.9755708600111603

>  <s_m_subgroup_title>  (115) 
glide-dock_SP_D22_pv

>  <s_m_subgroupid>  (115) 
glide-dock_SP_D22_pv

>  <Molecule ChEMBL ID>  (115) 
CHEMBL5856810

>  <Standard Type>  (115) 
Ki

>  <Standard Value>  (115) 
10000.0

>  <label>  (115) 
0

$$$$
CHEMBL4288077
     RDKit          3D

 62 65  0  0  1  0  0  0  0  0999 V2000
   12.3060    3.5036  -15.7768 C   0  0  0  0  0  0  0  0  0  0  0  0
   11.3779    4.7145  -15.6461 C   0  0  2  0  0  0  0  0  0  0  0  0
   11.3139    5.5064  -16.9642 C   0  0  0  0  0  0  0  0  0  0  0  0
   12.1227    6.6544  -17.1483 C   0  0  0  0  0  0  0  0  0  0  0  0
   12.0991    7.3709  -18.3615 C   0  0  0  0  0  0  0  0  0  0  0  0
   11.2630    6.9495  -19.4121 C   0  0  0  0  0  0  0  0  0  0  0  0
   11.2251    7.6466  -20.5715 F   0  0  0  0  0  0  0  0  0  0  0  0
   10.4730    5.7972  -19.2563 C   0  0  0  0  0  0  0  0  0  0  0  0
   10.5090    5.0745  -18.0473 C   0  0  0  0  0  0  0  0  0  0  0  0
   11.7771    5.5308  -14.5167 N   0  0  0  0  0  0  0  0  0  0  0  0
   10.8021    5.7076  -13.6213 C   0  0  0  0  0  0  0  0  0  0  0  0
   10.8985    6.4459  -12.6465 O   0  0  0  0  0  0  0  0  0  0  0  0
    9.7358    4.9619  -13.9810 N   0  0  0  0  0  0  0  0  0  0  0  0
    8.4278    4.7932  -13.3002 C   0  0  0  0  0  0  0  0  0  0  0  0
    8.1083    5.7038  -12.0854 C   0  0  1  0  0  0  0  0  0  0  0  0
    6.7040    5.7723  -11.9303 O   0  0  0  0  0  0  0  0  0  0  0  0
    8.7028    5.1624  -10.7616 C   0  0  0  0  0  0  0  0  0  0  0  0
    8.7546    6.1771   -9.6784 N   0  0  0  0  0  0  0  0  0  0  0  0
    8.9663    5.5784   -8.3360 C   0  0  0  0  0  0  0  0  0  0  0  0
    9.0331    6.6647   -7.2396 C   0  0  0  0  0  0  0  0  0  0  0  0
   10.1021    7.6319   -7.5279 N   0  0  0  0  0  0  0  0  0  0  0  0
   10.1395    8.6918   -6.5187 C   0  0  0  0  0  0  0  0  0  0  0  0
   10.9230    8.4265   -5.2402 C   0  0  0  0  0  0  0  0  0  0  0  0
   11.2861    9.5417   -4.4528 C   0  0  0  0  0  0  0  0  0  0  0  0
   11.9946    9.3717   -3.2479 C   0  0  0  0  0  0  0  0  0  0  0  0
   12.3398    8.0803   -2.8132 C   0  0  0  0  0  0  0  0  0  0  0  0
   11.9916    6.9643   -3.5942 C   0  0  0  0  0  0  0  0  0  0  0  0
   11.2881    7.1317   -4.8050 C   0  0  0  0  0  0  0  0  0  0  0  0
    9.7490    8.2716   -8.7950 C   0  0  0  0  0  0  0  0  0  0  0  0
    9.7669    7.2341   -9.9189 C   0  0  0  0  0  0  0  0  0  0  0  0
   10.0029    4.3027  -15.1199 C   0  0  0  0  0  0  0  0  0  0  0  0
    9.2845    3.4651  -15.6651 O   0  0  0  0  0  0  0  0  0  0  0  0
   11.9646    2.8131  -16.5485 H   0  0  0  0  0  0  0  0  0  0  0  0
   13.3184    3.8127  -16.0327 H   0  0  0  0  0  0  0  0  0  0  0  0
   12.3486    2.9621  -14.8347 H   0  0  0  0  0  0  0  0  0  0  0  0
   12.7782    7.0020  -16.3636 H   0  0  0  0  0  0  0  0  0  0  0  0
   12.7093    8.2546  -18.4818 H   0  0  0  0  0  0  0  0  0  0  0  0
    9.8408    5.4647  -20.0675 H   0  0  0  0  0  0  0  0  0  0  0  0
    9.9064    4.1821  -17.9673 H   0  0  0  0  0  0  0  0  0  0  0  0
   12.6815    5.9766  -14.4561 H   0  0  0  0  0  0  0  0  0  0  0  0
    8.3063    3.7471  -13.0141 H   0  0  0  0  0  0  0  0  0  0  0  0
    7.6669    4.9728  -14.0621 H   0  0  0  0  0  0  0  0  0  0  0  0
    8.4214    6.7193  -12.3182 H   0  0  0  0  0  0  0  0  0  0  0  0
    6.4859    6.4755  -11.3154 H   0  0  0  0  0  0  0  0  0  0  0  0
    8.1055    4.3100  -10.4328 H   0  0  0  0  0  0  0  0  0  0  0  0
    9.7082    4.7713  -10.9211 H   0  0  0  0  0  0  0  0  0  0  0  0
    8.1461    4.8926   -8.1162 H   0  0  0  0  0  0  0  0  0  0  0  0
    9.8847    4.9905   -8.3353 H   0  0  0  0  0  0  0  0  0  0  0  0
    8.0852    7.1916   -7.1687 H   0  0  0  0  0  0  0  0  0  0  0  0
    9.1770    6.1809   -6.2758 H   0  0  0  0  0  0  0  0  0  0  0  0
   10.5987    9.5810   -6.9548 H   0  0  0  0  0  0  0  0  0  0  0  0
    9.1222    8.9738   -6.2470 H   0  0  0  0  0  0  0  0  0  0  0  0
   11.0157   10.5384   -4.7699 H   0  0  0  0  0  0  0  0  0  0  0  0
   12.2605   10.2299   -2.6488 H   0  0  0  0  0  0  0  0  0  0  0  0
   12.8808    7.9496   -1.8863 H   0  0  0  0  0  0  0  0  0  0  0  0
   12.2634    5.9721   -3.2633 H   0  0  0  0  0  0  0  0  0  0  0  0
   11.0543    6.2543   -5.3856 H   0  0  0  0  0  0  0  0  0  0  0  0
    8.7735    8.7595   -8.7354 H   0  0  0  0  0  0  0  0  0  0  0  0
   10.4789    9.0473   -9.0337 H   0  0  0  0  0  0  0  0  0  0  0  0
   10.7620    6.7936  -10.0039 H   0  0  0  0  0  0  0  0  0  0  0  0
    9.5650    7.7591  -10.8498 H   0  0  0  0  0  0  0  0  0  0  0  0
    7.8501    6.6458   -9.6590 H   0  0  0  0  0  0  0  0  0  0  0  0
  2  1  1  6
  3  2  1  0
  4  3  1  0
  5  4  2  0
  6  5  1  0
  7  6  1  0
  8  6  2  0
  9  3  2  0
  9  8  1  0
 10  2  1  0
 11 10  1  0
 12 11  2  0
 13 11  1  0
 14 13  1  0
 15 14  1  0
 16 15  1  0
 17 15  1  0
 18 17  1  0
 19 18  1  0
 20 19  1  0
 21 20  1  0
 22 21  1  0
 23 22  1  0
 24 23  2  0
 25 24  1  0
 26 25  2  0
 27 26  1  0
 28 23  1  0
 28 27  2  0
 29 21  1  0
 30 18  1  0
 30 29  1  0
 31  2  1  0
 31 13  1  0
 32 31  2  0
 33  1  1  0
 34  1  1  0
 35  1  1  0
 36  4  1  0
 37  5  1  0
 38  8  1  0
 39  9  1  0
 40 10  1  0
 41 14  1  0
 42 14  1  0
 15 43  1  6
 44 16  1  0
 45 17  1  0
 46 17  1  0
 47 19  1  0
 48 19  1  0
 49 20  1  0
 50 20  1  0
 51 22  1  0
 52 22  1  0
 53 24  1  0
 54 25  1  0
 55 26  1  0
 56 27  1  0
 57 28  1  0
 58 29  1  0
 59 29  1  0
 60 30  1  0
 61 30  1  0
 62 18  1  0
M  CHG  1  18   1
M  END
>  <b_m_subgroup_collapsed>  (116) 
0

>  <r_i_docking_score>  (116) 
-8.9690992737096202

>  <s_m_subgroup_title>  (116) 
glide-dock_SP_D22_pv

>  <s_m_subgroupid>  (116) 
glide-dock_SP_D22_pv

>  <Molecule ChEMBL ID>  (116) 
CHEMBL4288077

>  <Standard Type>  (116) 
Ki

>  <Standard Value>  (116) 
20030.0

>  <label>  (116) 
0

$$$$
CHEMBL3676919
     RDKit          3D

 73 78  0  0  1  0  0  0  0  0999 V2000
    8.4859    2.8501  -17.8474 O   0  0  0  0  0  0  0  0  0  0  0  0
    8.9910    2.0498  -17.0606 C   0  0  0  0  0  0  0  0  0  0  0  0
    8.7258    0.5548  -17.2052 C   0  0  0  0  0  0  0  0  0  0  0  0
    7.5109    0.1724  -16.3735 C   0  0  0  0  0  0  0  0  0  0  0  0
    7.5769    0.1723  -14.9515 C   0  0  0  0  0  0  0  0  0  0  0  0
    6.4594   -0.2049  -14.1725 C   0  0  0  0  0  0  0  0  0  0  0  0
    5.2890   -0.5807  -14.8499 C   0  0  0  0  0  0  0  0  0  0  0  0
    5.2222   -0.5848  -16.2282 C   0  0  0  0  0  0  0  0  0  0  0  0
    6.3140   -0.2102  -17.0246 C   0  0  0  0  0  0  0  0  0  0  0  0
    3.9884   -0.9796  -16.6245 O   0  0  0  0  0  0  0  0  0  0  0  0
    3.2653   -1.2040  -15.4469 C   0  0  0  0  0  0  0  0  0  0  0  0
    4.0958   -0.9740  -14.3368 O   0  0  0  0  0  0  0  0  0  0  0  0
    9.7337    2.4045  -16.0045 N   0  0  0  0  0  0  0  0  0  0  0  0
    9.7760    3.7326  -15.4155 C   0  0  1  0  0  0  0  0  0  0  0  0
    8.7488    3.7803  -14.2646 C   0  0  0  0  0  0  0  0  0  0  0  0
    8.8208    5.0958  -13.4836 C   0  0  0  0  0  0  0  0  0  0  0  0
   10.2471    5.3340  -12.9509 C   0  0  2  0  0  0  0  0  0  0  0  0
   10.3612    6.6057  -12.0917 C   0  0  0  0  0  0  0  0  0  0  0  0
    9.7138    6.4167  -10.7066 C   0  0  0  0  0  0  0  0  0  0  0  0
    9.8985    7.5586   -9.7744 N   0  0  2  0  0  0  0  0  0  0  0  0
   11.3154    7.8217   -9.4098 C   0  0  0  0  0  0  0  0  0  0  0  0
   11.4758    9.0055   -8.4451 C   0  0  0  0  0  0  0  0  0  0  0  0
   10.5501    8.9328   -7.2134 C   0  0  2  0  0  0  0  0  0  0  0  0
   11.0719    8.0283   -6.1274 C   0  0  0  0  0  0  0  0  0  0  0  0
   11.2550    6.6625   -6.1478 C   0  0  0  0  0  0  0  0  0  0  0  0
   11.6861    6.1723   -4.9534 O   0  0  0  0  0  0  0  0  0  0  0  0
   11.8581    7.2488   -4.1241 C   0  0  0  0  0  0  0  0  0  0  0  0
   12.3287    7.2295   -2.8025 C   0  0  0  0  0  0  0  0  0  0  0  0
   12.4530    8.4533   -2.1242 C   0  0  0  0  0  0  0  0  0  0  0  0
   12.0813    9.6447   -2.7766 C   0  0  0  0  0  0  0  0  0  0  0  0
   11.5964    9.6402   -4.0986 C   0  0  0  0  0  0  0  0  0  0  0  0
   11.4905    8.4307   -4.8139 C   0  0  0  0  0  0  0  0  0  0  0  0
    9.1160    8.5768   -7.6401 C   0  0  0  0  0  0  0  0  0  0  0  0
    9.0889    7.3460   -8.5548 C   0  0  0  0  0  0  0  0  0  0  0  0
   11.2569    5.3354  -14.1158 C   0  0  0  0  0  0  0  0  0  0  0  0
   11.1982    4.0176  -14.9026 C   0  0  0  0  0  0  0  0  0  0  0  0
    9.5909   -0.0223  -16.8775 H   0  0  0  0  0  0  0  0  0  0  0  0
    8.5632    0.3126  -18.2558 H   0  0  0  0  0  0  0  0  0  0  0  0
    8.4916    0.4507  -14.4500 H   0  0  0  0  0  0  0  0  0  0  0  0
    6.5057   -0.2099  -13.0935 H   0  0  0  0  0  0  0  0  0  0  0  0
    6.2352   -0.2241  -18.1015 H   0  0  0  0  0  0  0  0  0  0  0  0
    2.8961   -2.2276  -15.4469 H   0  0  0  0  0  0  0  0  0  0  0  0
    2.4199   -0.5187  -15.4069 H   0  0  0  0  0  0  0  0  0  0  0  0
   10.1333    1.6621  -15.4503 H   0  0  0  0  0  0  0  0  0  0  0  0
    9.5176    4.4906  -16.1584 H   0  0  0  0  0  0  0  0  0  0  0  0
    7.7379    3.6361  -14.6467 H   0  0  0  0  0  0  0  0  0  0  0  0
    8.9284    2.9536  -13.5747 H   0  0  0  0  0  0  0  0  0  0  0  0
    8.5059    5.9177  -14.1261 H   0  0  0  0  0  0  0  0  0  0  0  0
    8.1010    5.0545  -12.6661 H   0  0  0  0  0  0  0  0  0  0  0  0
   10.4964    4.4836  -12.3147 H   0  0  0  0  0  0  0  0  0  0  0  0
   11.4198    6.8341  -11.9858 H   0  0  0  0  0  0  0  0  0  0  0  0
    9.9181    7.4576  -12.6080 H   0  0  0  0  0  0  0  0  0  0  0  0
    8.6427    6.2663  -10.8465 H   0  0  0  0  0  0  0  0  0  0  0  0
   10.0860    5.5082  -10.2318 H   0  0  0  0  0  0  0  0  0  0  0  0
   11.6947    6.9320   -8.9312 H   0  0  0  0  0  0  0  0  0  0  0  0
   11.9305    8.0108  -10.2864 H   0  0  0  0  0  0  0  0  0  0  0  0
   12.5154    9.0823   -8.1243 H   0  0  0  0  0  0  0  0  0  0  0  0
   11.2751    9.9166   -9.0073 H   0  0  0  0  0  0  0  0  0  0  0  0
   10.5096    9.9386   -6.7947 H   0  0  0  0  0  0  0  0  0  0  0  0
   11.1119    5.8943   -6.8908 H   0  0  0  0  0  0  0  0  0  0  0  0
   12.5879    6.2949   -2.3259 H   0  0  0  0  0  0  0  0  0  0  0  0
   12.8073    8.4828   -1.1039 H   0  0  0  0  0  0  0  0  0  0  0  0
   12.1215   10.5785   -2.2466 H   0  0  0  0  0  0  0  0  0  0  0  0
   11.3004   10.5681   -4.5651 H   0  0  0  0  0  0  0  0  0  0  0  0
    8.4835    8.4180   -6.7655 H   0  0  0  0  0  0  0  0  0  0  0  0
    8.6751    9.4144   -8.1824 H   0  0  0  0  0  0  0  0  0  0  0  0
    8.0860    7.1133   -8.8554 H   0  0  0  0  0  0  0  0  0  0  0  0
    9.4104    6.4501   -8.0331 H   0  0  0  0  0  0  0  0  0  0  0  0
   11.0543    6.1720  -14.7844 H   0  0  0  0  0  0  0  0  0  0  0  0
   12.2703    5.4794  -13.7398 H   0  0  0  0  0  0  0  0  0  0  0  0
   11.5309    3.2024  -14.2567 H   0  0  0  0  0  0  0  0  0  0  0  0
   11.8971    4.0522  -15.7392 H   0  0  0  0  0  0  0  0  0  0  0  0
    9.5238    8.3789  -10.2310 H   0  0  0  0  0  0  0  0  0  0  0  0
  2  1  2  0
  3  2  1  0
  4  3  1  0
  5  4  1  0
  6  5  2  0
  7  6  1  0
  8  7  2  0
  9  4  2  0
  9  8  1  0
 10  8  1  0
 11 10  1  0
 12  7  1  0
 12 11  1  0
 13  2  1  0
 14 13  1  0
 15 14  1  0
 16 15  1  0
 17 16  1  0
 18 17  1  0
 19 18  1  0
 20 19  1  0
 21 20  1  0
 22 21  1  0
 23 22  1  0
 24 23  1  0
 25 24  2  0
 26 25  1  0
 27 26  1  0
 28 27  2  0
 29 28  1  0
 30 29  2  0
 31 30  1  0
 32 24  1  0
 32 27  1  0
 32 31  2  0
 33 23  1  0
 34 20  1  0
 34 33  1  0
 35 17  1  0
 36 14  1  0
 36 35  1  0
 37  3  1  0
 38  3  1  0
 39  5  1  0
 40  6  1  0
 41  9  1  0
 42 11  1  0
 43 11  1  0
 44 13  1  0
 14 45  1  6
 46 15  1  0
 47 15  1  0
 48 16  1  0
 49 16  1  0
 17 50  1  1
 51 18  1  0
 52 18  1  0
 53 19  1  0
 54 19  1  0
 55 21  1  0
 56 21  1  0
 57 22  1  0
 58 22  1  0
 23 59  1  1
 60 25  1  0
 61 28  1  0
 62 29  1  0
 63 30  1  0
 64 31  1  0
 65 33  1  0
 66 33  1  0
 67 34  1  0
 68 34  1  0
 69 35  1  0
 70 35  1  0
 71 36  1  0
 72 36  1  0
 20 73  1  6
M  CHG  1  20   1
M  END
>  <b_m_subgroup_collapsed>  (117) 
0

>  <r_i_docking_score>  (117) 
-8.9580817863631506

>  <s_m_subgroup_title>  (117) 
glide-dock_SP_D22_pv

>  <s_m_subgroupid>  (117) 
glide-dock_SP_D22_pv

>  <Molecule ChEMBL ID>  (117) 
CHEMBL3676919

>  <Standard Type>  (117) 
Ki

>  <Standard Value>  (117) 
92.47

>  <label>  (117) 
1

$$$$
CHEMBL5208845
     RDKit          3D

 46 47  0  0  1  0  0  0  0  0999 V2000
   12.1240    8.9814   -7.4955 C   0  0  0  0  0  0  0  0  0  0  0  0
   10.8882    8.8487   -6.5869 C   0  0  1  0  0  0  0  0  0  0  0  0
    9.8031    8.0898   -7.2236 N   0  0  0  0  0  0  0  0  0  0  0  0
    9.9282    6.9340   -7.8955 C   0  0  0  0  0  0  0  0  0  0  0  0
   10.8860    6.1722   -7.7979 O   0  0  0  0  0  0  0  0  0  0  0  0
    8.8860    6.7047   -8.8560 N   0  0  0  0  0  0  0  0  0  0  0  0
    8.8446    5.6947   -9.7556 C   0  0  0  0  0  0  0  0  0  0  0  0
    9.6860    4.6471   -9.7467 N   0  0  0  0  0  0  0  0  0  0  0  0
    7.9103    5.7693  -10.7116 N   0  0  0  0  0  0  0  0  0  0  0  0
    7.6177    4.8074  -11.7776 C   0  0  0  0  0  0  0  0  0  0  0  0
    6.2076    5.0595  -12.3235 C   0  0  0  0  0  0  0  0  0  0  0  0
    5.8717    4.2696  -13.5946 C   0  0  0  0  0  0  0  0  0  0  0  0
    5.9091    2.7826  -13.4468 C   0  0  0  0  0  0  0  0  0  0  0  0
    5.1070    2.1334  -12.6000 N   0  0  0  0  0  0  0  0  0  0  0  0
    5.2862    0.7595  -12.6476 N   0  0  0  0  0  0  0  0  0  0  0  0
    6.1704    0.4029  -13.5789 C   0  0  0  0  0  0  0  0  0  0  0  0
    6.4861   -0.9150  -13.8473 N   0  0  0  0  0  0  0  0  0  0  0  0
    6.9439    1.7378  -14.4225 S   0  0  0  0  0  0  0  0  0  0  0  0
   11.2812    8.4428   -5.1673 C   0  0  0  0  0  0  0  0  0  0  0  0
   11.6852    9.4617   -4.2780 C   0  0  0  0  0  0  0  0  0  0  0  0
   12.0863    9.1585   -2.9648 C   0  0  0  0  0  0  0  0  0  0  0  0
   12.0913    7.8240   -2.5240 C   0  0  0  0  0  0  0  0  0  0  0  0
   11.6901    6.7974   -3.3996 C   0  0  0  0  0  0  0  0  0  0  0  0
   11.2865    7.1014   -4.7162 C   0  0  0  0  0  0  0  0  0  0  0  0
   12.8558    9.6551   -7.0469 H   0  0  0  0  0  0  0  0  0  0  0  0
   12.6231    8.0304   -7.6620 H   0  0  0  0  0  0  0  0  0  0  0  0
   11.8498    9.3725   -8.4760 H   0  0  0  0  0  0  0  0  0  0  0  0
   10.4792    9.8558   -6.5001 H   0  0  0  0  0  0  0  0  0  0  0  0
    8.9285    8.5871   -7.3202 H   0  0  0  0  0  0  0  0  0  0  0  0
   10.4194    4.6001   -9.0513 H   0  0  0  0  0  0  0  0  0  0  0  0
    9.6114    3.9195  -10.4418 H   0  0  0  0  0  0  0  0  0  0  0  0
    7.2542    6.5569  -10.6470 H   0  0  0  0  0  0  0  0  0  0  0  0
    8.3642    4.9149  -12.5647 H   0  0  0  0  0  0  0  0  0  0  0  0
    7.6873    3.7915  -11.3921 H   0  0  0  0  0  0  0  0  0  0  0  0
    5.4731    4.8228  -11.5525 H   0  0  0  0  0  0  0  0  0  0  0  0
    6.0854    6.1244  -12.5356 H   0  0  0  0  0  0  0  0  0  0  0  0
    4.8883    4.5585  -13.9636 H   0  0  0  0  0  0  0  0  0  0  0  0
    6.5896    4.5558  -14.3586 H   0  0  0  0  0  0  0  0  0  0  0  0
    6.0825   -1.6654  -13.3043 H   0  0  0  0  0  0  0  0  0  0  0  0
    7.0938   -1.1907  -14.6094 H   0  0  0  0  0  0  0  0  0  0  0  0
   11.6853   10.4901   -4.6055 H   0  0  0  0  0  0  0  0  0  0  0  0
   12.3920    9.9504   -2.2960 H   0  0  0  0  0  0  0  0  0  0  0  0
   12.4059    7.5907   -1.5183 H   0  0  0  0  0  0  0  0  0  0  0  0
   11.6902    5.7728   -3.0579 H   0  0  0  0  0  0  0  0  0  0  0  0
   10.9842    6.2893   -5.3575 H   0  0  0  0  0  0  0  0  0  0  0  0
    8.1003    7.3400   -8.9515 H   0  0  0  0  0  0  0  0  0  0  0  0
  2  1  1  0
  3  2  1  0
  4  3  1  0
  5  4  2  0
  6  4  1  0
  7  6  2  0
  8  7  1  0
  9  7  1  0
 10  9  1  0
 11 10  1  0
 12 11  1  0
 13 12  1  0
 14 13  2  0
 15 14  1  0
 16 15  2  0
 17 16  1  0
 18 13  1  0
 18 16  1  0
 19  2  1  0
 20 19  2  0
 21 20  1  0
 22 21  2  0
 23 22  1  0
 24 19  1  0
 24 23  2  0
 25  1  1  0
 26  1  1  0
 27  1  1  0
  2 28  1  1
 29  3  1  0
 30  8  1  0
 31  8  1  0
 32  9  1  0
 33 10  1  0
 34 10  1  0
 35 11  1  0
 36 11  1  0
 37 12  1  0
 38 12  1  0
 39 17  1  0
 40 17  1  0
 41 20  1  0
 42 21  1  0
 43 22  1  0
 44 23  1  0
 45 24  1  0
 46  6  1  0
M  CHG  1   6   1
M  END
>  <b_m_subgroup_collapsed>  (118) 
0

>  <r_i_docking_score>  (118) 
-8.9559998788853292

>  <s_m_subgroup_title>  (118) 
glide-dock_SP_D22_pv

>  <s_m_subgroupid>  (118) 
glide-dock_SP_D22_pv

>  <Molecule ChEMBL ID>  (118) 
CHEMBL5208845

>  <Standard Type>  (118) 
Ki

>  <Standard Value>  (118) 
10000.0

>  <label>  (118) 
0

$$$$
CHEMBL246232
     RDKit          3D

 51 54  0  0  1  0  0  0  0  0999 V2000
    6.7614    7.6531  -12.6469 N   0  0  0  0  0  0  0  0  0  0  0  0
    7.7100    6.5270  -12.7493 C   0  0  0  0  0  0  0  0  0  0  0  0
    8.9145    6.4873  -11.7427 C   0  0  1  0  0  0  0  0  0  0  0  0
   10.0054    5.7290  -12.5306 C   0  0  0  0  0  0  0  0  0  0  0  0
    9.7600    4.3935  -12.9401 C   0  0  0  0  0  0  0  0  0  0  0  0
   10.5619    3.7763  -13.9176 C   0  0  0  0  0  0  0  0  0  0  0  0
   11.6304    4.4823  -14.4961 C   0  0  0  0  0  0  0  0  0  0  0  0
   12.4860    3.8099  -15.8326 Cl  0  0  0  0  0  0  0  0  0  0  0  0
   11.9561    5.7653  -14.0238 C   0  0  0  0  0  0  0  0  0  0  0  0
   11.1528    6.3840  -13.0469 C   0  0  0  0  0  0  0  0  0  0  0  0
    9.3447    7.9034  -11.2478 C   0  0  0  0  0  0  0  0  0  0  0  0
   10.4159    7.8813  -10.1280 C   0  0  0  0  0  0  0  0  0  0  0  0
   10.0114    7.0642   -8.9458 N   0  0  2  0  0  0  0  0  0  0  0  0
   11.0784    6.9929   -7.9015 C   0  0  0  0  0  0  0  0  0  0  0  0
   11.1219    8.0929   -6.8778 C   0  0  0  0  0  0  0  0  0  0  0  0
   11.2440    9.4374   -7.1093 C   0  0  0  0  0  0  0  0  0  0  0  0
   11.3998   10.1074   -5.9092 N   0  0  0  0  0  0  0  0  0  0  0  0
   11.4862    9.2121   -4.8666 C   0  0  0  0  0  0  0  0  0  0  0  0
   11.7554    9.3788   -3.4954 C   0  0  0  0  0  0  0  0  0  0  0  0
   11.8766    8.2467   -2.6715 C   0  0  0  0  0  0  0  0  0  0  0  0
   11.6860    6.9653   -3.2197 C   0  0  0  0  0  0  0  0  0  0  0  0
   11.3787    6.8106   -4.5881 C   0  0  0  0  0  0  0  0  0  0  0  0
   11.2860    7.9266   -5.4533 C   0  0  0  0  0  0  0  0  0  0  0  0
    9.6118    5.6954   -9.3721 C   0  0  0  0  0  0  0  0  0  0  0  0
    8.5237    5.7089  -10.4569 C   0  0  0  0  0  0  0  0  0  0  0  0
    5.9325    7.4783  -13.1948 H   0  0  0  0  0  0  0  0  0  0  0  0
    6.4860    7.7714  -11.6520 H   0  0  0  0  0  0  0  0  0  0  0  0
    8.0860    6.5723  -13.7721 H   0  0  0  0  0  0  0  0  0  0  0  0
    7.1428    5.5969  -12.6911 H   0  0  0  0  0  0  0  0  0  0  0  0
    8.8975    3.8511  -12.5830 H   0  0  0  0  0  0  0  0  0  0  0  0
   10.3183    2.7829  -14.2658 H   0  0  0  0  0  0  0  0  0  0  0  0
   12.7887    6.3023  -14.4554 H   0  0  0  0  0  0  0  0  0  0  0  0
   11.3976    7.4008  -12.7879 H   0  0  0  0  0  0  0  0  0  0  0  0
    8.4860    8.4265  -10.8301 H   0  0  0  0  0  0  0  0  0  0  0  0
    9.6692    8.5296  -12.0791 H   0  0  0  0  0  0  0  0  0  0  0  0
   10.6110    8.9058   -9.8185 H   0  0  0  0  0  0  0  0  0  0  0  0
   11.3588    7.4987  -10.5189 H   0  0  0  0  0  0  0  0  0  0  0  0
   12.0472    6.9723   -8.3940 H   0  0  0  0  0  0  0  0  0  0  0  0
   11.0030    6.0409   -7.3742 H   0  0  0  0  0  0  0  0  0  0  0  0
   11.2858    9.9827   -8.0379 H   0  0  0  0  0  0  0  0  0  0  0  0
   11.5315   11.1068   -5.8429 H   0  0  0  0  0  0  0  0  0  0  0  0
   11.9016   10.3635   -3.0751 H   0  0  0  0  0  0  0  0  0  0  0  0
   12.0998    8.3633   -1.6206 H   0  0  0  0  0  0  0  0  0  0  0  0
   11.7669    6.0926   -2.5868 H   0  0  0  0  0  0  0  0  0  0  0  0
   11.2508    5.8137   -4.9821 H   0  0  0  0  0  0  0  0  0  0  0  0
   10.4859    5.1535   -9.7292 H   0  0  0  0  0  0  0  0  0  0  0  0
    9.2349    5.1451   -8.5081 H   0  0  0  0  0  0  0  0  0  0  0  0
    7.6594    6.1723  -10.0014 H   0  0  0  0  0  0  0  0  0  0  0  0
    8.2122    4.6880  -10.6755 H   0  0  0  0  0  0  0  0  0  0  0  0
    7.2038    8.5083  -12.9456 H   0  0  0  0  0  0  0  0  0  0  0  0
    9.1923    7.4861   -8.5262 H   0  0  0  0  0  0  0  0  0  0  0  0
  2  1  1  0
  3  2  1  6
  4  3  1  0
  5  4  2  0
  6  5  1  0
  7  6  2  0
  8  7  1  0
  9  7  1  0
 10  4  1  0
 10  9  2  0
 11  3  1  0
 12 11  1  0
 13 12  1  0
 14 13  1  0
 15 14  1  0
 16 15  2  0
 17 16  1  0
 18 17  1  0
 19 18  2  0
 20 19  1  0
 21 20  2  0
 22 21  1  0
 23 15  1  0
 23 18  1  0
 23 22  2  0
 24 13  1  0
 25  3  1  0
 25 24  1  0
 26  1  1  0
 27  1  1  0
 28  2  1  0
 29  2  1  0
 30  5  1  0
 31  6  1  0
 32  9  1  0
 33 10  1  0
 34 11  1  0
 35 11  1  0
 36 12  1  0
 37 12  1  0
 38 14  1  0
 39 14  1  0
 40 16  1  0
 41 17  1  0
 42 19  1  0
 43 20  1  0
 44 21  1  0
 45 22  1  0
 46 24  1  0
 47 24  1  0
 48 25  1  0
 49 25  1  0
 50  1  1  0
 13 51  1  1
M  CHG  2   1   1  13   1
M  END
>  <b_m_subgroup_collapsed>  (119) 
0

>  <r_i_docking_score>  (119) 
-8.9502236273327807

>  <s_m_subgroup_title>  (119) 
glide-dock_SP_D22_pv

>  <s_m_subgroupid>  (119) 
glide-dock_SP_D22_pv

>  <Molecule ChEMBL ID>  (119) 
CHEMBL246232

>  <Standard Type>  (119) 
Ki

>  <Standard Value>  (119) 
10000.0

>  <label>  (119) 
0

$$$$
CHEMBL4590085
     RDKit          3D

 50 52  0  0  1  0  0  0  0  0999 V2000
   11.6038    8.3789   -7.6217 O   0  0  0  0  0  0  0  0  0  0  0  0
   10.8372    8.2490   -6.6699 C   0  0  0  0  0  0  0  0  0  0  0  0
    9.3346    8.0899   -6.9011 C   0  0  0  0  0  0  0  0  0  0  0  0
    8.9015    6.6149   -6.9308 C   0  0  0  0  0  0  0  0  0  0  0  0
    9.5229    5.7616   -8.0532 C   0  0  0  0  0  0  0  0  0  0  0  0
    8.9729    6.1030   -9.3865 N   0  0  2  0  0  0  0  0  0  0  0  0
    8.6180    4.9015  -10.1748 C   0  0  0  0  0  0  0  0  0  0  0  0
    7.7521    5.3172  -11.3610 C   0  0  0  0  0  0  0  0  0  0  0  0
    8.4940    6.3083  -12.2849 C   0  0  2  0  0  0  0  0  0  0  0  0
    7.4713    6.9526  -13.0061 O   0  0  0  0  0  0  0  0  0  0  0  0
    9.4412    5.5562  -13.2358 C   0  0  0  0  0  0  0  0  0  0  0  0
    8.8887    4.6422  -14.1637 C   0  0  0  0  0  0  0  0  0  0  0  0
    9.7050    3.9576  -15.0833 C   0  0  0  0  0  0  0  0  0  0  0  0
   11.0922    4.1830  -15.0952 C   0  0  0  0  0  0  0  0  0  0  0  0
   12.0854    3.3675  -16.2457 Cl  0  0  0  0  0  0  0  0  0  0  0  0
   11.6612    5.0863  -14.1788 C   0  0  0  0  0  0  0  0  0  0  0  0
   10.8423    5.7697  -13.2574 C   0  0  0  0  0  0  0  0  0  0  0  0
    9.1528    7.4599  -11.4724 C   0  0  0  0  0  0  0  0  0  0  0  0
    9.8507    6.9984  -10.1828 C   0  0  0  0  0  0  0  0  0  0  0  0
   11.2861    8.2138   -5.2684 C   0  0  0  0  0  0  0  0  0  0  0  0
   11.6139    6.9882   -4.6465 C   0  0  0  0  0  0  0  0  0  0  0  0
   12.0861    6.9735   -3.3191 C   0  0  0  0  0  0  0  0  0  0  0  0
   12.2450    8.1837   -2.6181 C   0  0  0  0  0  0  0  0  0  0  0  0
   11.9336    9.4027   -3.2478 C   0  0  0  0  0  0  0  0  0  0  0  0
   12.0861   10.5684   -2.5838 F   0  0  0  0  0  0  0  0  0  0  0  0
   11.4544    9.4232   -4.5685 C   0  0  0  0  0  0  0  0  0  0  0  0
   11.1497   10.6075   -5.1539 F   0  0  0  0  0  0  0  0  0  0  0  0
    9.0465    8.5972   -7.8210 H   0  0  0  0  0  0  0  0  0  0  0  0
    8.8073    8.6040   -6.0984 H   0  0  0  0  0  0  0  0  0  0  0  0
    7.8157    6.5554   -6.9845 H   0  0  0  0  0  0  0  0  0  0  0  0
    9.1542    6.1724   -5.9683 H   0  0  0  0  0  0  0  0  0  0  0  0
    9.2804    4.7216   -7.8395 H   0  0  0  0  0  0  0  0  0  0  0  0
   10.6133    5.8005   -8.0520 H   0  0  0  0  0  0  0  0  0  0  0  0
    8.0705    4.1879   -9.5617 H   0  0  0  0  0  0  0  0  0  0  0  0
    9.5207    4.3878  -10.5114 H   0  0  0  0  0  0  0  0  0  0  0  0
    6.8436    5.7725  -10.9682 H   0  0  0  0  0  0  0  0  0  0  0  0
    7.4086    4.4370  -11.9043 H   0  0  0  0  0  0  0  0  0  0  0  0
    6.8922    7.3672  -12.3769 H   0  0  0  0  0  0  0  0  0  0  0  0
    7.8218    4.4747  -14.1877 H   0  0  0  0  0  0  0  0  0  0  0  0
    9.2631    3.2691  -15.7881 H   0  0  0  0  0  0  0  0  0  0  0  0
   12.7266    5.2668  -14.1899 H   0  0  0  0  0  0  0  0  0  0  0  0
   11.3193    6.4698  -12.5914 H   0  0  0  0  0  0  0  0  0  0  0  0
    9.8233    8.0513  -12.0961 H   0  0  0  0  0  0  0  0  0  0  0  0
    8.3975    8.1794  -11.1619 H   0  0  0  0  0  0  0  0  0  0  0  0
   10.1122    7.8832   -9.6095 H   0  0  0  0  0  0  0  0  0  0  0  0
   10.7888    6.4922  -10.4038 H   0  0  0  0  0  0  0  0  0  0  0  0
   11.5078    6.0564   -5.1830 H   0  0  0  0  0  0  0  0  0  0  0  0
   12.3260    6.0349   -2.8406 H   0  0  0  0  0  0  0  0  0  0  0  0
   12.6060    8.1809   -1.6001 H   0  0  0  0  0  0  0  0  0  0  0  0
    8.1015    6.6002   -9.2259 H   0  0  0  0  0  0  0  0  0  0  0  0
  2  1  2  0
  3  2  1  0
  4  3  1  0
  5  4  1  0
  6  5  1  0
  7  6  1  0
  8  7  1  0
  9  8  1  0
  9 10  1  6
 11  9  1  0
 12 11  2  0
 13 12  1  0
 14 13  2  0
 15 14  1  0
 16 14  1  0
 17 11  1  0
 17 16  2  0
 18  9  1  0
 19  6  1  0
 19 18  1  0
 20  2  1  0
 21 20  2  0
 22 21  1  0
 23 22  2  0
 24 23  1  0
 25 24  1  0
 26 20  1  0
 26 24  2  0
 27 26  1  0
 28  3  1  0
 29  3  1  0
 30  4  1  0
 31  4  1  0
 32  5  1  0
 33  5  1  0
 34  7  1  0
 35  7  1  0
 36  8  1  0
 37  8  1  0
 38 10  1  0
 39 12  1  0
 40 13  1  0
 41 16  1  0
 42 17  1  0
 43 18  1  0
 44 18  1  0
 45 19  1  0
 46 19  1  0
 47 21  1  0
 48 22  1  0
 49 23  1  0
  6 50  1  1
M  CHG  1   6   1
M  END
>  <b_m_subgroup_collapsed>  (120) 
0

>  <r_i_docking_score>  (120) 
-8.9428493622709908

>  <s_m_subgroup_title>  (120) 
glide-dock_SP_D22_pv

>  <s_m_subgroupid>  (120) 
glide-dock_SP_D22_pv

>  <Molecule ChEMBL ID>  (120) 
CHEMBL4590085

>  <Standard Type>  (120) 
Ki

>  <Standard Value>  (120) 
46.77

>  <label>  (120) 
1

$$$$
CHEMBL461627
     RDKit          3D

 55 59  0  0  1  0  0  0  0  0999 V2000
    5.8295   -0.8470  -16.0757 C   0  0  0  0  0  0  0  0  0  0  0  0
    6.6860    0.2357  -15.7496 O   0  0  0  0  0  0  0  0  0  0  0  0
    6.4852    0.9005  -14.6010 C   0  0  0  0  0  0  0  0  0  0  0  0
    5.6518    0.5840  -13.7494 O   0  0  0  0  0  0  0  0  0  0  0  0
    7.3364    2.1027  -14.4693 C   0  0  0  0  0  0  0  0  0  0  0  0
    8.5519    2.2284  -15.0917 C   0  0  0  0  0  0  0  0  0  0  0  0
    9.1522    3.4101  -14.7722 O   0  0  0  0  0  0  0  0  0  0  0  0
    8.2938    4.0422  -13.9306 C   0  0  0  0  0  0  0  0  0  0  0  0
    7.1567    3.3194  -13.7439 C   0  0  0  0  0  0  0  0  0  0  0  0
    6.0866    3.8829  -12.8948 C   0  0  0  0  0  0  0  0  0  0  0  0
    5.0509    3.2745  -12.6472 O   0  0  0  0  0  0  0  0  0  0  0  0
    6.2989    5.3176  -12.3730 C   0  0  0  0  0  0  0  0  0  0  0  0
    7.7873    5.7317  -12.1647 C   0  0  1  0  0  0  0  0  0  0  0  0
    8.3696    5.1354  -10.8551 C   0  0  0  0  0  0  0  0  0  0  0  0
    8.6701    6.1720   -9.8311 N   0  0  2  0  0  0  0  0  0  0  0  0
    9.9372    6.8941  -10.1407 C   0  0  0  0  0  0  0  0  0  0  0  0
   10.3134    7.9324   -9.0701 C   0  0  0  0  0  0  0  0  0  0  0  0
   10.3536    7.3037   -7.6603 C   0  0  1  0  0  0  0  0  0  0  0  0
   10.7387    8.2814   -6.5763 C   0  0  0  0  0  0  0  0  0  0  0  0
   10.4865    9.5793   -6.7014 N   0  0  0  0  0  0  0  0  0  0  0  0
   10.9088   10.2334   -5.5125 O   0  0  0  0  0  0  0  0  0  0  0  0
   11.4128    9.2923   -4.6350 C   0  0  0  0  0  0  0  0  0  0  0  0
   11.9317    9.4117   -3.3399 C   0  0  0  0  0  0  0  0  0  0  0  0
   12.3127    8.2279   -2.6794 C   0  0  0  0  0  0  0  0  0  0  0  0
   12.8409    8.3000   -1.4402 F   0  0  0  0  0  0  0  0  0  0  0  0
   12.1485    6.9708   -3.3074 C   0  0  0  0  0  0  0  0  0  0  0  0
   11.6498    6.8797   -4.6269 C   0  0  0  0  0  0  0  0  0  0  0  0
   11.2858    8.0671   -5.2956 C   0  0  0  0  0  0  0  0  0  0  0  0
    8.9921    6.6587   -7.3872 C   0  0  0  0  0  0  0  0  0  0  0  0
    8.6685    5.6033   -8.4570 C   0  0  0  0  0  0  0  0  0  0  0  0
    8.6669    5.3722  -13.3874 C   0  0  0  0  0  0  0  0  0  0  0  0
    6.1427   -1.3004  -17.0172 H   0  0  0  0  0  0  0  0  0  0  0  0
    5.8684   -1.6159  -15.3014 H   0  0  0  0  0  0  0  0  0  0  0  0
    4.7975   -0.5089  -16.1822 H   0  0  0  0  0  0  0  0  0  0  0  0
    9.1244    1.5907  -15.7504 H   0  0  0  0  0  0  0  0  0  0  0  0
    5.8338    5.9941  -13.0885 H   0  0  0  0  0  0  0  0  0  0  0  0
    5.7392    5.4486  -11.4469 H   0  0  0  0  0  0  0  0  0  0  0  0
    7.7986    6.8192  -12.0769 H   0  0  0  0  0  0  0  0  0  0  0  0
    7.6687    4.4128  -10.4411 H   0  0  0  0  0  0  0  0  0  0  0  0
    9.2690    4.5486  -11.0480 H   0  0  0  0  0  0  0  0  0  0  0  0
   10.7477    6.1731  -10.2367 H   0  0  0  0  0  0  0  0  0  0  0  0
    9.8537    7.3912  -11.1073 H   0  0  0  0  0  0  0  0  0  0  0  0
   11.2796    8.3761   -9.3147 H   0  0  0  0  0  0  0  0  0  0  0  0
    9.5856    8.7464   -9.0963 H   0  0  0  0  0  0  0  0  0  0  0  0
   11.1019    6.5113   -7.6675 H   0  0  0  0  0  0  0  0  0  0  0  0
   12.0276   10.3732   -2.8585 H   0  0  0  0  0  0  0  0  0  0  0  0
   12.4313    6.0717   -2.7801 H   0  0  0  0  0  0  0  0  0  0  0  0
   11.5385    5.9177   -5.1025 H   0  0  0  0  0  0  0  0  0  0  0  0
    8.9959    6.1878   -6.4030 H   0  0  0  0  0  0  0  0  0  0  0  0
    8.2139    7.4224   -7.3549 H   0  0  0  0  0  0  0  0  0  0  0  0
    7.6856    5.1843   -8.2413 H   0  0  0  0  0  0  0  0  0  0  0  0
    9.3872    4.7848   -8.3993 H   0  0  0  0  0  0  0  0  0  0  0  0
    9.7313    5.4202  -13.1531 H   0  0  0  0  0  0  0  0  0  0  0  0
    8.4866    6.1096  -14.1664 H   0  0  0  0  0  0  0  0  0  0  0  0
    7.8995    6.8447   -9.8602 H   0  0  0  0  0  0  0  0  0  0  0  0
  2  1  1  0
  3  2  1  0
  4  3  2  0
  5  3  1  0
  6  5  2  0
  7  6  1  0
  8  7  1  0
  9  5  1  0
  9  8  2  0
 10  9  1  0
 11 10  2  0
 12 10  1  0
 13 12  1  0
 14 13  1  0
 15 14  1  0
 16 15  1  0
 17 16  1  0
 18 17  1  0
 19 18  1  0
 20 19  2  0
 21 20  1  0
 22 21  1  0
 23 22  2  0
 24 23  1  0
 25 24  1  0
 26 24  2  0
 27 26  1  0
 28 19  1  0
 28 22  1  0
 28 27  2  0
 29 18  1  0
 30 15  1  0
 30 29  1  0
 31  8  1  0
 31 13  1  0
 32  1  1  0
 33  1  1  0
 34  1  1  0
 35  6  1  0
 36 12  1  0
 37 12  1  0
 13 38  1  1
 39 14  1  0
 40 14  1  0
 41 16  1  0
 42 16  1  0
 43 17  1  0
 44 17  1  0
 18 45  1  6
 46 23  1  0
 47 26  1  0
 48 27  1  0
 49 29  1  0
 50 29  1  0
 51 30  1  0
 52 30  1  0
 53 31  1  0
 54 31  1  0
 15 55  1  1
M  CHG  1  15   1
M  END
>  <b_m_subgroup_collapsed>  (121) 
0

>  <r_i_docking_score>  (121) 
-8.9416537447224105

>  <s_m_subgroup_title>  (121) 
glide-dock_SP_D22_pv

>  <s_m_subgroupid>  (121) 
glide-dock_SP_D22_pv

>  <Molecule ChEMBL ID>  (121) 
CHEMBL461627

>  <Standard Type>  (121) 
Ki

>  <Standard Value>  (121) 
85.11

>  <label>  (121) 
1

$$$$
CHEMBL5958700
     RDKit          3D

 61 64  0  0  1  0  0  0  0  0999 V2000
    5.1852   -2.1808  -18.9004 C   0  0  0  0  0  0  0  0  0  0  0  0
    5.1789   -1.5118  -17.5960 N   0  0  0  0  0  0  0  0  0  0  0  0
    4.1292   -1.8276  -16.7115 C   0  0  0  0  0  0  0  0  0  0  0  0
    3.9980   -1.3210  -15.5220 N   0  0  0  0  0  0  0  0  0  0  0  0
    4.9317   -0.3657  -15.1012 C   0  0  0  0  0  0  0  0  0  0  0  0
    4.7607    0.2516  -13.8476 C   0  0  0  0  0  0  0  0  0  0  0  0
    5.6173    1.2951  -13.4464 C   0  0  0  0  0  0  0  0  0  0  0  0
    6.6689    1.7214  -14.2944 C   0  0  0  0  0  0  0  0  0  0  0  0
    7.4943    2.7855  -14.0236 O   0  0  0  0  0  0  0  0  0  0  0  0
    7.0266    3.7723  -13.1175 C   0  0  0  0  0  0  0  0  0  0  0  0
    8.0869    4.8706  -13.0778 C   0  0  0  0  0  0  0  0  0  0  0  0
    7.9011    5.8426  -11.9074 C   0  0  0  0  0  0  0  0  0  0  0  0
    8.3662    5.2439  -10.5576 C   0  0  0  0  0  0  0  0  0  0  0  0
    8.4869    6.2553   -9.4777 N   0  0  0  0  0  0  0  0  0  0  0  0
    9.6327    7.1723   -9.7519 C   0  0  0  0  0  0  0  0  0  0  0  0
    9.9742    8.1286   -8.6043 C   0  0  0  0  0  0  0  0  0  0  0  0
   10.0861    7.4268   -7.3276 N   0  0  0  0  0  0  0  0  0  0  0  0
   10.8631    7.9825   -6.2792 C   0  0  0  0  0  0  0  0  0  0  0  0
   11.5028    9.2354   -6.4460 C   0  0  0  0  0  0  0  0  0  0  0  0
   12.3257    9.7693   -5.4462 C   0  0  0  0  0  0  0  0  0  0  0  0
   12.4852    9.0974   -4.2240 C   0  0  0  0  0  0  0  0  0  0  0  0
   11.8385    7.8629   -4.0070 C   0  0  0  0  0  0  0  0  0  0  0  0
   12.0051    7.1454   -2.6688 C   0  0  0  0  0  0  0  0  0  0  0  0
   12.8860    6.1724   -2.7760 F   0  0  0  0  0  0  0  0  0  0  0  0
   12.4287    7.9980   -1.7366 F   0  0  0  0  0  0  0  0  0  0  0  0
   10.8861    6.5724   -2.2467 F   0  0  0  0  0  0  0  0  0  0  0  0
   11.0616    7.2984   -5.0472 C   0  0  0  0  0  0  0  0  0  0  0  0
    8.8841    6.6657   -7.0162 C   0  0  0  0  0  0  0  0  0  0  0  0
    8.5956    5.6347   -8.1279 C   0  0  0  0  0  0  0  0  0  0  0  0
    6.8860    1.0514  -15.5131 C   0  0  0  0  0  0  0  0  0  0  0  0
    6.0090    0.0294  -15.9296 C   0  0  0  0  0  0  0  0  0  0  0  0
    6.1449   -0.6165  -17.2783 C   0  0  0  0  0  0  0  0  0  0  0  0
    7.0678   -0.3082  -18.0353 O   0  0  0  0  0  0  0  0  0  0  0  0
    4.9376   -1.4667  -19.6886 H   0  0  0  0  0  0  0  0  0  0  0  0
    6.1731   -2.5911  -19.1198 H   0  0  0  0  0  0  0  0  0  0  0  0
    4.4762   -3.0093  -18.9690 H   0  0  0  0  0  0  0  0  0  0  0  0
    3.4135   -2.5474  -17.1090 H   0  0  0  0  0  0  0  0  0  0  0  0
    3.9356   -0.0393  -13.2172 H   0  0  0  0  0  0  0  0  0  0  0  0
    5.4293    1.7717  -12.4965 H   0  0  0  0  0  0  0  0  0  0  0  0
    6.8856    3.3722  -12.1165 H   0  0  0  0  0  0  0  0  0  0  0  0
    6.0693    4.1785  -13.4479 H   0  0  0  0  0  0  0  0  0  0  0  0
    8.0692    5.4151  -14.0228 H   0  0  0  0  0  0  0  0  0  0  0  0
    9.0796    4.4226  -13.0178 H   0  0  0  0  0  0  0  0  0  0  0  0
    6.8633    6.1721  -11.8462 H   0  0  0  0  0  0  0  0  0  0  0  0
    8.4755    6.7298  -12.1642 H   0  0  0  0  0  0  0  0  0  0  0  0
    9.3305    4.7481  -10.6821 H   0  0  0  0  0  0  0  0  0  0  0  0
    7.6857    4.4556  -10.2473 H   0  0  0  0  0  0  0  0  0  0  0  0
    9.4459    7.7841  -10.6320 H   0  0  0  0  0  0  0  0  0  0  0  0
   10.5198    6.5750   -9.9668 H   0  0  0  0  0  0  0  0  0  0  0  0
    9.2174    8.9097   -8.5219 H   0  0  0  0  0  0  0  0  0  0  0  0
   10.9115    8.6059   -8.8840 H   0  0  0  0  0  0  0  0  0  0  0  0
   11.4050    9.8202   -7.3453 H   0  0  0  0  0  0  0  0  0  0  0  0
   12.8549   10.6839   -5.6492 H   0  0  0  0  0  0  0  0  0  0  0  0
   13.1101    9.5369   -3.4606 H   0  0  0  0  0  0  0  0  0  0  0  0
   10.6235    6.3273   -4.8724 H   0  0  0  0  0  0  0  0  0  0  0  0
    8.9388    6.1724   -6.0511 H   0  0  0  0  0  0  0  0  0  0  0  0
    8.0628    7.3756   -6.9366 H   0  0  0  0  0  0  0  0  0  0  0  0
    7.6863    5.0905   -7.8918 H   0  0  0  0  0  0  0  0  0  0  0  0
    9.3996    4.8985   -8.1432 H   0  0  0  0  0  0  0  0  0  0  0  0
    7.6947    1.3718  -16.1554 H   0  0  0  0  0  0  0  0  0  0  0  0
    7.6340    6.8211   -9.4964 H   0  0  0  0  0  0  0  0  0  0  0  0
  2  1  1  0
  3  2  1  0
  4  3  2  0
  5  4  1  0
  6  5  2  0
  7  6  1  0
  8  7  2  0
  9  8  1  0
 10  9  1  0
 11 10  1  0
 12 11  1  0
 13 12  1  0
 14 13  1  0
 15 14  1  0
 16 15  1  0
 17 16  1  0
 18 17  1  0
 19 18  1  0
 20 19  2  0
 21 20  1  0
 22 21  2  0
 23 22  1  0
 24 23  1  0
 25 23  1  0
 26 23  1  0
 27 18  2  0
 27 22  1  0
 28 17  1  0
 29 14  1  0
 29 28  1  0
 30  8  1  0
 31  5  1  0
 31 30  2  0
 32  2  1  0
 32 31  1  0
 33 32  2  0
 34  1  1  0
 35  1  1  0
 36  1  1  0
 37  3  1  0
 38  6  1  0
 39  7  1  0
 40 10  1  0
 41 10  1  0
 42 11  1  0
 43 11  1  0
 44 12  1  0
 45 12  1  0
 46 13  1  0
 47 13  1  0
 48 15  1  0
 49 15  1  0
 50 16  1  0
 51 16  1  0
 52 19  1  0
 53 20  1  0
 54 21  1  0
 55 27  1  0
 56 28  1  0
 57 28  1  0
 58 29  1  0
 59 29  1  0
 60 30  1  0
 61 14  1  0
M  CHG  1  14   1
M  END
>  <b_m_subgroup_collapsed>  (122) 
0

>  <r_i_docking_score>  (122) 
-8.9394886308574009

>  <s_m_subgroup_title>  (122) 
glide-dock_SP_D22_pv

>  <s_m_subgroupid>  (122) 
glide-dock_SP_D22_pv

>  <Molecule ChEMBL ID>  (122) 
CHEMBL5958700

>  <Standard Type>  (122) 
Ki

>  <Standard Value>  (122) 
24.8

>  <label>  (122) 
1

$$$$
CHEMBL418854
     RDKit          3D

 56 59  0  0  1  0  0  0  0  0999 V2000
    9.8800    4.0459  -18.8704 C   0  0  0  0  0  0  0  0  0  0  0  0
    9.5534    3.9471  -17.4926 O   0  0  0  0  0  0  0  0  0  0  0  0
    9.7698    2.7472  -16.8421 C   0  0  0  0  0  0  0  0  0  0  0  0
   10.3079    1.6044  -17.4896 C   0  0  0  0  0  0  0  0  0  0  0  0
   10.4663    0.3907  -16.7957 C   0  0  0  0  0  0  0  0  0  0  0  0
   10.0847    0.3000  -15.4475 C   0  0  0  0  0  0  0  0  0  0  0  0
    9.5577    1.4251  -14.7922 C   0  0  0  0  0  0  0  0  0  0  0  0
    9.4046    2.6533  -15.4714 C   0  0  0  0  0  0  0  0  0  0  0  0
    8.8878    3.7636  -14.7781 N   0  0  0  0  0  0  0  0  0  0  0  0
    7.7451    3.6303  -13.8837 C   0  0  0  0  0  0  0  0  0  0  0  0
    8.1349    4.0554  -12.4633 C   0  0  0  0  0  0  0  0  0  0  0  0
    8.7566    5.4585  -12.4253 C   0  0  0  0  0  0  0  0  0  0  0  0
    9.1943    5.8214  -11.0013 C   0  0  0  0  0  0  0  0  0  0  0  0
    8.0861    5.7724  -10.0155 N   0  0  0  0  0  0  0  0  0  0  0  0
    8.5363    5.5591   -8.6165 C   0  0  0  0  0  0  0  0  0  0  0  0
    8.9477    6.8270   -7.8270 C   0  0  2  0  0  0  0  0  0  0  0  0
    9.5799    7.9863   -8.6221 C   0  0  0  0  0  0  0  0  0  0  0  0
    9.8616    9.0689   -7.7448 O   0  0  0  0  0  0  0  0  0  0  0  0
   10.4863    8.7166   -6.5725 C   0  0  0  0  0  0  0  0  0  0  0  0
   11.0601    9.7185   -5.7645 C   0  0  0  0  0  0  0  0  0  0  0  0
   11.6873    9.3728   -4.5517 C   0  0  0  0  0  0  0  0  0  0  0  0
   11.7639    8.0241   -4.1575 C   0  0  0  0  0  0  0  0  0  0  0  0
   12.4860    7.6082   -2.6495 Cl  0  0  0  0  0  0  0  0  0  0  0  0
   11.2158    7.0174   -4.9743 C   0  0  0  0  0  0  0  0  0  0  0  0
   10.5380    7.3638   -6.1584 C   0  0  0  0  0  0  0  0  0  0  0  0
    9.9193    6.3784   -6.8877 O   0  0  0  0  0  0  0  0  0  0  0  0
    9.9786    5.4660  -13.3729 C   0  0  0  0  0  0  0  0  0  0  0  0
    9.5966    5.0365  -14.7979 C   0  0  0  0  0  0  0  0  0  0  0  0
    9.6366    5.0475  -19.2251 H   0  0  0  0  0  0  0  0  0  0  0  0
   10.9460    3.8864  -19.0395 H   0  0  0  0  0  0  0  0  0  0  0  0
    9.3061    3.3370  -19.4690 H   0  0  0  0  0  0  0  0  0  0  0  0
   10.6021    1.6291  -18.5273 H   0  0  0  0  0  0  0  0  0  0  0  0
   10.8742   -0.4724  -17.3009 H   0  0  0  0  0  0  0  0  0  0  0  0
   10.2003   -0.6277  -14.9104 H   0  0  0  0  0  0  0  0  0  0  0  0
    9.2850    1.3436  -13.7517 H   0  0  0  0  0  0  0  0  0  0  0  0
    6.9398    4.2690  -14.2469 H   0  0  0  0  0  0  0  0  0  0  0  0
    7.3525    2.6133  -13.8854 H   0  0  0  0  0  0  0  0  0  0  0  0
    7.2600    3.9847  -11.8164 H   0  0  0  0  0  0  0  0  0  0  0  0
    8.8864    3.3723  -12.0746 H   0  0  0  0  0  0  0  0  0  0  0  0
    8.0238    6.1875  -12.7749 H   0  0  0  0  0  0  0  0  0  0  0  0
    9.9864    5.1352  -10.6983 H   0  0  0  0  0  0  0  0  0  0  0  0
    9.6321    6.8172  -11.0165 H   0  0  0  0  0  0  0  0  0  0  0  0
    7.5064    6.6213  -10.0806 H   0  0  0  0  0  0  0  0  0  0  0  0
    7.7179    5.0879   -8.0718 H   0  0  0  0  0  0  0  0  0  0  0  0
    9.3424    4.8237   -8.6079 H   0  0  0  0  0  0  0  0  0  0  0  0
    8.0861    7.2064   -7.2774 H   0  0  0  0  0  0  0  0  0  0  0  0
   10.5038    7.6739   -9.1105 H   0  0  0  0  0  0  0  0  0  0  0  0
    8.8964    8.3517   -9.3885 H   0  0  0  0  0  0  0  0  0  0  0  0
   11.0079   10.7535   -6.0684 H   0  0  0  0  0  0  0  0  0  0  0  0
   12.1014   10.1430   -3.9182 H   0  0  0  0  0  0  0  0  0  0  0  0
   11.2582    5.9853   -4.6594 H   0  0  0  0  0  0  0  0  0  0  0  0
   10.4521    6.4479  -13.3911 H   0  0  0  0  0  0  0  0  0  0  0  0
   10.7381    4.7782  -12.9982 H   0  0  0  0  0  0  0  0  0  0  0  0
   10.4937    4.9850  -15.4164 H   0  0  0  0  0  0  0  0  0  0  0  0
    8.9355    5.7723  -15.2451 H   0  0  0  0  0  0  0  0  0  0  0  0
    7.4863    4.9921  -10.2468 H   0  0  0  0  0  0  0  0  0  0  0  0
  2  1  1  0
  3  2  1  0
  4  3  2  0
  5  4  1  0
  6  5  2  0
  7  6  1  0
  8  3  1  0
  8  7  2  0
  9  8  1  0
 10  9  1  0
 11 10  1  0
 12 11  1  0
 13 12  1  0
 14 13  1  0
 15 14  1  0
 16 15  1  0
 17 16  1  0
 18 17  1  0
 19 18  1  0
 20 19  1  0
 21 20  2  0
 22 21  1  0
 23 22  1  0
 24 22  2  0
 25 19  2  0
 25 24  1  0
 26 16  1  0
 26 25  1  0
 27 12  1  0
 28  9  1  0
 28 27  1  0
 29  1  1  0
 30  1  1  0
 31  1  1  0
 32  4  1  0
 33  5  1  0
 34  6  1  0
 35  7  1  0
 36 10  1  0
 37 10  1  0
 38 11  1  0
 39 11  1  0
 40 12  1  0
 41 13  1  0
 42 13  1  0
 43 14  1  0
 44 15  1  0
 45 15  1  0
 16 46  1  1
 47 17  1  0
 48 17  1  0
 49 20  1  0
 50 21  1  0
 51 24  1  0
 52 27  1  0
 53 27  1  0
 54 28  1  0
 55 28  1  0
 56 14  1  0
M  CHG  1  14   1
M  END
>  <b_m_subgroup_collapsed>  (123) 
0

>  <r_i_docking_score>  (123) 
-8.9302391018251708

>  <s_m_subgroup_title>  (123) 
glide-dock_SP_D22_pv

>  <s_m_subgroupid>  (123) 
glide-dock_SP_D22_pv

>  <Molecule ChEMBL ID>  (123) 
CHEMBL418854

>  <Standard Type>  (123) 
Ki

>  <Standard Value>  (123) 
13.2

>  <label>  (123) 
1

$$$$
CHEMBL5402212
     RDKit          3D

 63 65  0  0  1  0  0  0  0  0999 V2000
    5.3921   -0.8134  -17.0304 C   0  0  0  0  0  0  0  0  0  0  0  0
    4.6241   -0.7686  -15.7787 N   0  0  0  0  0  0  0  0  0  0  0  0
    3.3130   -1.4126  -15.8236 C   0  0  0  0  0  0  0  0  0  0  0  0
    5.0443   -0.1443  -14.6543 C   0  0  0  0  0  0  0  0  0  0  0  0
    4.4658   -0.2283  -13.5679 O   0  0  0  0  0  0  0  0  0  0  0  0
    6.0876    0.6812  -14.8513 N   0  0  0  0  0  0  0  0  0  0  0  0
    6.6180    1.6182  -13.8689 C   0  0  1  0  0  0  0  0  0  0  0  0
    7.8666    2.3464  -14.4194 C   0  0  0  0  0  0  0  0  0  0  0  0
    8.4170    3.4396  -13.4701 C   0  0  0  0  0  0  0  0  0  0  0  0
    7.3114    4.3893  -12.9491 C   0  0  2  0  0  0  0  0  0  0  0  0
    7.7977    5.4991  -11.9969 C   0  0  0  0  0  0  0  0  0  0  0  0
    8.3413    5.0196  -10.6341 C   0  0  0  0  0  0  0  0  0  0  0  0
    8.4887    6.1277   -9.6515 N   0  0  0  0  0  0  0  0  0  0  0  0
    9.6190    7.0183  -10.0172 C   0  0  0  0  0  0  0  0  0  0  0  0
    9.8947    8.0950   -8.9637 C   0  0  0  0  0  0  0  0  0  0  0  0
   10.0670    7.5054   -7.6382 N   0  0  0  0  0  0  0  0  0  0  0  0
   10.7918    8.2150   -6.6515 C   0  0  0  0  0  0  0  0  0  0  0  0
   11.3341    9.4945   -6.9163 C   0  0  0  0  0  0  0  0  0  0  0  0
   12.0573   10.1653   -5.9217 C   0  0  0  0  0  0  0  0  0  0  0  0
   12.2387    9.5355   -4.6855 C   0  0  0  0  0  0  0  0  0  0  0  0
   11.6885    8.2599   -4.4924 C   0  0  0  0  0  0  0  0  0  0  0  0
   11.9709    7.5536   -3.1779 C   0  0  0  0  0  0  0  0  0  0  0  0
   13.2613    7.2654   -3.1147 F   0  0  0  0  0  0  0  0  0  0  0  0
   11.6860    8.3631   -2.1632 F   0  0  0  0  0  0  0  0  0  0  0  0
   11.2860    6.4285   -3.0341 F   0  0  0  0  0  0  0  0  0  0  0  0
   10.9787    7.6125   -5.4498 N   0  0  0  0  0  0  0  0  0  0  0  0
    8.9432    6.6769   -7.2110 C   0  0  0  0  0  0  0  0  0  0  0  0
    8.6106    5.5991   -8.2624 C   0  0  0  0  0  0  0  0  0  0  0  0
    6.1241    3.6090  -12.3598 C   0  0  0  0  0  0  0  0  0  0  0  0
    5.5688    2.6560  -13.4083 C   0  0  0  0  0  0  0  0  0  0  0  0
    5.4491    0.1778  -17.4814 H   0  0  0  0  0  0  0  0  0  0  0  0
    6.4064   -1.1747  -16.8510 H   0  0  0  0  0  0  0  0  0  0  0  0
    4.9452   -1.4774  -17.7705 H   0  0  0  0  0  0  0  0  0  0  0  0
    3.0310   -1.8277  -14.8577 H   0  0  0  0  0  0  0  0  0  0  0  0
    2.5521   -0.6853  -16.1056 H   0  0  0  0  0  0  0  0  0  0  0  0
    3.2859   -2.2266  -16.5461 H   0  0  0  0  0  0  0  0  0  0  0  0
    6.4963    0.6939  -15.7728 H   0  0  0  0  0  0  0  0  0  0  0  0
    6.8863    0.9719  -13.0469 H   0  0  0  0  0  0  0  0  0  0  0  0
    7.6109    2.8132  -15.3705 H   0  0  0  0  0  0  0  0  0  0  0  0
    8.6541    1.6245  -14.6378 H   0  0  0  0  0  0  0  0  0  0  0  0
    9.1715    4.0206  -14.0026 H   0  0  0  0  0  0  0  0  0  0  0  0
    8.9520    2.9742  -12.6469 H   0  0  0  0  0  0  0  0  0  0  0  0
    6.9306    4.9112  -13.8284 H   0  0  0  0  0  0  0  0  0  0  0  0
    6.9571    6.1709  -11.8221 H   0  0  0  0  0  0  0  0  0  0  0  0
    8.5516    6.0934  -12.5125 H   0  0  0  0  0  0  0  0  0  0  0  0
    9.2985    4.5138  -10.7690 H   0  0  0  0  0  0  0  0  0  0  0  0
    7.6866    4.2646  -10.2070 H   0  0  0  0  0  0  0  0  0  0  0  0
    9.4184    7.5065  -10.9701 H   0  0  0  0  0  0  0  0  0  0  0  0
   10.5198    6.4190  -10.1508 H   0  0  0  0  0  0  0  0  0  0  0  0
    9.0762    8.8175   -8.9328 H   0  0  0  0  0  0  0  0  0  0  0  0
   10.7917    8.6193   -9.2901 H   0  0  0  0  0  0  0  0  0  0  0  0
   11.2357    9.9913   -7.8643 H   0  0  0  0  0  0  0  0  0  0  0  0
   12.4823   11.1371   -6.1231 H   0  0  0  0  0  0  0  0  0  0  0  0
   12.8136   10.0030   -3.9008 H   0  0  0  0  0  0  0  0  0  0  0  0
    9.1400    6.1813   -6.2588 H   0  0  0  0  0  0  0  0  0  0  0  0
    8.0872    7.3296   -7.0466 H   0  0  0  0  0  0  0  0  0  0  0  0
    7.6867    5.0949   -7.9765 H   0  0  0  0  0  0  0  0  0  0  0  0
    9.3995    4.8446   -8.2476 H   0  0  0  0  0  0  0  0  0  0  0  0
    6.4013    3.0427  -11.4732 H   0  0  0  0  0  0  0  0  0  0  0  0
    5.3406    4.3018  -12.0479 H   0  0  0  0  0  0  0  0  0  0  0  0
    5.2857    3.2739  -14.2505 H   0  0  0  0  0  0  0  0  0  0  0  0
    4.6630    2.1918  -13.0212 H   0  0  0  0  0  0  0  0  0  0  0  0
    7.6389    6.6983   -9.6912 H   0  0  0  0  0  0  0  0  0  0  0  0
  2  1  1  0
  3  2  1  0
  4  2  1  0
  5  4  2  0
  6  4  1  0
  7  6  1  0
  8  7  1  0
  9  8  1  0
 10  9  1  0
 11 10  1  0
 12 11  1  0
 13 12  1  0
 14 13  1  0
 15 14  1  0
 16 15  1  0
 17 16  1  0
 18 17  1  0
 19 18  2  0
 20 19  1  0
 21 20  2  0
 22 21  1  0
 23 22  1  0
 24 22  1  0
 25 22  1  0
 26 17  2  0
 26 21  1  0
 27 16  1  0
 28 13  1  0
 28 27  1  0
 29 10  1  0
 30  7  1  0
 30 29  1  0
 31  1  1  0
 32  1  1  0
 33  1  1  0
 34  3  1  0
 35  3  1  0
 36  3  1  0
 37  6  1  0
  7 38  1  1
 39  8  1  0
 40  8  1  0
 41  9  1  0
 42  9  1  0
 10 43  1  6
 44 11  1  0
 45 11  1  0
 46 12  1  0
 47 12  1  0
 48 14  1  0
 49 14  1  0
 50 15  1  0
 51 15  1  0
 52 18  1  0
 53 19  1  0
 54 20  1  0
 55 27  1  0
 56 27  1  0
 57 28  1  0
 58 28  1  0
 59 29  1  0
 60 29  1  0
 61 30  1  0
 62 30  1  0
 63 13  1  0
M  CHG  1  13   1
M  END
>  <b_m_subgroup_collapsed>  (124) 
0

>  <r_i_docking_score>  (124) 
-8.9211635302671706

>  <s_m_subgroup_title>  (124) 
glide-dock_SP_D22_pv

>  <s_m_subgroupid>  (124) 
glide-dock_SP_D22_pv

>  <Molecule ChEMBL ID>  (124) 
CHEMBL5402212

>  <Standard Type>  (124) 
Ki

>  <Standard Value>  (124) 
26.7

>  <label>  (124) 
1

$$$$
CHEMBL244989
     RDKit          3D

 66 70  0  0  1  0  0  0  0  0999 V2000
   11.8771   10.6690   -6.2475 C   0  0  0  0  0  0  0  0  0  0  0  0
   10.9290   10.3246   -5.2551 O   0  0  0  0  0  0  0  0  0  0  0  0
   11.2877    9.1927   -4.5719 C   0  0  0  0  0  0  0  0  0  0  0  0
   11.8219    9.3517   -3.2785 C   0  0  0  0  0  0  0  0  0  0  0  0
   12.2263    8.2321   -2.5346 C   0  0  0  0  0  0  0  0  0  0  0  0
   12.1015    6.9459   -3.0878 C   0  0  0  0  0  0  0  0  0  0  0  0
   11.5754    6.7791   -4.3824 C   0  0  0  0  0  0  0  0  0  0  0  0
   11.1452    7.8948   -5.1377 C   0  0  0  0  0  0  0  0  0  0  0  0
   10.5558    7.7175   -6.4080 N   0  0  0  0  0  0  0  0  0  0  0  0
   10.8995    6.5899   -7.2557 C   0  0  0  0  0  0  0  0  0  0  0  0
   10.7699    6.9956   -8.7373 C   0  0  0  0  0  0  0  0  0  0  0  0
    9.4739    7.6661   -9.0706 N   0  0  0  0  0  0  0  0  0  0  0  0
    9.4642    8.2270  -10.4469 C   0  0  0  0  0  0  0  0  0  0  0  0
    9.7670    7.1908  -11.5128 C   0  0  0  0  0  0  0  0  0  0  0  0
   10.9277    7.1381  -12.1976 C   0  0  0  0  0  0  0  0  0  0  0  0
   11.2971    6.1456  -13.2875 C   0  0  0  0  0  0  0  0  0  0  0  0
   10.2895    5.1082  -13.4378 N   0  0  0  0  0  0  0  0  0  0  0  0
   10.0125    4.4421  -14.5645 C   0  0  0  0  0  0  0  0  0  0  0  0
   10.6593    4.5512  -15.6059 O   0  0  0  0  0  0  0  0  0  0  0  0
    8.8526    3.4985  -14.4569 C   0  0  0  0  0  0  0  0  0  0  0  0
    7.7177    3.8408  -13.6718 C   0  0  0  0  0  0  0  0  0  0  0  0
    6.6101    2.9711  -13.5756 C   0  0  0  0  0  0  0  0  0  0  0  0
    6.6687    1.7457  -14.2613 C   0  0  0  0  0  0  0  0  0  0  0  0
    7.7628    1.4225  -15.0687 C   0  0  0  0  0  0  0  0  0  0  0  0
    8.8677    2.2827  -15.1788 C   0  0  0  0  0  0  0  0  0  0  0  0
    7.5485    0.1104  -15.8027 C   0  0  0  0  0  0  0  0  0  0  0  0
    6.1520   -0.2454  -15.3224 C   0  0  0  0  0  0  0  0  0  0  0  0
    5.3435   -1.3143  -15.7523 C   0  0  0  0  0  0  0  0  0  0  0  0
    4.0431   -1.4265  -15.2178 C   0  0  0  0  0  0  0  0  0  0  0  0
    3.5774   -0.4973  -14.2597 C   0  0  0  0  0  0  0  0  0  0  0  0
    4.4012    0.5714  -13.8453 C   0  0  0  0  0  0  0  0  0  0  0  0
    5.6857    0.6831  -14.3922 C   0  0  0  0  0  0  0  0  0  0  0  0
    9.0998    8.7189   -8.0904 C   0  0  0  0  0  0  0  0  0  0  0  0
    9.2174    8.2367   -6.6448 C   0  0  0  0  0  0  0  0  0  0  0  0
   11.6863   11.6674   -6.6357 H   0  0  0  0  0  0  0  0  0  0  0  0
   12.8867   10.6514   -5.8462 H   0  0  0  0  0  0  0  0  0  0  0  0
   11.8322    9.9744   -7.0828 H   0  0  0  0  0  0  0  0  0  0  0  0
   11.9209   10.3396   -2.8518 H   0  0  0  0  0  0  0  0  0  0  0  0
   12.6253    8.3617   -1.5394 H   0  0  0  0  0  0  0  0  0  0  0  0
   12.4052    6.0802   -2.5163 H   0  0  0  0  0  0  0  0  0  0  0  0
   11.4732    5.7759   -4.7692 H   0  0  0  0  0  0  0  0  0  0  0  0
   10.2169    5.7716   -7.0354 H   0  0  0  0  0  0  0  0  0  0  0  0
   11.9128    6.2396   -7.0466 H   0  0  0  0  0  0  0  0  0  0  0  0
   10.8871    6.1110   -9.3592 H   0  0  0  0  0  0  0  0  0  0  0  0
   11.5918    7.6701   -8.9868 H   0  0  0  0  0  0  0  0  0  0  0  0
   10.2046    9.0239  -10.5139 H   0  0  0  0  0  0  0  0  0  0  0  0
    8.4903    8.6705  -10.6649 H   0  0  0  0  0  0  0  0  0  0  0  0
    8.9770    6.4781  -11.7011 H   0  0  0  0  0  0  0  0  0  0  0  0
   11.6963    7.8621  -11.9737 H   0  0  0  0  0  0  0  0  0  0  0  0
   11.4359    6.6913  -14.2221 H   0  0  0  0  0  0  0  0  0  0  0  0
   12.2539    5.6792  -13.0470 H   0  0  0  0  0  0  0  0  0  0  0  0
    9.7248    4.8912  -12.6314 H   0  0  0  0  0  0  0  0  0  0  0  0
    7.6740    4.7833  -13.1449 H   0  0  0  0  0  0  0  0  0  0  0  0
    5.7444    3.2403  -12.9885 H   0  0  0  0  0  0  0  0  0  0  0  0
    9.7042    2.0184  -15.8084 H   0  0  0  0  0  0  0  0  0  0  0  0
    7.5765    0.2437  -16.8834 H   0  0  0  0  0  0  0  0  0  0  0  0
    8.2901   -0.6249  -15.4935 H   0  0  0  0  0  0  0  0  0  0  0  0
    5.7012   -2.0279  -16.4811 H   0  0  0  0  0  0  0  0  0  0  0  0
    3.3951   -2.2277  -15.5439 H   0  0  0  0  0  0  0  0  0  0  0  0
    2.5746   -0.5948  -13.8669 H   0  0  0  0  0  0  0  0  0  0  0  0
    4.0610    1.3191  -13.1466 H   0  0  0  0  0  0  0  0  0  0  0  0
    9.7588    9.5747   -8.2227 H   0  0  0  0  0  0  0  0  0  0  0  0
    8.0860    9.0695   -8.2817 H   0  0  0  0  0  0  0  0  0  0  0  0
    8.4863    7.4499   -6.4522 H   0  0  0  0  0  0  0  0  0  0  0  0
    8.9840    9.0505   -5.9661 H   0  0  0  0  0  0  0  0  0  0  0  0
    8.7407    6.9702   -9.0203 H   0  0  0  0  0  0  0  0  0  0  0  0
  2  1  1  0
  3  2  1  0
  4  3  2  0
  5  4  1  0
  6  5  2  0
  7  6  1  0
  8  3  1  0
  8  7  2  0
  9  8  1  0
 10  9  1  0
 11 10  1  0
 12 11  1  0
 13 12  1  0
 14 13  1  0
 15 14  2  0
 16 15  1  0
 17 16  1  0
 18 17  1  0
 19 18  2  0
 20 18  1  0
 21 20  2  0
 22 21  1  0
 23 22  2  0
 24 23  1  0
 25 20  1  0
 25 24  2  0
 26 24  1  0
 27 26  1  0
 28 27  2  0
 29 28  1  0
 30 29  2  0
 31 30  1  0
 32 23  1  0
 32 27  1  0
 32 31  2  0
 33 12  1  0
 34  9  1  0
 34 33  1  0
 35  1  1  0
 36  1  1  0
 37  1  1  0
 38  4  1  0
 39  5  1  0
 40  6  1  0
 41  7  1  0
 42 10  1  0
 43 10  1  0
 44 11  1  0
 45 11  1  0
 46 13  1  0
 47 13  1  0
 48 14  1  0
 49 15  1  0
 50 16  1  0
 51 16  1  0
 52 17  1  0
 53 21  1  0
 54 22  1  0
 55 25  1  0
 56 26  1  0
 57 26  1  0
 58 28  1  0
 59 29  1  0
 60 30  1  0
 61 31  1  0
 62 33  1  0
 63 33  1  0
 64 34  1  0
 65 34  1  0
 66 12  1  0
M  CHG  1  12   1
M  END
>  <b_m_subgroup_collapsed>  (125) 
0

>  <r_i_docking_score>  (125) 
-8.9188817321277707

>  <s_m_subgroup_title>  (125) 
glide-dock_SP_D22_pv

>  <s_m_subgroupid>  (125) 
glide-dock_SP_D22_pv

>  <Molecule ChEMBL ID>  (125) 
CHEMBL244989

>  <Standard Type>  (125) 
Ki

>  <Standard Value>  (125) 
48.4

>  <label>  (125) 
1

$$$$
CHEMBL442093
     RDKit          3D

 43 46  0  0  1  0  0  0  0  0999 V2000
   12.2067    7.5894  -14.8596 O   0  0  0  0  0  0  0  0  0  0  0  0
   12.3568    6.5576  -13.9141 C   0  0  2  0  0  0  0  0  0  0  0  0
   12.4928    5.1870  -14.6282 C   0  0  0  0  0  0  0  0  0  0  0  0
   11.1634    4.4216  -14.4181 C   0  0  0  0  0  0  0  0  0  0  0  0
   10.4603    5.2067  -13.3439 C   0  0  0  0  0  0  0  0  0  0  0  0
    9.2588    4.8710  -12.6922 C   0  0  0  0  0  0  0  0  0  0  0  0
    8.7440    5.7714  -11.7318 C   0  0  0  0  0  0  0  0  0  0  0  0
    9.4454    6.9641  -11.4333 C   0  0  0  0  0  0  0  0  0  0  0  0
    8.8860    7.8742  -10.4815 N   0  0  0  0  0  0  0  0  0  0  0  0
    9.7258    8.5248   -9.6474 C   0  0  0  0  0  0  0  0  0  0  0  0
    9.7401    8.4114   -8.3009 N   0  0  0  0  0  0  0  0  0  0  0  0
    8.9051    7.4536   -7.5651 C   0  0  0  0  0  0  0  0  0  0  0  0
    9.7472    6.6127   -6.5988 C   0  0  0  0  0  0  0  0  0  0  0  0
   10.7698    7.4081   -5.8039 C   0  0  0  0  0  0  0  0  0  0  0  0
   11.2860    6.8881   -4.5998 C   0  0  0  0  0  0  0  0  0  0  0  0
   12.1244    7.6727   -3.7857 C   0  0  0  0  0  0  0  0  0  0  0  0
   12.4858    8.9709   -4.1930 C   0  0  0  0  0  0  0  0  0  0  0  0
   12.0238    9.4707   -5.4237 C   0  0  0  0  0  0  0  0  0  0  0  0
   11.1653    8.6926   -6.2268 C   0  0  0  0  0  0  0  0  0  0  0  0
   10.6334    9.2814   -7.5098 C   0  0  0  0  0  0  0  0  0  0  0  0
   10.6665    7.2733  -12.0690 C   0  0  0  0  0  0  0  0  0  0  0  0
   11.1400    6.3835  -13.0467 C   0  0  0  0  0  0  0  0  0  0  0  0
   12.9875    7.6273  -15.3905 H   0  0  0  0  0  0  0  0  0  0  0  0
   13.2177    6.8084  -13.3030 H   0  0  0  0  0  0  0  0  0  0  0  0
   12.7837    5.2607  -15.6768 H   0  0  0  0  0  0  0  0  0  0  0  0
   13.2807    4.6240  -14.1275 H   0  0  0  0  0  0  0  0  0  0  0  0
   11.3264    3.3866  -14.1152 H   0  0  0  0  0  0  0  0  0  0  0  0
   10.5575    4.4327  -15.3241 H   0  0  0  0  0  0  0  0  0  0  0  0
    8.7321    3.9586  -12.9312 H   0  0  0  0  0  0  0  0  0  0  0  0
    7.8128    5.5496  -11.2297 H   0  0  0  0  0  0  0  0  0  0  0  0
   10.4434    9.2022  -10.0937 H   0  0  0  0  0  0  0  0  0  0  0  0
    8.1616    8.0244   -7.0056 H   0  0  0  0  0  0  0  0  0  0  0  0
    8.3537    6.7975   -8.2376 H   0  0  0  0  0  0  0  0  0  0  0  0
   10.2438    5.7976   -7.1265 H   0  0  0  0  0  0  0  0  0  0  0  0
    9.0605    6.1721   -5.8790 H   0  0  0  0  0  0  0  0  0  0  0  0
   10.9967    5.9006   -4.2695 H   0  0  0  0  0  0  0  0  0  0  0  0
   12.4863    7.2800   -2.8470 H   0  0  0  0  0  0  0  0  0  0  0  0
   13.1241    9.5809   -3.5702 H   0  0  0  0  0  0  0  0  0  0  0  0
   12.3165   10.4608   -5.7416 H   0  0  0  0  0  0  0  0  0  0  0  0
   11.4718    9.6033   -8.1260 H   0  0  0  0  0  0  0  0  0  0  0  0
   10.0863   10.1648   -7.1938 H   0  0  0  0  0  0  0  0  0  0  0  0
   11.2143    8.1715  -11.8427 H   0  0  0  0  0  0  0  0  0  0  0  0
    7.8711    7.7724  -10.2414 H   0  0  0  0  0  0  0  0  0  0  0  0
  2  1  1  0
  3  2  1  0
  4  3  1  0
  5  4  1  0
  6  5  1  0
  7  6  2  0
  8  7  1  0
  9  8  1  0
 10  9  1  0
 11 10  2  3
 12 11  1  0
 13 12  1  0
 14 13  1  0
 15 14  2  0
 16 15  1  0
 17 16  2  0
 18 17  1  0
 19 14  1  0
 19 18  2  0
 20 11  1  0
 20 19  1  0
 21  8  2  0
 22  2  1  0
 22  5  2  0
 22 21  1  0
 23  1  1  0
  2 24  1  1
 25  3  1  0
 26  3  1  0
 27  4  1  0
 28  4  1  0
 29  6  1  0
 30  7  1  0
 31 10  1  0
 32 12  1  0
 33 12  1  0
 34 13  1  0
 35 13  1  0
 36 15  1  0
 37 16  1  0
 38 17  1  0
 39 18  1  0
 40 20  1  0
 41 20  1  0
 42 21  1  0
 43  9  1  0
M  CHG  1  11   1
M  END
>  <b_m_subgroup_collapsed>  (126) 
0

>  <r_i_docking_score>  (126) 
-8.9091336301928994

>  <s_m_subgroup_title>  (126) 
glide-dock_SP_D22_pv

>  <s_m_subgroupid>  (126) 
glide-dock_SP_D22_pv

>  <Molecule ChEMBL ID>  (126) 
CHEMBL442093

>  <Standard Type>  (126) 
Ki

>  <Standard Value>  (126) 
300000.0

>  <label>  (126) 
0

$$$$
CHEMBL4098399
     RDKit          3D

 57 61  0  0  1  0  0  0  0  0999 V2000
   12.2612    9.9606   -6.6456 C   0  0  0  0  0  0  0  0  0  0  0  0
   11.4014    8.7975   -6.6611 N   0  0  0  0  0  0  0  0  0  0  0  0
   10.7341    8.2657   -7.7018 C   0  0  0  0  0  0  0  0  0  0  0  0
   10.7988    8.9702   -9.3184 S   0  0  0  0  0  0  0  0  0  0  0  0
   10.8660    7.4534  -10.3139 C   0  0  0  0  0  0  0  0  0  0  0  0
    9.5263    6.6953  -10.3482 C   0  0  0  0  0  0  0  0  0  0  0  0
    8.9512    6.5383  -11.7585 C   0  0  0  0  0  0  0  0  0  0  0  0
    7.6889    5.7713  -11.7320 N   0  0  2  0  0  0  0  0  0  0  0  0
    7.8101    4.3150  -11.6357 C   0  0  0  0  0  0  0  0  0  0  0  0
    6.7493    4.1893  -12.7345 C   0  0  2  0  0  0  0  0  0  0  0  0
    5.3739    3.6319  -12.3638 C   0  0  0  0  0  0  0  0  0  0  0  0
    5.7027    2.3878  -13.1822 C   0  0  0  0  0  0  0  0  0  0  0  0
    6.7290    3.2041  -13.8182 N   0  0  0  0  0  0  0  0  0  0  0  0
    7.9115    2.5659  -14.3006 C   0  0  0  0  0  0  0  0  0  0  0  0
    9.1187    3.2690  -14.5398 C   0  0  0  0  0  0  0  0  0  0  0  0
   10.2549    2.6474  -15.0946 C   0  0  0  0  0  0  0  0  0  0  0  0
   10.2135    1.2873  -15.4374 C   0  0  0  0  0  0  0  0  0  0  0  0
   11.2818    0.6922  -16.0147 F   0  0  0  0  0  0  0  0  0  0  0  0
    9.0426    0.5526  -15.1995 C   0  0  0  0  0  0  0  0  0  0  0  0
    7.9160    1.1901  -14.6487 C   0  0  0  0  0  0  0  0  0  0  0  0
    6.9994    5.6692  -13.0086 C   0  0  0  0  0  0  0  0  0  0  0  0
   10.0435    7.1725   -7.3823 N   0  0  0  0  0  0  0  0  0  0  0  0
   10.2811    6.9664   -6.0507 N   0  0  0  0  0  0  0  0  0  0  0  0
   11.1000    7.9442   -5.6661 C   0  0  0  0  0  0  0  0  0  0  0  0
   11.6046    8.0334   -4.3101 C   0  0  0  0  0  0  0  0  0  0  0  0
   11.5995    9.2637   -3.6229 C   0  0  0  0  0  0  0  0  0  0  0  0
   12.0864    9.3350   -2.3149 C   0  0  0  0  0  0  0  0  0  0  0  0
   12.5116    8.1715   -1.6618 C   0  0  0  0  0  0  0  0  0  0  0  0
   12.4838    6.9320   -2.3260 C   0  0  0  0  0  0  0  0  0  0  0  0
   12.0469    6.8675   -3.6565 C   0  0  0  0  0  0  0  0  0  0  0  0
   11.7013   10.8088   -7.0450 H   0  0  0  0  0  0  0  0  0  0  0  0
   12.6294   10.2181   -5.6613 H   0  0  0  0  0  0  0  0  0  0  0  0
   13.1556    9.7399   -7.2240 H   0  0  0  0  0  0  0  0  0  0  0  0
   11.1833    7.7266  -11.3204 H   0  0  0  0  0  0  0  0  0  0  0  0
   11.6509    6.8162   -9.9079 H   0  0  0  0  0  0  0  0  0  0  0  0
    9.6614    5.7137   -9.8924 H   0  0  0  0  0  0  0  0  0  0  0  0
    8.7859    7.2073   -9.7335 H   0  0  0  0  0  0  0  0  0  0  0  0
    8.7477    7.5284  -12.1717 H   0  0  0  0  0  0  0  0  0  0  0  0
    9.6752    6.0581  -12.4198 H   0  0  0  0  0  0  0  0  0  0  0  0
    8.7924    3.9297  -11.9087 H   0  0  0  0  0  0  0  0  0  0  0  0
    7.4952    3.9542  -10.6561 H   0  0  0  0  0  0  0  0  0  0  0  0
    5.2810    3.4402  -11.2975 H   0  0  0  0  0  0  0  0  0  0  0  0
    4.5258    4.1746  -12.7765 H   0  0  0  0  0  0  0  0  0  0  0  0
    4.9012    2.0667  -13.8469 H   0  0  0  0  0  0  0  0  0  0  0  0
    6.0805    1.5694  -12.5706 H   0  0  0  0  0  0  0  0  0  0  0  0
    9.1843    4.3220  -14.3199 H   0  0  0  0  0  0  0  0  0  0  0  0
   11.1511    3.2206  -15.2765 H   0  0  0  0  0  0  0  0  0  0  0  0
    8.9990   -0.4956  -15.4570 H   0  0  0  0  0  0  0  0  0  0  0  0
    7.0271    0.5929  -14.5144 H   0  0  0  0  0  0  0  0  0  0  0  0
    6.1062    6.2935  -13.0451 H   0  0  0  0  0  0  0  0  0  0  0  0
    7.6854    5.8418  -13.8423 H   0  0  0  0  0  0  0  0  0  0  0  0
   11.2045   10.1595   -4.0797 H   0  0  0  0  0  0  0  0  0  0  0  0
   12.0936   10.2828   -1.8110 H   0  0  0  0  0  0  0  0  0  0  0  0
   12.8786    8.2248   -0.6465 H   0  0  0  0  0  0  0  0  0  0  0  0
   12.8114    6.0326   -1.8258 H   0  0  0  0  0  0  0  0  0  0  0  0
   12.0329    5.9163   -4.1696 H   0  0  0  0  0  0  0  0  0  0  0  0
    7.0515    6.1474  -11.0344 H   0  0  0  0  0  0  0  0  0  0  0  0
  2  1  1  0
  3  2  1  0
  4  3  1  0
  5  4  1  0
  6  5  1  0
  7  6  1  0
  8  7  1  0
  9  8  1  0
 10  9  1  0
 11 10  1  0
 12 11  1  0
 10 13  1  6
 13 12  1  0
 14 13  1  0
 15 14  1  0
 16 15  2  0
 17 16  1  0
 18 17  1  0
 19 17  2  0
 20 14  2  0
 20 19  1  0
 21  8  1  0
 21 10  1  0
 22  3  2  0
 23 22  1  0
 24  2  1  0
 24 23  2  0
 25 24  1  0
 26 25  2  0
 27 26  1  0
 28 27  2  0
 29 28  1  0
 30 25  1  0
 30 29  2  0
 31  1  1  0
 32  1  1  0
 33  1  1  0
 34  5  1  0
 35  5  1  0
 36  6  1  0
 37  6  1  0
 38  7  1  0
 39  7  1  0
 40  9  1  0
 41  9  1  0
 42 11  1  0
 43 11  1  0
 44 12  1  0
 45 12  1  0
 46 15  1  0
 47 16  1  0
 48 19  1  0
 49 20  1  0
 50 21  1  0
 51 21  1  0
 52 26  1  0
 53 27  1  0
 54 28  1  0
 55 29  1  0
 56 30  1  0
  8 57  1  1
M  CHG  1   8   1
M  END
>  <b_m_subgroup_collapsed>  (127) 
0

>  <r_i_docking_score>  (127) 
-8.9042921209213794

>  <s_m_subgroup_title>  (127) 
glide-dock_SP_D22_pv

>  <s_m_subgroupid>  (127) 
glide-dock_SP_D22_pv

>  <Molecule ChEMBL ID>  (127) 
CHEMBL4098399

>  <Standard Type>  (127) 
Ki

>  <Standard Value>  (127) 
109574.0

>  <label>  (127) 
0

$$$$
CHEMBL123937
     RDKit          3D

 53 57  0  0  1  0  0  0  0  0999 V2000
   11.6863    6.0849   -6.0897 O   0  0  0  0  0  0  0  0  0  0  0  0
   11.2890    7.2005   -5.8093 C   0  0  0  0  0  0  0  0  0  0  0  0
   11.6150    7.8257   -4.5105 C   0  0  0  0  0  0  0  0  0  0  0  0
   12.0865    7.0067   -3.4625 C   0  0  0  0  0  0  0  0  0  0  0  0
   12.4813    7.5789   -2.2455 C   0  0  0  0  0  0  0  0  0  0  0  0
   12.3598    8.9640   -2.0461 C   0  0  0  0  0  0  0  0  0  0  0  0
   11.8452    9.7739   -3.0741 C   0  0  0  0  0  0  0  0  0  0  0  0
   11.5026    9.2187   -4.3192 C   0  0  0  0  0  0  0  0  0  0  0  0
   11.0161   10.1065   -5.4437 C   0  0  0  0  0  0  0  0  0  0  0  0
   10.0888    9.3270   -6.3867 C   0  0  0  0  0  0  0  0  0  0  0  0
   10.6461    8.0103   -6.9263 C   0  0  1  0  0  0  0  0  0  0  0  0
   11.7109    8.2769   -8.0303 C   0  0  0  0  0  0  0  0  0  0  0  0
   11.1052    8.7581   -9.3588 C   0  0  0  0  0  0  0  0  0  0  0  0
   10.0430    7.8279   -9.8033 N   0  0  2  0  0  0  0  0  0  0  0  0
    9.5092    8.1244  -11.1434 C   0  0  0  0  0  0  0  0  0  0  0  0
    9.5889    6.8619  -11.9636 C   0  0  0  0  0  0  0  0  0  0  0  0
    8.4929    5.9754  -12.0204 C   0  0  0  0  0  0  0  0  0  0  0  0
    8.5799    4.7964  -12.7841 C   0  0  0  0  0  0  0  0  0  0  0  0
    9.7554    4.5092  -13.5069 C   0  0  0  0  0  0  0  0  0  0  0  0
    9.8359    3.3439  -14.2961 C   0  0  0  0  0  0  0  0  0  0  0  0
   10.9993    3.0785  -15.0433 C   0  0  0  0  0  0  0  0  0  0  0  0
   12.0860    3.9733  -14.9980 C   0  0  0  0  0  0  0  0  0  0  0  0
   12.0222    5.1255  -14.1922 C   0  0  0  0  0  0  0  0  0  0  0  0
   10.8576    5.3993  -13.4468 C   0  0  0  0  0  0  0  0  0  0  0  0
   10.7791    6.5641  -12.6555 C   0  0  0  0  0  0  0  0  0  0  0  0
    8.9705    7.6733   -8.8032 C   0  0  0  0  0  0  0  0  0  0  0  0
    9.5133    7.1254   -7.4997 C   0  0  0  0  0  0  0  0  0  0  0  0
   12.1754    5.9371   -3.5912 H   0  0  0  0  0  0  0  0  0  0  0  0
   12.8799    6.9512   -1.4609 H   0  0  0  0  0  0  0  0  0  0  0  0
   12.6429    9.4032   -1.1005 H   0  0  0  0  0  0  0  0  0  0  0  0
   11.7082   10.8282   -2.8986 H   0  0  0  0  0  0  0  0  0  0  0  0
   10.4862   10.9682   -5.0350 H   0  0  0  0  0  0  0  0  0  0  0  0
   11.8810   10.4967   -5.9809 H   0  0  0  0  0  0  0  0  0  0  0  0
    9.8000    9.9424   -7.2270 H   0  0  0  0  0  0  0  0  0  0  0  0
    9.1714    9.1096   -5.8483 H   0  0  0  0  0  0  0  0  0  0  0  0
   12.4520    8.9985   -7.6859 H   0  0  0  0  0  0  0  0  0  0  0  0
   12.2813    7.3731   -8.2385 H   0  0  0  0  0  0  0  0  0  0  0  0
   10.7052    9.7687   -9.2726 H   0  0  0  0  0  0  0  0  0  0  0  0
   11.8933    8.8040  -10.1130 H   0  0  0  0  0  0  0  0  0  0  0  0
    8.4857    8.4964  -11.1028 H   0  0  0  0  0  0  0  0  0  0  0  0
   10.0855    8.9094  -11.6255 H   0  0  0  0  0  0  0  0  0  0  0  0
    7.5828    6.1929  -11.4777 H   0  0  0  0  0  0  0  0  0  0  0  0
    7.7362    4.1226  -12.8209 H   0  0  0  0  0  0  0  0  0  0  0  0
    9.0048    2.6546  -14.3398 H   0  0  0  0  0  0  0  0  0  0  0  0
   11.0580    2.1892  -15.6532 H   0  0  0  0  0  0  0  0  0  0  0  0
   12.9760    3.7705  -15.5760 H   0  0  0  0  0  0  0  0  0  0  0  0
   12.8666    5.7997  -14.1585 H   0  0  0  0  0  0  0  0  0  0  0  0
   11.6205    7.2410  -12.6108 H   0  0  0  0  0  0  0  0  0  0  0  0
    8.4799    8.6330   -8.6449 H   0  0  0  0  0  0  0  0  0  0  0  0
    8.2226    6.9713   -9.1717 H   0  0  0  0  0  0  0  0  0  0  0  0
    9.8504    6.1064   -7.7000 H   0  0  0  0  0  0  0  0  0  0  0  0
    8.6962    7.0275   -6.7821 H   0  0  0  0  0  0  0  0  0  0  0  0
   10.4750    6.9190   -9.8895 H   0  0  0  0  0  0  0  0  0  0  0  0
  2  1  2  0
  3  2  1  0
  4  3  2  0
  5  4  1  0
  6  5  2  0
  7  6  1  0
  8  3  1  0
  8  7  2  0
  9  8  1  0
 10  9  1  0
 11  2  1  0
 11 10  1  1
 12 11  1  0
 13 12  1  0
 14 13  1  0
 15 14  1  0
 16 15  1  0
 17 16  1  0
 18 17  2  0
 19 18  1  0
 20 19  2  0
 21 20  1  0
 22 21  2  0
 23 22  1  0
 24 19  1  0
 24 23  2  0
 25 16  2  0
 25 24  1  0
 26 14  1  0
 27 11  1  0
 27 26  1  0
 28  4  1  0
 29  5  1  0
 30  6  1  0
 31  7  1  0
 32  9  1  0
 33  9  1  0
 34 10  1  0
 35 10  1  0
 36 12  1  0
 37 12  1  0
 38 13  1  0
 39 13  1  0
 40 15  1  0
 41 15  1  0
 42 17  1  0
 43 18  1  0
 44 20  1  0
 45 21  1  0
 46 22  1  0
 47 23  1  0
 48 25  1  0
 49 26  1  0
 50 26  1  0
 51 27  1  0
 52 27  1  0
 14 53  1  6
M  CHG  1  14   1
M  END
>  <b_m_subgroup_collapsed>  (128) 
0

>  <r_i_docking_score>  (128) 
-8.9008926594530902

>  <s_m_subgroup_title>  (128) 
glide-dock_SP_D22_pv

>  <s_m_subgroupid>  (128) 
glide-dock_SP_D22_pv

>  <Molecule ChEMBL ID>  (128) 
CHEMBL123937

>  <Standard Type>  (128) 
Ki

>  <Standard Value>  (128) 
10000.0

>  <label>  (128) 
0

$$$$
CHEMBL1223858
     RDKit          3D

 60 63  0  0  1  0  0  0  0  0999 V2000
   12.8861    6.1723   -2.8238 F   0  0  0  0  0  0  0  0  0  0  0  0
   12.0121    7.1416   -2.6823 C   0  0  0  0  0  0  0  0  0  0  0  0
   12.4755    7.9793   -1.7537 F   0  0  0  0  0  0  0  0  0  0  0  0
   10.8932    6.5735   -2.2455 F   0  0  0  0  0  0  0  0  0  0  0  0
   11.8334    7.8650   -4.0135 C   0  0  0  0  0  0  0  0  0  0  0  0
   12.4830    9.0961   -4.2320 C   0  0  0  0  0  0  0  0  0  0  0  0
   12.3057    9.7718   -5.4478 C   0  0  0  0  0  0  0  0  0  0  0  0
   11.4540    9.2622   -6.4322 C   0  0  0  0  0  0  0  0  0  0  0  0
   10.8103    8.0168   -6.2594 C   0  0  0  0  0  0  0  0  0  0  0  0
    9.9848    7.4917   -7.2806 N   0  0  0  0  0  0  0  0  0  0  0  0
    8.8133    6.6977   -6.9442 C   0  0  0  0  0  0  0  0  0  0  0  0
    8.5872    5.6315   -8.0267 C   0  0  0  0  0  0  0  0  0  0  0  0
    8.5281    6.1718   -9.4140 N   0  0  0  0  0  0  0  0  0  0  0  0
    8.5231    5.0386  -10.3791 C   0  0  0  0  0  0  0  0  0  0  0  0
    8.4766    5.4333  -11.8673 C   0  0  0  0  0  0  0  0  0  0  0  0
    8.8147    4.2378  -12.7678 C   0  0  0  0  0  0  0  0  0  0  0  0
    9.0351    4.6590  -14.2224 C   0  0  0  0  0  0  0  0  0  0  0  0
    9.6158    3.5884  -15.0136 N   0  0  0  0  0  0  0  0  0  0  0  0
    9.1565    2.3392  -15.3912 C   0  0  0  0  0  0  0  0  0  0  0  0
    9.7736    1.4019  -16.1004 N   0  0  0  0  0  0  0  0  0  0  0  0
    8.8258    0.3915  -16.2030 C   0  0  0  0  0  0  0  0  0  0  0  0
    7.6902    0.7927  -15.5431 C   0  0  0  0  0  0  0  0  0  0  0  0
    6.3885    0.1677  -15.3656 C   0  0  0  0  0  0  0  0  0  0  0  0
    5.9055   -0.7467  -16.3281 C   0  0  0  0  0  0  0  0  0  0  0  0
    4.6456   -1.3517  -16.1722 C   0  0  0  0  0  0  0  0  0  0  0  0
    3.8489   -1.0275  -15.0615 C   0  0  0  0  0  0  0  0  0  0  0  0
    4.3150   -0.1108  -14.1027 C   0  0  0  0  0  0  0  0  0  0  0  0
    5.5858    0.4778  -14.2461 C   0  0  0  0  0  0  0  0  0  0  0  0
    7.8927    2.0358  -15.0047 O   0  0  0  0  0  0  0  0  0  0  0  0
    9.6199    7.1455   -9.6976 C   0  0  0  0  0  0  0  0  0  0  0  0
    9.8660    8.1577   -8.5742 C   0  0  0  0  0  0  0  0  0  0  0  0
   11.0385    7.3125   -5.0468 C   0  0  0  0  0  0  0  0  0  0  0  0
   13.1153    9.5345   -3.4741 H   0  0  0  0  0  0  0  0  0  0  0  0
   12.8218   10.6937   -5.6495 H   0  0  0  0  0  0  0  0  0  0  0  0
   11.3273    9.8651   -7.3150 H   0  0  0  0  0  0  0  0  0  0  0  0
    7.9560    7.3663   -6.8726 H   0  0  0  0  0  0  0  0  0  0  0  0
    8.8865    6.2055   -5.9757 H   0  0  0  0  0  0  0  0  0  0  0  0
    7.6860    5.0658   -7.8112 H   0  0  0  0  0  0  0  0  0  0  0  0
    9.4095    4.9183   -7.9636 H   0  0  0  0  0  0  0  0  0  0  0  0
    7.6865    4.3724  -10.1663 H   0  0  0  0  0  0  0  0  0  0  0  0
    9.4253    4.4488  -10.2048 H   0  0  0  0  0  0  0  0  0  0  0  0
    9.2082    6.2060  -12.0948 H   0  0  0  0  0  0  0  0  0  0  0  0
    7.4992    5.8436  -12.1217 H   0  0  0  0  0  0  0  0  0  0  0  0
    8.0211    3.4942  -12.7150 H   0  0  0  0  0  0  0  0  0  0  0  0
    9.7201    3.7505  -12.4020 H   0  0  0  0  0  0  0  0  0  0  0  0
    9.7109    5.5122  -14.2764 H   0  0  0  0  0  0  0  0  0  0  0  0
    8.0862    4.9754  -14.6491 H   0  0  0  0  0  0  0  0  0  0  0  0
   10.5485    3.7819  -15.3485 H   0  0  0  0  0  0  0  0  0  0  0  0
    9.0251   -0.5240  -16.7405 H   0  0  0  0  0  0  0  0  0  0  0  0
    6.5075   -0.9997  -17.1882 H   0  0  0  0  0  0  0  0  0  0  0  0
    4.2866   -2.0648  -16.9019 H   0  0  0  0  0  0  0  0  0  0  0  0
    2.8858   -1.4926  -14.9467 H   0  0  0  0  0  0  0  0  0  0  0  0
    3.6899    0.1455  -13.2641 H   0  0  0  0  0  0  0  0  0  0  0  0
    5.9366    1.1786  -13.5021 H   0  0  0  0  0  0  0  0  0  0  0  0
   10.5468    6.5974   -9.8766 H   0  0  0  0  0  0  0  0  0  0  0  0
    9.3927    7.7109  -10.6008 H   0  0  0  0  0  0  0  0  0  0  0  0
    9.0547    8.8856   -8.5290 H   0  0  0  0  0  0  0  0  0  0  0  0
   10.7694    8.6956   -8.8496 H   0  0  0  0  0  0  0  0  0  0  0  0
   10.6005    6.3417   -4.8727 H   0  0  0  0  0  0  0  0  0  0  0  0
    7.6498    6.6871   -9.5128 H   0  0  0  0  0  0  0  0  0  0  0  0
  2  1  1  0
  3  2  1  0
  4  2  1  0
  5  2  1  0
  6  5  2  0
  7  6  1  0
  8  7  2  0
  9  8  1  0
 10  9  1  0
 11 10  1  0
 12 11  1  0
 13 12  1  0
 14 13  1  0
 15 14  1  0
 16 15  1  0
 17 16  1  0
 18 17  1  0
 19 18  1  0
 20 19  2  0
 21 20  1  0
 22 21  2  0
 23 22  1  0
 24 23  2  0
 25 24  1  0
 26 25  2  0
 27 26  1  0
 28 23  1  0
 28 27  2  0
 29 19  1  0
 29 22  1  0
 30 13  1  0
 31 10  1  0
 31 30  1  0
 32  5  1  0
 32  9  2  0
 33  6  1  0
 34  7  1  0
 35  8  1  0
 36 11  1  0
 37 11  1  0
 38 12  1  0
 39 12  1  0
 40 14  1  0
 41 14  1  0
 42 15  1  0
 43 15  1  0
 44 16  1  0
 45 16  1  0
 46 17  1  0
 47 17  1  0
 48 18  1  0
 49 21  1  0
 50 24  1  0
 51 25  1  0
 52 26  1  0
 53 27  1  0
 54 28  1  0
 55 30  1  0
 56 30  1  0
 57 31  1  0
 58 31  1  0
 59 32  1  0
 60 13  1  0
M  CHG  1  13   1
M  END
>  <b_m_subgroup_collapsed>  (129) 
0

>  <r_i_docking_score>  (129) 
-8.8965998106332993

>  <s_m_subgroup_title>  (129) 
glide-dock_SP_D22_pv

>  <s_m_subgroupid>  (129) 
glide-dock_SP_D22_pv

>  <Molecule ChEMBL ID>  (129) 
CHEMBL1223858

>  <Standard Type>  (129) 
Ki

>  <Standard Value>  (129) 
9.6

>  <label>  (129) 
1

$$$$
CHEMBL4646868
     RDKit          3D

 67 72  0  0  1  0  0  0  0  0999 V2000
    9.0950    1.7058  -17.8247 O   0  0  0  0  0  0  0  0  0  0  0  0
    8.2257    1.1573  -17.1431 C   0  0  0  0  0  0  0  0  0  0  0  0
    6.9547    0.7114  -17.8174 C   0  0  0  0  0  0  0  0  0  0  0  0
    6.7256    0.9593  -19.1901 C   0  0  0  0  0  0  0  0  0  0  0  0
    5.5399    0.5588  -19.8251 C   0  0  0  0  0  0  0  0  0  0  0  0
    4.5606   -0.1264  -19.0937 C   0  0  0  0  0  0  0  0  0  0  0  0
    4.7575   -0.4173  -17.7340 C   0  0  0  0  0  0  0  0  0  0  0  0
    3.8080   -1.1134  -16.9660 C   0  0  0  0  0  0  0  0  0  0  0  0
    4.0422   -1.4069  -15.6159 C   0  0  0  0  0  0  0  0  0  0  0  0
    5.2243   -0.9626  -15.0075 C   0  0  0  0  0  0  0  0  0  0  0  0
    6.1944   -0.2274  -15.7267 C   0  0  0  0  0  0  0  0  0  0  0  0
    5.9526    0.0162  -17.1016 C   0  0  0  0  0  0  0  0  0  0  0  0
    7.4201    0.3244  -15.0420 C   0  0  0  0  0  0  0  0  0  0  0  0
    7.5266    0.1883  -13.8214 O   0  0  0  0  0  0  0  0  0  0  0  0
    8.3592    0.9585  -15.8010 N   0  0  0  0  0  0  0  0  0  0  0  0
    9.6031    1.4485  -15.1570 C   0  0  0  0  0  0  0  0  0  0  0  0
    9.6120    2.9717  -14.8928 C   0  0  0  0  0  0  0  0  0  0  0  0
    8.7676    3.4287  -13.6891 C   0  0  0  0  0  0  0  0  0  0  0  0
    8.7649    4.9609  -13.5265 C   0  0  0  0  0  0  0  0  0  0  0  0
    8.0135    5.4857  -12.2803 C   0  0  0  0  0  0  0  0  0  0  0  0
    8.6678    5.0525  -10.9464 C   0  0  0  0  0  0  0  0  0  0  0  0
    8.6811    6.0980   -9.8816 N   0  0  0  0  0  0  0  0  0  0  0  0
    9.6246    7.2068  -10.1896 C   0  0  0  0  0  0  0  0  0  0  0  0
    9.7072    8.2228   -9.0433 C   0  0  0  0  0  0  0  0  0  0  0  0
   10.0705    7.5908   -7.7652 N   0  0  0  0  0  0  0  0  0  0  0  0
   10.7006    8.4008   -6.7688 C   0  0  0  0  0  0  0  0  0  0  0  0
   10.8874    9.6693   -7.0544 N   0  0  0  0  0  0  0  0  0  0  0  0
   11.6493   10.4908   -5.8495 S   0  0  0  0  0  0  0  0  0  0  0  0
   11.6868    9.1358   -4.7587 C   0  0  0  0  0  0  0  0  0  0  0  0
   12.1436    9.1024   -3.4283 C   0  0  0  0  0  0  0  0  0  0  0  0
   12.1781    7.8825   -2.7417 C   0  0  0  0  0  0  0  0  0  0  0  0
   11.7632    6.7152   -3.4015 C   0  0  0  0  0  0  0  0  0  0  0  0
   11.2869    6.7618   -4.7296 C   0  0  0  0  0  0  0  0  0  0  0  0
   11.1878    7.9824   -5.4494 C   0  0  0  0  0  0  0  0  0  0  0  0
    9.1162    6.5352   -7.4146 C   0  0  0  0  0  0  0  0  0  0  0  0
    8.9767    5.4917   -8.5496 C   0  0  0  0  0  0  0  0  0  0  0  0
    7.4716    1.4754  -19.7777 H   0  0  0  0  0  0  0  0  0  0  0  0
    5.3845    0.7668  -20.8722 H   0  0  0  0  0  0  0  0  0  0  0  0
    3.6526   -0.4407  -19.5844 H   0  0  0  0  0  0  0  0  0  0  0  0
    2.8958   -1.4564  -17.4303 H   0  0  0  0  0  0  0  0  0  0  0  0
    3.3020   -1.9707  -15.0564 H   0  0  0  0  0  0  0  0  0  0  0  0
    5.3859   -1.1912  -13.9647 H   0  0  0  0  0  0  0  0  0  0  0  0
   10.4516    1.1997  -15.7958 H   0  0  0  0  0  0  0  0  0  0  0  0
    9.8299    0.9094  -14.2398 H   0  0  0  0  0  0  0  0  0  0  0  0
    9.2951    3.5122  -15.7827 H   0  0  0  0  0  0  0  0  0  0  0  0
   10.6428    3.2767  -14.7190 H   0  0  0  0  0  0  0  0  0  0  0  0
    9.1731    2.9717  -12.7904 H   0  0  0  0  0  0  0  0  0  0  0  0
    7.7421    3.0734  -13.7944 H   0  0  0  0  0  0  0  0  0  0  0  0
    8.3279    5.3958  -14.4265 H   0  0  0  0  0  0  0  0  0  0  0  0
    9.7947    5.3251  -13.5014 H   0  0  0  0  0  0  0  0  0  0  0  0
    6.9744    5.1503  -12.2993 H   0  0  0  0  0  0  0  0  0  0  0  0
    7.9535    6.5721  -12.3540 H   0  0  0  0  0  0  0  0  0  0  0  0
    9.6948    4.7319  -11.1241 H   0  0  0  0  0  0  0  0  0  0  0  0
    8.1360    4.1765  -10.5779 H   0  0  0  0  0  0  0  0  0  0  0  0
    9.3151    7.7305  -11.0931 H   0  0  0  0  0  0  0  0  0  0  0  0
   10.6252    6.8046  -10.3797 H   0  0  0  0  0  0  0  0  0  0  0  0
    8.7389    8.7181   -8.9113 H   0  0  0  0  0  0  0  0  0  0  0  0
   10.4158    9.0040   -9.3403 H   0  0  0  0  0  0  0  0  0  0  0  0
   12.4902   10.0054   -2.9425 H   0  0  0  0  0  0  0  0  0  0  0  0
   12.5504    7.8377   -1.7277 H   0  0  0  0  0  0  0  0  0  0  0  0
   11.8103    5.7738   -2.8789 H   0  0  0  0  0  0  0  0  0  0  0  0
   11.0130    5.8331   -5.1965 H   0  0  0  0  0  0  0  0  0  0  0  0
    9.4095    6.0132   -6.5072 H   0  0  0  0  0  0  0  0  0  0  0  0
    8.1430    6.9916   -7.2012 H   0  0  0  0  0  0  0  0  0  0  0  0
    8.1952    4.7668   -8.2899 H   0  0  0  0  0  0  0  0  0  0  0  0
    9.9130    4.9279   -8.6235 H   0  0  0  0  0  0  0  0  0  0  0  0
    7.7486    6.5123   -9.8378 H   0  0  0  0  0  0  0  0  0  0  0  0
  2  1  2  0
  3  2  1  0
  4  3  1  0
  5  4  2  0
  6  5  1  0
  7  6  2  0
  8  7  1  0
  9  8  2  0
 10  9  1  0
 11 10  2  0
 12  3  2  0
 12  7  1  0
 12 11  1  0
 13 11  1  0
 14 13  2  0
 15  2  1  0
 15 13  1  0
 16 15  1  0
 17 16  1  0
 18 17  1  0
 19 18  1  0
 20 19  1  0
 21 20  1  0
 22 21  1  0
 23 22  1  0
 24 23  1  0
 25 24  1  0
 26 25  1  0
 27 26  2  0
 28 27  1  0
 29 28  1  0
 30 29  2  0
 31 30  1  0
 32 31  2  0
 33 32  1  0
 34 26  1  0
 34 29  1  0
 34 33  2  0
 35 25  1  0
 36 22  1  0
 36 35  1  0
 37  4  1  0
 38  5  1  0
 39  6  1  0
 40  8  1  0
 41  9  1  0
 42 10  1  0
 43 16  1  0
 44 16  1  0
 45 17  1  0
 46 17  1  0
 47 18  1  0
 48 18  1  0
 49 19  1  0
 50 19  1  0
 51 20  1  0
 52 20  1  0
 53 21  1  0
 54 21  1  0
 55 23  1  0
 56 23  1  0
 57 24  1  0
 58 24  1  0
 59 30  1  0
 60 31  1  0
 61 32  1  0
 62 33  1  0
 63 35  1  0
 64 35  1  0
 65 36  1  0
 66 36  1  0
 67 22  1  0
M  CHG  1  22   1
M  END
>  <b_m_subgroup_collapsed>  (130) 
0

>  <r_i_docking_score>  (130) 
-8.8907109262843402

>  <s_m_subgroup_title>  (130) 
glide-dock_SP_D22_pv

>  <s_m_subgroupid>  (130) 
glide-dock_SP_D22_pv

>  <Molecule ChEMBL ID>  (130) 
CHEMBL4646868

>  <Standard Type>  (130) 
Ki

>  <Standard Value>  (130) 
59.0

>  <label>  (130) 
1

$$$$
CHEMBL198580
     RDKit          3D

 49 52  0  0  1  0  0  0  0  0999 V2000
   10.0859    8.5721  -10.9916 O   0  0  0  0  0  0  0  0  0  0  0  0
    9.8219    7.7195  -10.1491 C   0  0  0  0  0  0  0  0  0  0  0  0
    9.2879    6.5305  -10.4426 N   0  0  0  0  0  0  0  0  0  0  0  0
    8.8773    6.0584  -11.7520 C   0  0  1  0  0  0  0  0  0  0  0  0
    9.7683    4.9477  -12.2924 C   0  0  0  0  0  0  0  0  0  0  0  0
    8.8299    4.1803  -13.2097 C   0  0  0  0  0  0  0  0  0  0  0  0
    7.5226    4.2230  -12.5234 N   0  0  2  0  0  0  0  0  0  0  0  0
    6.3405    4.0599  -13.3817 C   0  0  0  0  0  0  0  0  0  0  0  0
    6.1807    2.6101  -13.7742 C   0  0  0  0  0  0  0  0  0  0  0  0
    6.9193    2.0369  -14.8338 C   0  0  0  0  0  0  0  0  0  0  0  0
    6.7438    0.6769  -15.1629 C   0  0  0  0  0  0  0  0  0  0  0  0
    5.8056   -0.1010  -14.4577 C   0  0  0  0  0  0  0  0  0  0  0  0
    5.6129   -1.4004  -14.7847 F   0  0  0  0  0  0  0  0  0  0  0  0
    5.0647    0.4826  -13.4133 C   0  0  0  0  0  0  0  0  0  0  0  0
    4.1323   -0.2278  -12.7469 F   0  0  0  0  0  0  0  0  0  0  0  0
    5.2753    1.8189  -13.0490 C   0  0  0  0  0  0  0  0  0  0  0  0
    7.4963    5.4127  -11.6554 C   0  0  0  0  0  0  0  0  0  0  0  0
   10.1938    7.8823   -8.7061 C   0  0  0  0  0  0  0  0  0  0  0  0
   11.2690    8.7192   -8.3389 C   0  0  0  0  0  0  0  0  0  0  0  0
   11.6863    8.7892   -6.9960 C   0  0  0  0  0  0  0  0  0  0  0  0
   11.0532    8.0050   -6.0080 C   0  0  0  0  0  0  0  0  0  0  0  0
   11.5624    7.9352   -4.6472 C   0  0  0  0  0  0  0  0  0  0  0  0
   11.6860    6.8272   -3.8524 C   0  0  0  0  0  0  0  0  0  0  0  0
   12.2105    7.1230   -2.5642 C   0  0  0  0  0  0  0  0  0  0  0  0
   12.4734    8.4565   -2.3891 C   0  0  0  0  0  0  0  0  0  0  0  0
   12.0859    9.3726   -3.8178 S   0  0  0  0  0  0  0  0  0  0  0  0
    9.9402    7.2219   -6.3686 C   0  0  0  0  0  0  0  0  0  0  0  0
    9.4950    7.1783   -7.6989 C   0  0  0  0  0  0  0  0  0  0  0  0
    9.1239    5.9126   -9.6625 H   0  0  0  0  0  0  0  0  0  0  0  0
    8.8350    6.8740  -12.4764 H   0  0  0  0  0  0  0  0  0  0  0  0
   10.6565    5.3223  -12.8024 H   0  0  0  0  0  0  0  0  0  0  0  0
   10.0861    4.2910  -11.4813 H   0  0  0  0  0  0  0  0  0  0  0  0
    8.7670    4.6875  -14.1740 H   0  0  0  0  0  0  0  0  0  0  0  0
    9.1683    3.1584  -13.3825 H   0  0  0  0  0  0  0  0  0  0  0  0
    5.4471    4.3729  -12.8379 H   0  0  0  0  0  0  0  0  0  0  0  0
    6.4070    4.7049  -14.2471 H   0  0  0  0  0  0  0  0  0  0  0  0
    7.6248    2.6299  -15.3970 H   0  0  0  0  0  0  0  0  0  0  0  0
    7.3128    0.2325  -15.9665 H   0  0  0  0  0  0  0  0  0  0  0  0
    4.6996    2.2404  -12.2382 H   0  0  0  0  0  0  0  0  0  0  0  0
    7.2863    5.0672  -10.6475 H   0  0  0  0  0  0  0  0  0  0  0  0
    6.7156    6.1264  -11.9249 H   0  0  0  0  0  0  0  0  0  0  0  0
   11.8059    9.2810   -9.0907 H   0  0  0  0  0  0  0  0  0  0  0  0
   12.5408    9.3982   -6.7406 H   0  0  0  0  0  0  0  0  0  0  0  0
   11.4220    5.8226   -4.1502 H   0  0  0  0  0  0  0  0  0  0  0  0
   12.3728    6.3500   -1.8292 H   0  0  0  0  0  0  0  0  0  0  0  0
   12.8676    8.9615   -1.5183 H   0  0  0  0  0  0  0  0  0  0  0  0
    9.4265    6.6333   -5.6229 H   0  0  0  0  0  0  0  0  0  0  0  0
    8.6328    6.5690   -7.9321 H   0  0  0  0  0  0  0  0  0  0  0  0
    7.5152    3.4413  -11.8832 H   0  0  0  0  0  0  0  0  0  0  0  0
  2  1  2  0
  3  2  1  0
  4  3  1  0
  5  4  1  0
  6  5  1  0
  7  6  1  0
  8  7  1  0
  9  8  1  0
 10  9  1  0
 11 10  2  0
 12 11  1  0
 13 12  1  0
 14 12  2  0
 15 14  1  0
 16  9  2  0
 16 14  1  0
 17  4  1  0
 17  7  1  0
 18  2  1  0
 19 18  1  0
 20 19  2  0
 21 20  1  0
 22 21  1  0
 23 22  2  0
 24 23  1  0
 25 24  2  0
 26 22  1  0
 26 25  1  0
 27 21  2  0
 28 18  2  0
 28 27  1  0
 29  3  1  0
  4 30  1  6
 31  5  1  0
 32  5  1  0
 33  6  1  0
 34  6  1  0
 35  8  1  0
 36  8  1  0
 37 10  1  0
 38 11  1  0
 39 16  1  0
 40 17  1  0
 41 17  1  0
 42 19  1  0
 43 20  1  0
 44 23  1  0
 45 24  1  0
 46 25  1  0
 47 27  1  0
 48 28  1  0
  7 49  1  1
M  CHG  1   7   1
M  END
>  <b_m_subgroup_collapsed>  (131) 
0

>  <r_i_docking_score>  (131) 
-8.8892101183819108

>  <s_m_subgroup_title>  (131) 
glide-dock_SP_D22_pv

>  <s_m_subgroupid>  (131) 
glide-dock_SP_D22_pv

>  <Molecule ChEMBL ID>  (131) 
CHEMBL198580

>  <Standard Type>  (131) 
Ki

>  <Standard Value>  (131) 
18000.0

>  <label>  (131) 
0

$$$$
CHEMBL5750360
     RDKit          3D

 60 63  0  0  1  0  0  0  0  0999 V2000
    7.8540    6.3725  -12.7522 O   0  0  0  0  0  0  0  0  0  0  0  0
    8.8442    5.7811  -12.3250 C   0  0  0  0  0  0  0  0  0  0  0  0
    9.4726    4.8177  -13.0114 N   0  0  0  0  0  0  0  0  0  0  0  0
    9.1148    4.3767  -14.3562 C   0  0  2  0  0  0  0  0  0  0  0  0
    8.2910    3.0912  -14.3042 C   0  0  0  0  0  0  0  0  0  0  0  0
    8.8354    1.8361  -14.6677 C   0  0  0  0  0  0  0  0  0  0  0  0
    8.0302    0.6802  -14.6467 C   0  0  0  0  0  0  0  0  0  0  0  0
    6.6824    0.7662  -14.2470 C   0  0  0  0  0  0  0  0  0  0  0  0
    5.6845   -0.6387  -14.2469 Cl  0  0  0  0  0  0  0  0  0  0  0  0
    6.1449    2.0040  -13.8467 C   0  0  0  0  0  0  0  0  0  0  0  0
    6.9444    3.1603  -13.8765 C   0  0  0  0  0  0  0  0  0  0  0  0
   10.2991    4.3659  -15.3233 C   0  0  0  0  0  0  0  0  0  0  0  0
   11.6351    4.5252  -14.8828 C   0  0  0  0  0  0  0  0  0  0  0  0
   12.6611    4.5677  -15.8438 C   0  0  0  0  0  0  0  0  0  0  0  0
   12.3262    4.4307  -17.2040 C   0  0  0  0  0  0  0  0  0  0  0  0
   10.9703    4.2717  -17.5455 C   0  0  0  0  0  0  0  0  0  0  0  0
    9.9766    4.2452  -16.6331 N   0  0  0  0  0  0  0  0  0  0  0  0
    9.4283    6.1402  -10.9557 C   0  0  1  0  0  0  0  0  0  0  0  0
    9.4648    7.6669  -10.7350 C   0  0  0  0  0  0  0  0  0  0  0  0
    9.9418    8.0165   -9.3174 C   0  0  0  0  0  0  0  0  0  0  0  0
    9.1439    7.3154   -8.2729 N   0  0  2  0  0  0  0  0  0  0  0  0
    9.4817    7.7246   -6.8831 C   0  0  0  0  0  0  0  0  0  0  0  0
   10.9881    7.5992   -6.5526 C   0  0  0  0  0  0  0  0  0  0  0  0
   11.2859    7.8571   -5.1524 N   0  0  0  0  0  0  0  0  0  0  0  0
   11.6033    6.8145   -4.2822 C   0  0  0  0  0  0  0  0  0  0  0  0
   12.0860    6.9832   -3.0354 C   0  0  0  0  0  0  0  0  0  0  0  0
   12.3256    8.3525   -2.5406 C   0  0  0  0  0  0  0  0  0  0  0  0
   12.8358    8.5725   -1.4474 O   0  0  0  0  0  0  0  0  0  0  0  0
   11.9356    9.4473   -3.4447 C   0  0  0  0  0  0  0  0  0  0  0  0
   11.4629    9.1551   -4.6741 C   0  0  0  0  0  0  0  0  0  0  0  0
    9.1252    5.8424   -8.4555 C   0  0  0  0  0  0  0  0  0  0  0  0
    8.6015    5.4706   -9.8476 C   0  0  0  0  0  0  0  0  0  0  0  0
   10.2574    4.3527  -12.5815 H   0  0  0  0  0  0  0  0  0  0  0  0
    8.4567    5.1292  -14.7935 H   0  0  0  0  0  0  0  0  0  0  0  0
    9.8647    1.7501  -14.9803 H   0  0  0  0  0  0  0  0  0  0  0  0
    8.4437   -0.2727  -14.9471 H   0  0  0  0  0  0  0  0  0  0  0  0
    5.1152    2.0685  -13.5277 H   0  0  0  0  0  0  0  0  0  0  0  0
    6.5179    4.1084  -13.5808 H   0  0  0  0  0  0  0  0  0  0  0  0
   11.8895    4.6311  -13.8375 H   0  0  0  0  0  0  0  0  0  0  0  0
   13.6892    4.6995  -15.5409 H   0  0  0  0  0  0  0  0  0  0  0  0
   13.0893    4.4549  -17.9678 H   0  0  0  0  0  0  0  0  0  0  0  0
   10.6739    4.1680  -18.5801 H   0  0  0  0  0  0  0  0  0  0  0  0
   10.4519    5.7743  -10.8999 H   0  0  0  0  0  0  0  0  0  0  0  0
   10.1288    8.1341  -11.4648 H   0  0  0  0  0  0  0  0  0  0  0  0
    8.4861    8.1077  -10.9043 H   0  0  0  0  0  0  0  0  0  0  0  0
   10.9939    7.7435   -9.2358 H   0  0  0  0  0  0  0  0  0  0  0  0
    9.8775    9.0954   -9.1655 H   0  0  0  0  0  0  0  0  0  0  0  0
    9.1634    8.7583   -6.7424 H   0  0  0  0  0  0  0  0  0  0  0  0
    8.8866    7.1309   -6.1866 H   0  0  0  0  0  0  0  0  0  0  0  0
   11.3534    6.6048   -6.8084 H   0  0  0  0  0  0  0  0  0  0  0  0
   11.5718    8.3006   -7.1487 H   0  0  0  0  0  0  0  0  0  0  0  0
   11.4070    5.8269   -4.6741 H   0  0  0  0  0  0  0  0  0  0  0  0
   12.3031    6.1428   -2.3905 H   0  0  0  0  0  0  0  0  0  0  0  0
   12.0404   10.4644   -3.0947 H   0  0  0  0  0  0  0  0  0  0  0  0
   11.1656    9.9308   -5.3659 H   0  0  0  0  0  0  0  0  0  0  0  0
   10.1242    5.4263   -8.3139 H   0  0  0  0  0  0  0  0  0  0  0  0
    8.4771    5.3874   -7.7039 H   0  0  0  0  0  0  0  0  0  0  0  0
    7.5600    5.7721   -9.9406 H   0  0  0  0  0  0  0  0  0  0  0  0
    8.6162    4.3858   -9.9666 H   0  0  0  0  0  0  0  0  0  0  0  0
    8.1777    7.5922   -8.4188 H   0  0  0  0  0  0  0  0  0  0  0  0
  2  1  2  0
  3  2  1  0
  4  3  1  0
  5  4  1  0
  6  5  1  0
  7  6  2  0
  8  7  1  0
  9  8  1  0
 10  8  2  0
 11  5  2  0
 11 10  1  0
 12  4  1  0
 13 12  2  0
 14 13  1  0
 15 14  2  0
 16 15  1  0
 17 12  1  0
 17 16  2  0
 18  2  1  0
 19 18  1  0
 20 19  1  0
 21 20  1  0
 22 21  1  0
 23 22  1  0
 24 23  1  0
 25 24  1  0
 26 25  2  0
 27 26  1  0
 28 27  2  0
 29 27  1  0
 30 24  1  0
 30 29  2  0
 31 21  1  0
 32 18  1  0
 32 31  1  0
 33  3  1  0
  4 34  1  6
 35  6  1  0
 36  7  1  0
 37 10  1  0
 38 11  1  0
 39 13  1  0
 40 14  1  0
 41 15  1  0
 42 16  1  0
 18 43  1  6
 44 19  1  0
 45 19  1  0
 46 20  1  0
 47 20  1  0
 48 22  1  0
 49 22  1  0
 50 23  1  0
 51 23  1  0
 52 25  1  0
 53 26  1  0
 54 29  1  0
 55 30  1  0
 56 31  1  0
 57 31  1  0
 58 32  1  0
 59 32  1  0
 21 60  1  6
M  CHG  1  21   1
M  END
>  <b_m_subgroup_collapsed>  (132) 
0

>  <r_i_docking_score>  (132) 
-8.8891005017479898

>  <s_m_subgroup_title>  (132) 
glide-dock_SP_D22_pv

>  <s_m_subgroupid>  (132) 
glide-dock_SP_D22_pv

>  <Molecule ChEMBL ID>  (132) 
CHEMBL5750360

>  <Standard Type>  (132) 
Ki

>  <Standard Value>  (132) 
20000.0

>  <label>  (132) 
0

$$$$
CHEMBL4590192
     RDKit          3D

 63 66  0  0  1  0  0  0  0  0999 V2000
    5.2869    0.6032  -12.2142 O   0  0  0  0  0  0  0  0  0  0  0  0
    5.6323    1.0647  -13.2990 C   0  0  0  0  0  0  0  0  0  0  0  0
    6.0389    2.3330  -13.4768 N   0  0  0  0  0  0  0  0  0  0  0  0
    6.1026    3.3833  -12.4648 C   0  0  0  0  0  0  0  0  0  0  0  0
    7.2563    4.3489  -12.7902 C   0  0  0  0  0  0  0  0  0  0  0  0
    7.4673    5.4543  -11.7397 C   0  0  0  0  0  0  0  0  0  0  0  0
    8.2457    4.9725  -10.5003 C   0  0  0  0  0  0  0  0  0  0  0  0
    8.4927    6.0464   -9.5005 N   0  0  0  0  0  0  0  0  0  0  0  0
    8.5920    5.4935   -8.1222 C   0  0  0  0  0  0  0  0  0  0  0  0
    8.8843    6.5841   -7.0821 C   0  0  0  0  0  0  0  0  0  0  0  0
   10.1287    7.2505   -7.4272 N   0  0  0  0  0  0  0  0  0  0  0  0
   10.8420    7.8662   -6.3737 C   0  0  0  0  0  0  0  0  0  0  0  0
   11.3624    9.1683   -6.5363 C   0  0  0  0  0  0  0  0  0  0  0  0
   12.0862    9.7812   -5.5081 C   0  0  0  0  0  0  0  0  0  0  0  0
   12.2782    9.1327   -4.2783 C   0  0  0  0  0  0  0  0  0  0  0  0
   11.7664    7.8343   -4.0755 C   0  0  0  0  0  0  0  0  0  0  0  0
   11.9892    7.1350   -2.7322 C   0  0  0  0  0  0  0  0  0  0  0  0
   12.4441    8.0014   -1.8282 F   0  0  0  0  0  0  0  0  0  0  0  0
   10.8861    6.5723   -2.2475 F   0  0  0  0  0  0  0  0  0  0  0  0
   12.8859    6.1724   -2.8596 F   0  0  0  0  0  0  0  0  0  0  0  0
   11.0708    7.2006   -5.1357 C   0  0  0  0  0  0  0  0  0  0  0  0
   10.0819    7.8734   -8.7525 C   0  0  0  0  0  0  0  0  0  0  0  0
    9.6886    6.8620   -9.8484 C   0  0  0  0  0  0  0  0  0  0  0  0
    5.5182    0.2496  -14.5544 C   0  0  0  0  0  0  0  0  0  0  0  0
    4.4259   -0.6291  -14.7266 C   0  0  0  0  0  0  0  0  0  0  0  0
    4.2473   -1.3146  -15.9441 C   0  0  0  0  0  0  0  0  0  0  0  0
    5.1536   -1.1255  -17.0097 C   0  0  0  0  0  0  0  0  0  0  0  0
    4.9173   -1.7782  -18.3006 C   0  0  0  0  0  0  0  0  0  0  0  0
    5.1963   -1.1105  -19.5362 C   0  0  0  0  0  0  0  0  0  0  0  0
    4.8841   -1.8571  -20.6415 C   0  0  0  0  0  0  0  0  0  0  0  0
    4.2314   -3.4084  -20.2026 S   0  0  0  0  0  0  0  0  0  0  0  0
    4.3957   -3.0302  -18.5113 C   0  0  0  0  0  0  0  0  0  0  0  0
    6.2743   -0.2875  -16.8179 C   0  0  0  0  0  0  0  0  0  0  0  0
    6.4655    0.3851  -15.5955 C   0  0  0  0  0  0  0  0  0  0  0  0
    6.2589    2.6063  -14.4230 H   0  0  0  0  0  0  0  0  0  0  0  0
    5.1546    3.9225  -12.4644 H   0  0  0  0  0  0  0  0  0  0  0  0
    6.2177    2.9720  -11.4634 H   0  0  0  0  0  0  0  0  0  0  0  0
    8.1857    3.7930  -12.9264 H   0  0  0  0  0  0  0  0  0  0  0  0
    7.0473    4.8189  -13.7518 H   0  0  0  0  0  0  0  0  0  0  0  0
    8.0086    6.2772  -12.2062 H   0  0  0  0  0  0  0  0  0  0  0  0
    6.4970    5.8552  -11.4467 H   0  0  0  0  0  0  0  0  0  0  0  0
    7.6861    4.1720  -10.0279 H   0  0  0  0  0  0  0  0  0  0  0  0
    9.1920    4.5187  -10.7991 H   0  0  0  0  0  0  0  0  0  0  0  0
    7.6812    4.9743   -7.8479 H   0  0  0  0  0  0  0  0  0  0  0  0
    9.3855    4.7457   -8.0997 H   0  0  0  0  0  0  0  0  0  0  0  0
    8.0860    7.3263   -7.0766 H   0  0  0  0  0  0  0  0  0  0  0  0
    8.8994    6.1708   -6.0779 H   0  0  0  0  0  0  0  0  0  0  0  0
   11.2246    9.7310   -7.4463 H   0  0  0  0  0  0  0  0  0  0  0  0
   12.4891   10.7653   -5.6840 H   0  0  0  0  0  0  0  0  0  0  0  0
   12.8318    9.6393   -3.5007 H   0  0  0  0  0  0  0  0  0  0  0  0
   10.7152    6.1928   -4.9801 H   0  0  0  0  0  0  0  0  0  0  0  0
    9.3666    8.6979   -8.7325 H   0  0  0  0  0  0  0  0  0  0  0  0
   11.0533    8.2918   -9.0172 H   0  0  0  0  0  0  0  0  0  0  0  0
   10.5342    6.1926  -10.0087 H   0  0  0  0  0  0  0  0  0  0  0  0
    9.5195    7.3874  -10.7883 H   0  0  0  0  0  0  0  0  0  0  0  0
    3.6930   -0.7518  -13.9424 H   0  0  0  0  0  0  0  0  0  0  0  0
    3.3897   -1.9619  -16.0689 H   0  0  0  0  0  0  0  0  0  0  0  0
    5.5959   -0.1082  -19.5760 H   0  0  0  0  0  0  0  0  0  0  0  0
    4.9719   -1.5837  -21.6836 H   0  0  0  0  0  0  0  0  0  0  0  0
    4.0858   -3.7553  -17.7703 H   0  0  0  0  0  0  0  0  0  0  0  0
    6.9938   -0.1529  -17.6119 H   0  0  0  0  0  0  0  0  0  0  0  0
    7.3253    1.0292  -15.4791 H   0  0  0  0  0  0  0  0  0  0  0  0
    7.6826    6.6691   -9.5161 H   0  0  0  0  0  0  0  0  0  0  0  0
  2  1  2  0
  3  2  1  0
  4  3  1  0
  5  4  1  0
  6  5  1  0
  7  6  1  0
  8  7  1  0
  9  8  1  0
 10  9  1  0
 11 10  1  0
 12 11  1  0
 13 12  1  0
 14 13  2  0
 15 14  1  0
 16 15  2  0
 17 16  1  0
 18 17  1  0
 19 17  1  0
 20 17  1  0
 21 12  2  0
 21 16  1  0
 22 11  1  0
 23  8  1  0
 23 22  1  0
 24  2  1  0
 25 24  1  0
 26 25  2  0
 27 26  1  0
 28 27  1  0
 29 28  1  0
 30 29  2  0
 31 30  1  0
 32 28  2  0
 32 31  1  0
 33 27  2  0
 34 24  2  0
 34 33  1  0
 35  3  1  0
 36  4  1  0
 37  4  1  0
 38  5  1  0
 39  5  1  0
 40  6  1  0
 41  6  1  0
 42  7  1  0
 43  7  1  0
 44  9  1  0
 45  9  1  0
 46 10  1  0
 47 10  1  0
 48 13  1  0
 49 14  1  0
 50 15  1  0
 51 21  1  0
 52 22  1  0
 53 22  1  0
 54 23  1  0
 55 23  1  0
 56 25  1  0
 57 26  1  0
 58 29  1  0
 59 30  1  0
 60 32  1  0
 61 33  1  0
 62 34  1  0
 63  8  1  0
M  CHG  1   8   1
M  END
>  <b_m_subgroup_collapsed>  (133) 
0

>  <r_i_docking_score>  (133) 
-8.8879046963111694

>  <s_m_subgroup_title>  (133) 
glide-dock_SP_D22_pv

>  <s_m_subgroupid>  (133) 
glide-dock_SP_D22_pv

>  <Molecule ChEMBL ID>  (133) 
CHEMBL4590192

>  <Standard Type>  (133) 
Ki

>  <Standard Value>  (133) 
99.7

>  <label>  (133) 
1

$$$$
CHEMBL1779059
     RDKit          3D

 64 71  0  0  1  0  0  0  0  0999 V2000
    5.9125    0.1860  -14.8801 C   0  0  0  0  0  0  0  0  0  0  0  0
    6.8804    1.1972  -15.1179 O   0  0  0  0  0  0  0  0  0  0  0  0
    6.9286    2.2705  -14.2492 C   0  0  0  0  0  0  0  0  0  0  0  0
    5.9217    2.5523  -13.2949 C   0  0  0  0  0  0  0  0  0  0  0  0
    6.0637    3.6388  -12.4141 C   0  0  0  0  0  0  0  0  0  0  0  0
    7.2049    4.4590  -12.4818 C   0  0  0  0  0  0  0  0  0  0  0  0
    7.3760    5.5987  -11.5008 C   0  0  0  0  0  0  0  0  0  0  0  0
    8.4278    5.3037  -10.4119 C   0  0  0  0  0  0  0  0  0  0  0  0
    8.4868    6.3685   -9.3693 N   0  0  1  0  0  0  0  0  0  0  0  0
    8.9516    5.9301   -8.0406 C   0  0  2  0  0  0  0  0  0  0  0  0
    8.8862    7.2226   -7.1782 C   0  0  1  0  0  0  0  0  0  0  0  0
   10.1254    7.2345   -6.2447 C   0  0  2  0  0  0  0  0  0  0  0  0
   10.5135    8.7137   -6.2384 C   0  0  0  0  0  0  0  0  0  0  0  0
   10.6356    8.8185   -7.7547 C   0  0  1  0  0  0  0  0  0  0  0  0
   11.5225    7.6486   -8.1463 C   0  0  1  0  0  0  0  0  0  0  0  0
   11.1722    6.5669   -7.1268 C   0  0  2  0  0  0  0  0  0  0  0  0
   10.4628    5.7730   -8.2151 C   0  0  2  0  0  0  0  0  0  0  0  0
   10.8196    6.8544   -9.2352 C   0  0  1  0  0  0  0  0  0  0  0  0
    9.4664    7.4705   -9.5020 C   0  0  1  0  0  0  0  0  0  0  0  0
    9.2385    8.0705  -10.7580 O   0  0  0  0  0  0  0  0  0  0  0  0
    9.2424    8.3328   -8.2370 C   0  0  1  0  0  0  0  0  0  0  0  0
    8.1862    4.2142  -13.4592 C   0  0  0  0  0  0  0  0  0  0  0  0
    8.0599    3.1144  -14.3458 C   0  0  0  0  0  0  0  0  0  0  0  0
    8.9523    2.8088  -15.3521 O   0  0  0  0  0  0  0  0  0  0  0  0
   10.2567    3.3784  -15.3922 C   0  0  0  0  0  0  0  0  0  0  0  0
   11.2948    2.2505  -15.3899 C   0  0  0  0  0  0  0  0  0  0  0  0
   11.1335    1.2583  -16.5286 C   0  0  0  0  0  0  0  0  0  0  0  0
   11.9575    1.3528  -17.6711 C   0  0  0  0  0  0  0  0  0  0  0  0
   11.8355    0.4128  -18.7118 C   0  0  0  0  0  0  0  0  0  0  0  0
   10.8827   -0.6205  -18.6223 C   0  0  0  0  0  0  0  0  0  0  0  0
   10.0574   -0.7145  -17.4866 C   0  0  0  0  0  0  0  0  0  0  0  0
   10.1848    0.2172  -16.4391 C   0  0  0  0  0  0  0  0  0  0  0  0
    6.0442   -0.6184  -15.6028 H   0  0  0  0  0  0  0  0  0  0  0  0
    4.8986    0.5723  -14.9963 H   0  0  0  0  0  0  0  0  0  0  0  0
    6.0223   -0.2418  -13.8828 H   0  0  0  0  0  0  0  0  0  0  0  0
    5.0368    1.9407  -13.2068 H   0  0  0  0  0  0  0  0  0  0  0  0
    5.2977    3.8254  -11.6741 H   0  0  0  0  0  0  0  0  0  0  0  0
    7.6232    6.5007  -12.0613 H   0  0  0  0  0  0  0  0  0  0  0  0
    6.4025    5.7721  -11.0471 H   0  0  0  0  0  0  0  0  0  0  0  0
    8.1408    4.3714   -9.9241 H   0  0  0  0  0  0  0  0  0  0  0  0
    9.4107    5.1304  -10.8545 H   0  0  0  0  0  0  0  0  0  0  0  0
    8.4336    5.0695   -7.6198 H   0  0  0  0  0  0  0  0  0  0  0  0
    7.9438    7.3999   -6.6557 H   0  0  0  0  0  0  0  0  0  0  0  0
    9.9758    6.7608   -5.2748 H   0  0  0  0  0  0  0  0  0  0  0  0
    9.7368    9.3692   -5.8439 H   0  0  0  0  0  0  0  0  0  0  0  0
   11.4559    8.9039   -5.7234 H   0  0  0  0  0  0  0  0  0  0  0  0
   10.9596    9.7720   -8.1583 H   0  0  0  0  0  0  0  0  0  0  0  0
   12.5898    7.8292   -8.2742 H   0  0  0  0  0  0  0  0  0  0  0  0
   12.0274    6.0908   -6.6464 H   0  0  0  0  0  0  0  0  0  0  0  0
   10.8528    4.7843   -8.4486 H   0  0  0  0  0  0  0  0  0  0  0  0
   11.4270    6.5722  -10.0886 H   0  0  0  0  0  0  0  0  0  0  0  0
    8.2999    8.2205  -10.8367 H   0  0  0  0  0  0  0  0  0  0  0  0
    8.4791    9.1079   -8.3173 H   0  0  0  0  0  0  0  0  0  0  0  0
    9.0146    4.9026  -13.5045 H   0  0  0  0  0  0  0  0  0  0  0  0
   10.3412    3.9673  -16.3061 H   0  0  0  0  0  0  0  0  0  0  0  0
   10.5051    4.0441  -14.5710 H   0  0  0  0  0  0  0  0  0  0  0  0
   12.2914    2.6910  -15.4473 H   0  0  0  0  0  0  0  0  0  0  0  0
   11.2486    1.7084  -14.4446 H   0  0  0  0  0  0  0  0  0  0  0  0
   12.6948    2.1384  -17.7449 H   0  0  0  0  0  0  0  0  0  0  0  0
   12.4731    0.4830  -19.5806 H   0  0  0  0  0  0  0  0  0  0  0  0
   10.7806   -1.3367  -19.4229 H   0  0  0  0  0  0  0  0  0  0  0  0
    9.3211   -1.5018  -17.4238 H   0  0  0  0  0  0  0  0  0  0  0  0
    9.5462    0.1349  -15.5691 H   0  0  0  0  0  0  0  0  0  0  0  0
    7.5520    6.7742   -9.2847 H   0  0  0  0  0  0  0  0  0  0  0  0
  2  1  1  0
  3  2  1  0
  4  3  1  0
  5  4  2  0
  6  5  1  0
  7  6  1  0
  8  7  1  0
  9  8  1  0
 10  9  1  0
 11 10  1  0
 12 11  1  0
 13 12  1  0
 14 13  1  0
 15 14  1  0
 16 12  1  0
 16 15  1  0
 17 10  1  0
 17 16  1  0
 18 15  1  0
 18 17  1  0
 19  9  1  0
 19 18  1  0
 19 20  1  6
 21 11  1  0
 21 14  1  0
 21 19  1  0
 22  6  2  0
 23  3  2  0
 23 22  1  0
 24 23  1  0
 25 24  1  0
 26 25  1  0
 27 26  1  0
 28 27  2  0
 29 28  1  0
 30 29  2  0
 31 30  1  0
 32 27  1  0
 32 31  2  0
 33  1  1  0
 34  1  1  0
 35  1  1  0
 36  4  1  0
 37  5  1  0
 38  7  1  0
 39  7  1  0
 40  8  1  0
 41  8  1  0
 10 42  1  1
 11 43  1  1
 12 44  1  1
 45 13  1  0
 46 13  1  0
 14 47  1  1
 15 48  1  6
 16 49  1  1
 17 50  1  6
 18 51  1  6
 52 20  1  0
 21 53  1  6
 54 22  1  0
 55 25  1  0
 56 25  1  0
 57 26  1  0
 58 26  1  0
 59 28  1  0
 60 29  1  0
 61 30  1  0
 62 31  1  0
 63 32  1  0
  9 64  1  1
M  CHG  1   9   1
M  END
>  <b_m_subgroup_collapsed>  (134) 
0

>  <r_i_docking_score>  (134) 
-8.8725182817930204

>  <s_m_subgroup_title>  (134) 
glide-dock_SP_D22_pv

>  <s_m_subgroupid>  (134) 
glide-dock_SP_D22_pv

>  <Molecule ChEMBL ID>  (134) 
CHEMBL1779059

>  <Standard Type>  (134) 
Ki

>  <Standard Value>  (134) 
10000.0

>  <label>  (134) 
0

$$$$
CHEMBL402143
     RDKit          3D

 59 61  0  0  1  0  0  0  0  0999 V2000
   10.9099    3.5629  -14.1432 C   0  0  0  0  0  0  0  0  0  0  0  0
    9.7628    4.4013  -14.1828 O   0  0  0  0  0  0  0  0  0  0  0  0
    8.5200    3.8337  -13.9776 C   0  0  0  0  0  0  0  0  0  0  0  0
    8.1524    2.5411  -14.4537 C   0  0  0  0  0  0  0  0  0  0  0  0
    9.0678    1.8049  -15.1766 O   0  0  0  0  0  0  0  0  0  0  0  0
    8.8518    0.4088  -15.3405 C   0  0  0  0  0  0  0  0  0  0  0  0
   10.1616   -0.2277  -15.8135 C   0  0  0  0  0  0  0  0  0  0  0  0
   10.4674    0.1760  -17.0458 F   0  0  0  0  0  0  0  0  0  0  0  0
    6.8445    2.0603  -14.1956 C   0  0  0  0  0  0  0  0  0  0  0  0
    5.9318    2.8245  -13.4472 C   0  0  0  0  0  0  0  0  0  0  0  0
    6.2904    4.1031  -12.9957 C   0  0  0  0  0  0  0  0  0  0  0  0
    7.5731    4.6215  -13.2732 C   0  0  0  0  0  0  0  0  0  0  0  0
    7.9471    6.0288  -12.8027 C   0  0  1  0  0  0  0  0  0  0  0  0
    6.8269    6.8875  -12.6469 O   0  0  0  0  0  0  0  0  0  0  0  0
    8.8693    6.0240  -11.5526 C   0  0  1  0  0  0  0  0  0  0  0  0
    9.3384    7.4345  -11.1372 C   0  0  0  0  0  0  0  0  0  0  0  0
   10.1734    7.4174   -9.8424 C   0  0  0  0  0  0  0  0  0  0  0  0
    9.4508    6.7400   -8.7293 N   0  0  2  0  0  0  0  0  0  0  0  0
   10.1713    6.7784   -7.4263 C   0  0  0  0  0  0  0  0  0  0  0  0
   10.3266    8.1916   -6.8217 C   0  0  0  0  0  0  0  0  0  0  0  0
   10.9934    8.2518   -5.4475 C   0  0  0  0  0  0  0  0  0  0  0  0
   11.4591    7.0979   -4.7684 C   0  0  0  0  0  0  0  0  0  0  0  0
   12.0451    7.2065   -3.4906 C   0  0  0  0  0  0  0  0  0  0  0  0
   12.1514    8.4639   -2.8695 C   0  0  0  0  0  0  0  0  0  0  0  0
   12.6972    8.5706   -1.6352 F   0  0  0  0  0  0  0  0  0  0  0  0
   11.6894    9.6129   -3.5349 C   0  0  0  0  0  0  0  0  0  0  0  0
   11.1320    9.5116   -4.8244 C   0  0  0  0  0  0  0  0  0  0  0  0
    9.1063    5.3434   -9.0993 C   0  0  0  0  0  0  0  0  0  0  0  0
    8.2327    5.3010  -10.3565 C   0  0  0  0  0  0  0  0  0  0  0  0
   11.7685    4.1475  -13.8130 H   0  0  0  0  0  0  0  0  0  0  0  0
   10.7927    2.7312  -13.4469 H   0  0  0  0  0  0  0  0  0  0  0  0
   11.1445    3.1727  -15.1338 H   0  0  0  0  0  0  0  0  0  0  0  0
    8.5655   -0.0447  -14.3903 H   0  0  0  0  0  0  0  0  0  0  0  0
    8.0549    0.2215  -16.0616 H   0  0  0  0  0  0  0  0  0  0  0  0
   10.9902    0.0372  -15.1573 H   0  0  0  0  0  0  0  0  0  0  0  0
   10.0860   -1.3137  -15.8480 H   0  0  0  0  0  0  0  0  0  0  0  0
    6.5169    1.0958  -14.5521 H   0  0  0  0  0  0  0  0  0  0  0  0
    4.9446    2.4380  -13.2405 H   0  0  0  0  0  0  0  0  0  0  0  0
    5.5725    4.6852  -12.4363 H   0  0  0  0  0  0  0  0  0  0  0  0
    8.4861    6.4801  -13.6272 H   0  0  0  0  0  0  0  0  0  0  0  0
    6.7203    7.1305  -11.7226 H   0  0  0  0  0  0  0  0  0  0  0  0
    9.7673    5.4623  -11.8130 H   0  0  0  0  0  0  0  0  0  0  0  0
    9.9229    7.8783  -11.9439 H   0  0  0  0  0  0  0  0  0  0  0  0
    8.4861    8.0965  -10.9941 H   0  0  0  0  0  0  0  0  0  0  0  0
   10.4040    8.4485   -9.5788 H   0  0  0  0  0  0  0  0  0  0  0  0
   11.1269    6.9171  -10.0180 H   0  0  0  0  0  0  0  0  0  0  0  0
    9.6078    6.1725   -6.7150 H   0  0  0  0  0  0  0  0  0  0  0  0
   11.1480    6.3059   -7.5441 H   0  0  0  0  0  0  0  0  0  0  0  0
   10.9181    8.8263   -7.4807 H   0  0  0  0  0  0  0  0  0  0  0  0
    9.3434    8.6579   -6.7382 H   0  0  0  0  0  0  0  0  0  0  0  0
   11.3776    6.1145   -5.2041 H   0  0  0  0  0  0  0  0  0  0  0  0
   12.3958    6.3213   -2.9799 H   0  0  0  0  0  0  0  0  0  0  0  0
   11.7678   10.5724   -3.0471 H   0  0  0  0  0  0  0  0  0  0  0  0
   10.7829   10.4048   -5.3226 H   0  0  0  0  0  0  0  0  0  0  0  0
    8.5638    4.8656   -8.2818 H   0  0  0  0  0  0  0  0  0  0  0  0
   10.0179    4.7637   -9.2550 H   0  0  0  0  0  0  0  0  0  0  0  0
    7.2860    5.7723  -10.1347 H   0  0  0  0  0  0  0  0  0  0  0  0
    8.0080    4.2637  -10.6049 H   0  0  0  0  0  0  0  0  0  0  0  0
    8.5672    7.2217   -8.6051 H   0  0  0  0  0  0  0  0  0  0  0  0
  2  1  1  0
  3  2  1  0
  4  3  2  0
  5  4  1  0
  6  5  1  0
  7  6  1  0
  8  7  1  0
  9  4  1  0
 10  9  2  0
 11 10  1  0
 12  3  1  0
 12 11  2  0
 13 12  1  0
 14 13  1  0
 15 13  1  0
 16 15  1  0
 17 16  1  0
 18 17  1  0
 19 18  1  0
 20 19  1  0
 21 20  1  0
 22 21  1  0
 23 22  2  0
 24 23  1  0
 25 24  1  0
 26 24  2  0
 27 21  2  0
 27 26  1  0
 28 18  1  0
 29 15  1  0
 29 28  1  0
 30  1  1  0
 31  1  1  0
 32  1  1  0
 33  6  1  0
 34  6  1  0
 35  7  1  0
 36  7  1  0
 37  9  1  0
 38 10  1  0
 39 11  1  0
 13 40  1  6
 41 14  1  0
 15 42  1  6
 43 16  1  0
 44 16  1  0
 45 17  1  0
 46 17  1  0
 47 19  1  0
 48 19  1  0
 49 20  1  0
 50 20  1  0
 51 22  1  0
 52 23  1  0
 53 26  1  0
 54 27  1  0
 55 28  1  0
 56 28  1  0
 57 29  1  0
 58 29  1  0
 18 59  1  1
M  CHG  1  18   1
M  END
>  <b_m_subgroup_collapsed>  (135) 
0

>  <r_i_docking_score>  (135) 
-8.8712785488890002

>  <s_m_subgroup_title>  (135) 
glide-dock_SP_D22_pv

>  <s_m_subgroupid>  (135) 
glide-dock_SP_D22_pv

>  <Molecule ChEMBL ID>  (135) 
CHEMBL402143

>  <Standard Type>  (135) 
Ki

>  <Standard Value>  (135) 
10000.0

>  <label>  (135) 
0

$$$$
CHEMBL1080155
     RDKit          3D

 61 65  0  0  1  0  0  0  0  0999 V2000
    8.8860    8.9651  -10.8024 C   0  0  0  0  0  0  0  0  0  0  0  0
    9.4130    7.8022   -9.9380 C   0  0  1  0  0  0  0  0  0  0  0  0
   10.0875    6.7074  -10.7745 C   0  0  0  0  0  0  0  0  0  0  0  0
   11.2317    7.2707  -11.5114 N   0  0  0  0  0  0  0  0  0  0  0  0
   11.6214    6.9604  -12.7795 C   0  0  0  0  0  0  0  0  0  0  0  0
   12.4860    7.6135  -13.3642 O   0  0  0  0  0  0  0  0  0  0  0  0
   11.1336    5.6908  -13.4467 C   0  0  0  0  0  0  0  0  0  0  0  0
   12.0855    4.7893  -13.9720 C   0  0  0  0  0  0  0  0  0  0  0  0
   11.6840    3.6190  -14.6461 C   0  0  0  0  0  0  0  0  0  0  0  0
   10.3164    3.3003  -14.8133 C   0  0  0  0  0  0  0  0  0  0  0  0
    9.8664    2.0794  -15.5190 C   0  0  0  0  0  0  0  0  0  0  0  0
   10.6257    1.5130  -16.5693 C   0  0  0  0  0  0  0  0  0  0  0  0
   10.1513    0.3959  -17.2806 C   0  0  0  0  0  0  0  0  0  0  0  0
    8.9006   -0.1626  -16.9634 C   0  0  0  0  0  0  0  0  0  0  0  0
    8.1283    0.3619  -15.9087 C   0  0  0  0  0  0  0  0  0  0  0  0
    6.9009   -0.2276  -15.6737 O   0  0  0  0  0  0  0  0  0  0  0  0
    6.2709   -0.0964  -14.4736 C   0  0  0  0  0  0  0  0  0  0  0  0
    5.8509    1.1712  -14.2472 F   0  0  0  0  0  0  0  0  0  0  0  0
    5.1702   -0.8832  -14.4484 F   0  0  0  0  0  0  0  0  0  0  0  0
    7.0579   -0.4888  -13.4450 F   0  0  0  0  0  0  0  0  0  0  0  0
    8.6341    1.4676  -15.1824 C   0  0  0  0  0  0  0  0  0  0  0  0
    9.3689    4.2206  -14.3168 C   0  0  0  0  0  0  0  0  0  0  0  0
    9.7690    5.3952  -13.6611 C   0  0  0  0  0  0  0  0  0  0  0  0
   12.0730    8.1723  -10.6895 C   0  0  0  0  0  0  0  0  0  0  0  0
   11.7624    8.1350   -9.1712 C   0  0  0  0  0  0  0  0  0  0  0  0
   10.3312    8.2401   -8.8753 N   0  0  0  0  0  0  0  0  0  0  0  0
    9.8556    8.5745   -7.6563 C   0  0  0  0  0  0  0  0  0  0  0  0
    8.7129    8.9723   -7.4855 O   0  0  0  0  0  0  0  0  0  0  0  0
   10.6993    8.3127   -6.4406 C   0  0  0  0  0  0  0  0  0  0  0  0
   11.0739    6.9877   -6.1338 C   0  0  0  0  0  0  0  0  0  0  0  0
   11.6859    6.6862   -4.9033 C   0  0  0  0  0  0  0  0  0  0  0  0
   11.9419    7.6835   -3.9434 C   0  0  0  0  0  0  0  0  0  0  0  0
   12.4860    7.6743   -2.6177 C   0  0  0  0  0  0  0  0  0  0  0  0
   12.4859    8.9722   -2.1865 C   0  0  0  0  0  0  0  0  0  0  0  0
   11.9375    9.7723   -3.1776 N   0  0  0  0  0  0  0  0  0  0  0  0
   11.5865    9.0201   -4.2817 C   0  0  0  0  0  0  0  0  0  0  0  0
   10.9718    9.3409   -5.5101 C   0  0  0  0  0  0  0  0  0  0  0  0
    8.0860    8.6129  -11.4500 H   0  0  0  0  0  0  0  0  0  0  0  0
    8.4773    9.7697  -10.1943 H   0  0  0  0  0  0  0  0  0  0  0  0
    9.6378    9.3675  -11.4724 H   0  0  0  0  0  0  0  0  0  0  0  0
    8.5459    7.3342   -9.4631 H   0  0  0  0  0  0  0  0  0  0  0  0
    9.3133    6.2734  -11.3885 H   0  0  0  0  0  0  0  0  0  0  0  0
   10.4332    5.8942  -10.1346 H   0  0  0  0  0  0  0  0  0  0  0  0
   13.1394    4.9988  -13.8657 H   0  0  0  0  0  0  0  0  0  0  0  0
   12.4470    2.9673  -15.0436 H   0  0  0  0  0  0  0  0  0  0  0  0
   11.5702    1.9485  -16.8600 H   0  0  0  0  0  0  0  0  0  0  0  0
   10.7379   -0.0170  -18.0884 H   0  0  0  0  0  0  0  0  0  0  0  0
    8.5289   -1.0063  -17.5272 H   0  0  0  0  0  0  0  0  0  0  0  0
    8.0679    1.8792  -14.3625 H   0  0  0  0  0  0  0  0  0  0  0  0
    8.3129    4.0557  -14.4693 H   0  0  0  0  0  0  0  0  0  0  0  0
    9.0000    6.0996  -13.3807 H   0  0  0  0  0  0  0  0  0  0  0  0
   13.1296    7.9526  -10.8351 H   0  0  0  0  0  0  0  0  0  0  0  0
   11.9421    9.1925  -11.0427 H   0  0  0  0  0  0  0  0  0  0  0  0
   12.0864    7.1860   -8.7541 H   0  0  0  0  0  0  0  0  0  0  0  0
   12.3236    8.9215   -8.6639 H   0  0  0  0  0  0  0  0  0  0  0  0
   10.8432    6.1850   -6.8198 H   0  0  0  0  0  0  0  0  0  0  0  0
   11.9415    5.6693   -4.6693 H   0  0  0  0  0  0  0  0  0  0  0  0
   12.8312    6.8016   -2.0843 H   0  0  0  0  0  0  0  0  0  0  0  0
   12.8183    9.3968   -1.2507 H   0  0  0  0  0  0  0  0  0  0  0  0
   11.8132   10.7690   -3.0653 H   0  0  0  0  0  0  0  0  0  0  0  0
   10.6646   10.3561   -5.7137 H   0  0  0  0  0  0  0  0  0  0  0  0
  2  1  1  0
  3  2  1  0
  4  3  1  0
  5  4  1  0
  6  5  2  0
  7  5  1  0
  8  7  1  0
  9  8  2  0
 10  9  1  0
 11 10  1  0
 12 11  2  0
 13 12  1  0
 14 13  2  0
 15 14  1  0
 16 15  1  0
 17 16  1  0
 18 17  1  0
 19 17  1  0
 20 17  1  0
 21 11  1  0
 21 15  2  0
 22 10  2  0
 23  7  2  0
 23 22  1  0
 24  4  1  0
 25 24  1  0
 26  2  1  0
 26 25  1  0
 27 26  1  0
 28 27  2  0
 29 27  1  0
 30 29  2  0
 31 30  1  0
 32 31  2  0
 33 32  1  0
 34 33  2  0
 35 34  1  0
 36 32  1  0
 36 35  1  0
 37 29  1  0
 37 36  2  0
 38  1  1  0
 39  1  1  0
 40  1  1  0
  2 41  1  1
 42  3  1  0
 43  3  1  0
 44  8  1  0
 45  9  1  0
 46 12  1  0
 47 13  1  0
 48 14  1  0
 49 21  1  0
 50 22  1  0
 51 23  1  0
 52 24  1  0
 53 24  1  0
 54 25  1  0
 55 25  1  0
 56 30  1  0
 57 31  1  0
 58 33  1  0
 59 34  1  0
 60 35  1  0
 61 37  1  0
M  END
>  <b_m_subgroup_collapsed>  (136) 
0

>  <r_i_docking_score>  (136) 
-8.8707732315142298

>  <s_m_subgroup_title>  (136) 
glide-dock_SP_D22_pv

>  <s_m_subgroupid>  (136) 
glide-dock_SP_D22_pv

>  <Molecule ChEMBL ID>  (136) 
CHEMBL1080155

>  <Standard Type>  (136) 
Ki

>  <Standard Value>  (136) 
10000.0

>  <label>  (136) 
0

$$$$
CHEMBL4790288
     RDKit          3D

 57 60  0  0  1  0  0  0  0  0999 V2000
    3.6977   -1.2979  -15.1482 C   0  0  0  0  0  0  0  0  0  0  0  0
    4.7194   -0.3429  -14.5410 C   0  0  0  0  0  0  0  0  0  0  0  0
    4.4858    0.1722  -13.4480 O   0  0  0  0  0  0  0  0  0  0  0  0
    5.8484   -0.1646  -15.2492 N   0  0  0  0  0  0  0  0  0  0  0  0
    6.8797    0.8014  -15.0717 C   0  0  0  0  0  0  0  0  0  0  0  0
    8.0598    0.6195  -15.8185 C   0  0  0  0  0  0  0  0  0  0  0  0
    9.0913    1.5743  -15.7609 C   0  0  0  0  0  0  0  0  0  0  0  0
    8.9504    2.7243  -14.9614 C   0  0  0  0  0  0  0  0  0  0  0  0
    7.7749    2.9241  -14.1953 C   0  0  0  0  0  0  0  0  0  0  0  0
    7.5604    4.0024  -13.3596 O   0  0  0  0  0  0  0  0  0  0  0  0
    8.5245    5.0457  -13.3365 C   0  0  0  0  0  0  0  0  0  0  0  0
    8.2412    6.0073  -12.1722 C   0  0  0  0  0  0  0  0  0  0  0  0
    8.5490    5.3781  -10.7928 C   0  0  0  0  0  0  0  0  0  0  0  0
    8.8517    6.3801   -9.7343 N   0  0  2  0  0  0  0  0  0  0  0  0
   10.1980    6.9846   -9.9041 C   0  0  0  0  0  0  0  0  0  0  0  0
   10.5400    8.0087   -8.8150 C   0  0  0  0  0  0  0  0  0  0  0  0
   10.3873    7.3990   -7.4103 C   0  0  1  0  0  0  0  0  0  0  0  0
   10.7511    8.3695   -6.3170 C   0  0  0  0  0  0  0  0  0  0  0  0
   10.5028    9.6704   -6.4429 N   0  0  0  0  0  0  0  0  0  0  0  0
   10.9495   10.3168   -5.2594 O   0  0  0  0  0  0  0  0  0  0  0  0
   11.4520    9.3714   -4.3853 C   0  0  0  0  0  0  0  0  0  0  0  0
   11.9890    9.4859   -3.0971 C   0  0  0  0  0  0  0  0  0  0  0  0
   12.3723    8.3009   -2.4403 C   0  0  0  0  0  0  0  0  0  0  0  0
   12.8853    8.3710   -1.1935 F   0  0  0  0  0  0  0  0  0  0  0  0
   12.2131    7.0453   -3.0737 C   0  0  0  0  0  0  0  0  0  0  0  0
   11.6860    6.9603   -4.3830 C   0  0  0  0  0  0  0  0  0  0  0  0
   11.3065    8.1479   -5.0421 C   0  0  0  0  0  0  0  0  0  0  0  0
    8.9652    6.8461   -7.2664 C   0  0  0  0  0  0  0  0  0  0  0  0
    8.6886    5.8075   -8.3681 C   0  0  0  0  0  0  0  0  0  0  0  0
    6.7501    1.9556  -14.2577 C   0  0  0  0  0  0  0  0  0  0  0  0
    4.1631   -2.2379  -15.4467 H   0  0  0  0  0  0  0  0  0  0  0  0
    2.9096   -1.5152  -14.4274 H   0  0  0  0  0  0  0  0  0  0  0  0
    3.2341   -0.8519  -16.0270 H   0  0  0  0  0  0  0  0  0  0  0  0
    5.9666   -0.7800  -16.0412 H   0  0  0  0  0  0  0  0  0  0  0  0
    8.1757   -0.2512  -16.4498 H   0  0  0  0  0  0  0  0  0  0  0  0
    9.9912    1.4281  -16.3407 H   0  0  0  0  0  0  0  0  0  0  0  0
    9.7627    3.4336  -14.9578 H   0  0  0  0  0  0  0  0  0  0  0  0
    9.5367    4.6582  -13.2173 H   0  0  0  0  0  0  0  0  0  0  0  0
    8.4850    5.5855  -14.2843 H   0  0  0  0  0  0  0  0  0  0  0  0
    8.8451    6.8970  -12.3399 H   0  0  0  0  0  0  0  0  0  0  0  0
    7.2062    6.3511  -12.2021 H   0  0  0  0  0  0  0  0  0  0  0  0
    7.6873    4.7762  -10.5007 H   0  0  0  0  0  0  0  0  0  0  0  0
    9.3846    4.6797  -10.8639 H   0  0  0  0  0  0  0  0  0  0  0  0
   10.9055    6.1684   -9.8546 H   0  0  0  0  0  0  0  0  0  0  0  0
   10.3126    7.4526  -10.8803 H   0  0  0  0  0  0  0  0  0  0  0  0
   11.5587    8.3715   -8.9573 H   0  0  0  0  0  0  0  0  0  0  0  0
    9.8870    8.8751   -8.9267 H   0  0  0  0  0  0  0  0  0  0  0  0
   11.0792    6.5583   -7.3412 H   0  0  0  0  0  0  0  0  0  0  0  0
   12.0854   10.4500   -2.6178 H   0  0  0  0  0  0  0  0  0  0  0  0
   12.4997    6.1430   -2.5526 H   0  0  0  0  0  0  0  0  0  0  0  0
   11.5717    5.9990   -4.8618 H   0  0  0  0  0  0  0  0  0  0  0  0
    8.8454    6.3805   -6.2875 H   0  0  0  0  0  0  0  0  0  0  0  0
    8.2366    7.6575   -7.3098 H   0  0  0  0  0  0  0  0  0  0  0  0
    7.6858    5.4123   -8.2446 H   0  0  0  0  0  0  0  0  0  0  0  0
    9.3641    4.9598   -8.2493 H   0  0  0  0  0  0  0  0  0  0  0  0
    5.8528    2.1394  -13.6879 H   0  0  0  0  0  0  0  0  0  0  0  0
    8.1448    7.1079   -9.8273 H   0  0  0  0  0  0  0  0  0  0  0  0
  2  1  1  0
  3  2  2  0
  4  2  1  0
  5  4  1  0
  6  5  2  0
  7  6  1  0
  8  7  2  0
  9  8  1  0
 10  9  1  0
 11 10  1  0
 12 11  1  0
 13 12  1  0
 14 13  1  0
 15 14  1  0
 16 15  1  0
 17 16  1  0
 18 17  1  0
 19 18  2  0
 20 19  1  0
 21 20  1  0
 22 21  2  0
 23 22  1  0
 24 23  1  0
 25 23  2  0
 26 25  1  0
 27 18  1  0
 27 21  1  0
 27 26  2  0
 28 17  1  0
 29 14  1  0
 29 28  1  0
 30  5  1  0
 30  9  2  0
 31  1  1  0
 32  1  1  0
 33  1  1  0
 34  4  1  0
 35  6  1  0
 36  7  1  0
 37  8  1  0
 38 11  1  0
 39 11  1  0
 40 12  1  0
 41 12  1  0
 42 13  1  0
 43 13  1  0
 44 15  1  0
 45 15  1  0
 46 16  1  0
 47 16  1  0
 17 48  1  6
 49 22  1  0
 50 25  1  0
 51 26  1  0
 52 28  1  0
 53 28  1  0
 54 29  1  0
 55 29  1  0
 56 30  1  0
 14 57  1  1
M  CHG  1  14   1
M  END
>  <b_m_subgroup_collapsed>  (137) 
0

>  <r_i_docking_score>  (137) 
-8.8677440660658196

>  <s_m_subgroup_title>  (137) 
glide-dock_SP_D22_pv

>  <s_m_subgroupid>  (137) 
glide-dock_SP_D22_pv

>  <Molecule ChEMBL ID>  (137) 
CHEMBL4790288

>  <Standard Type>  (137) 
Ki

>  <Standard Value>  (137) 
10000.0

>  <label>  (137) 
0

$$$$
CHEMBL391984
     RDKit          3D

 51 54  0  0  1  0  0  0  0  0999 V2000
    9.1930    1.3284  -15.3478 C   0  0  0  0  0  0  0  0  0  0  0  0
    8.1544    2.1526  -14.6439 C   0  0  0  0  0  0  0  0  0  0  0  0
    6.8868    1.7581  -14.6132 N   0  0  0  0  0  0  0  0  0  0  0  0
    6.1754    2.7042  -13.8466 O   0  0  0  0  0  0  0  0  0  0  0  0
    7.0561    3.6515  -13.4386 C   0  0  0  0  0  0  0  0  0  0  0  0
    8.2841    3.3722  -13.9312 C   0  0  0  0  0  0  0  0  0  0  0  0
    9.4355    4.2331  -13.6443 C   0  0  0  0  0  0  0  0  0  0  0  0
   10.6122    3.9454  -13.8469 O   0  0  0  0  0  0  0  0  0  0  0  0
    9.0275    5.6054  -13.0839 C   0  0  0  0  0  0  0  0  0  0  0  0
    7.8862    5.5600  -12.0143 C   0  0  2  0  0  0  0  0  0  0  0  0
    8.4080    5.0609  -10.6352 C   0  0  0  0  0  0  0  0  0  0  0  0
    8.6934    6.1716   -9.6806 N   0  0  2  0  0  0  0  0  0  0  0  0
    9.9521    6.8812  -10.0291 C   0  0  0  0  0  0  0  0  0  0  0  0
   10.2969    7.9927   -9.0430 C   0  0  0  0  0  0  0  0  0  0  0  0
   10.3965    7.4706   -7.5928 C   0  0  1  0  0  0  0  0  0  0  0  0
   10.7727    8.6230   -6.6369 C   0  0  0  0  0  0  0  0  0  0  0  0
   10.6732    9.7722   -7.0460 O   0  0  0  0  0  0  0  0  0  0  0  0
   11.2854    8.3636   -5.2659 C   0  0  0  0  0  0  0  0  0  0  0  0
   11.5397    7.0699   -4.7530 C   0  0  0  0  0  0  0  0  0  0  0  0
   12.0780    6.9258   -3.4558 C   0  0  0  0  0  0  0  0  0  0  0  0
   12.3540    8.0622   -2.6741 C   0  0  0  0  0  0  0  0  0  0  0  0
   12.8860    7.9379   -1.4452 F   0  0  0  0  0  0  0  0  0  0  0  0
   12.0853    9.3436   -3.1680 C   0  0  0  0  0  0  0  0  0  0  0  0
   11.5535    9.4929   -4.4555 C   0  0  0  0  0  0  0  0  0  0  0  0
    9.0418    6.8223   -7.2513 C   0  0  0  0  0  0  0  0  0  0  0  0
    8.6796    5.7099   -8.2611 C   0  0  0  0  0  0  0  0  0  0  0  0
    6.6467    4.7585  -12.5263 C   0  0  0  0  0  0  0  0  0  0  0  0
   10.0125    1.0777  -14.6734 H   0  0  0  0  0  0  0  0  0  0  0  0
    8.7786    0.3924  -15.7263 H   0  0  0  0  0  0  0  0  0  0  0  0
    9.6148    1.8723  -16.1943 H   0  0  0  0  0  0  0  0  0  0  0  0
    8.6653    6.1722  -13.9401 H   0  0  0  0  0  0  0  0  0  0  0  0
    9.9181    6.1187  -12.7235 H   0  0  0  0  0  0  0  0  0  0  0  0
    7.5245    6.5769  -11.8528 H   0  0  0  0  0  0  0  0  0  0  0  0
    9.2979    4.4407  -10.7522 H   0  0  0  0  0  0  0  0  0  0  0  0
    7.6856    4.3892  -10.1810 H   0  0  0  0  0  0  0  0  0  0  0  0
    9.8570    7.3362  -11.0124 H   0  0  0  0  0  0  0  0  0  0  0  0
   10.7791    6.1729  -10.0755 H   0  0  0  0  0  0  0  0  0  0  0  0
    9.5321    8.7689   -9.1183 H   0  0  0  0  0  0  0  0  0  0  0  0
   11.2377    8.4566   -9.3460 H   0  0  0  0  0  0  0  0  0  0  0  0
   11.1845    6.7186   -7.5434 H   0  0  0  0  0  0  0  0  0  0  0  0
   11.3472    6.1822   -5.3381 H   0  0  0  0  0  0  0  0  0  0  0  0
   12.2846    5.9409   -3.0614 H   0  0  0  0  0  0  0  0  0  0  0  0
   12.2873   10.2096   -2.5578 H   0  0  0  0  0  0  0  0  0  0  0  0
   11.3620   10.4964   -4.8118 H   0  0  0  0  0  0  0  0  0  0  0  0
    9.0629    6.4020   -6.2457 H   0  0  0  0  0  0  0  0  0  0  0  0
    8.2561    7.5815   -7.2430 H   0  0  0  0  0  0  0  0  0  0  0  0
    7.6864    5.3287   -8.0177 H   0  0  0  0  0  0  0  0  0  0  0  0
    9.3757    4.8785   -8.1546 H   0  0  0  0  0  0  0  0  0  0  0  0
    6.0400    4.3771  -11.7053 H   0  0  0  0  0  0  0  0  0  0  0  0
    5.9950    5.4335  -13.0836 H   0  0  0  0  0  0  0  0  0  0  0  0
    7.9206    6.8349   -9.7703 H   0  0  0  0  0  0  0  0  0  0  0  0
  2  1  1  0
  3  2  2  0
  4  3  1  0
  5  4  1  0
  6  2  1  0
  6  5  2  0
  7  6  1  0
  8  7  2  0
  9  7  1  0
 10  9  1  0
 11 10  1  0
 12 11  1  0
 13 12  1  0
 14 13  1  0
 15 14  1  0
 16 15  1  0
 17 16  2  0
 18 16  1  0
 19 18  1  0
 20 19  2  0
 21 20  1  0
 22 21  1  0
 23 21  2  0
 24 18  2  0
 24 23  1  0
 25 15  1  0
 26 12  1  0
 26 25  1  0
 27  5  1  0
 27 10  1  0
 28  1  1  0
 29  1  1  0
 30  1  1  0
 31  9  1  0
 32  9  1  0
 10 33  1  1
 34 11  1  0
 35 11  1  0
 36 13  1  0
 37 13  1  0
 38 14  1  0
 39 14  1  0
 15 40  1  6
 41 19  1  0
 42 20  1  0
 43 23  1  0
 44 24  1  0
 45 25  1  0
 46 25  1  0
 47 26  1  0
 48 26  1  0
 49 27  1  0
 50 27  1  0
 12 51  1  1
M  CHG  1  12   1
M  END
>  <b_m_subgroup_collapsed>  (138) 
0

>  <r_i_docking_score>  (138) 
-8.8660899044442498

>  <s_m_subgroup_title>  (138) 
glide-dock_SP_D22_pv

>  <s_m_subgroupid>  (138) 
glide-dock_SP_D22_pv

>  <Molecule ChEMBL ID>  (138) 
CHEMBL391984

>  <Standard Type>  (138) 
Ki

>  <Standard Value>  (138) 
10000.0

>  <label>  (138) 
0

$$$$
CHEMBL3588995
     RDKit          3D

 62 66  0  0  1  0  0  0  0  0999 V2000
    7.2484    6.8211  -12.6468 O   0  0  0  0  0  0  0  0  0  0  0  0
    8.1815    5.7688  -12.4853 C   0  0  1  0  0  0  0  0  0  0  0  0
    7.8849    5.1153  -11.1195 C   0  0  0  0  0  0  0  0  0  0  0  0
    9.1161    4.7830  -10.2672 C   0  0  0  0  0  0  0  0  0  0  0  0
    9.6708    5.9232   -9.5645 N   0  0  0  0  0  0  0  0  0  0  0  0
    9.7555    6.0787   -8.2029 C   0  0  0  0  0  0  0  0  0  0  0  0
   10.4335    7.2483   -8.0414 C   0  0  0  0  0  0  0  0  0  0  0  0
   10.8775    7.8772   -6.8058 C   0  0  0  0  0  0  0  0  0  0  0  0
   10.8934    9.2760   -6.6654 C   0  0  0  0  0  0  0  0  0  0  0  0
   11.2875    9.8773   -5.4550 C   0  0  0  0  0  0  0  0  0  0  0  0
   11.6861    9.0662   -4.3746 C   0  0  0  0  0  0  0  0  0  0  0  0
   12.0794    9.6353   -3.1481 C   0  0  0  0  0  0  0  0  0  0  0  0
   12.4860    8.8132   -2.0826 C   0  0  0  0  0  0  0  0  0  0  0  0
   12.4859    7.4173   -2.2443 C   0  0  0  0  0  0  0  0  0  0  0  0
   12.0851    6.8421   -3.4536 C   0  0  0  0  0  0  0  0  0  0  0  0
   11.6850    7.6592   -4.5199 C   0  0  0  0  0  0  0  0  0  0  0  0
   11.2719    7.0691   -5.7249 C   0  0  0  0  0  0  0  0  0  0  0  0
   10.7018    7.7720   -9.3085 N   0  0  0  0  0  0  0  0  0  0  0  0
   10.2413    6.9662  -10.2141 N   0  0  0  0  0  0  0  0  0  0  0  0
    8.0016    4.8156  -13.6965 C   0  0  0  0  0  0  0  0  0  0  0  0
    8.9732    3.6943  -13.8240 N   0  0  0  0  0  0  0  0  0  0  0  0
    8.5543    2.7961  -14.9391 C   0  0  0  0  0  0  0  0  0  0  0  0
    9.5380    1.6526  -15.2085 C   0  0  0  0  0  0  0  0  0  0  0  0
   10.8863    2.1736  -15.4079 N   0  0  0  0  0  0  0  0  0  0  0  0
   11.3835    2.4080  -16.7154 C   0  0  0  0  0  0  0  0  0  0  0  0
   11.8958    3.6851  -17.0607 C   0  0  0  0  0  0  0  0  0  0  0  0
   12.4204    3.9447  -18.3382 C   0  0  0  0  0  0  0  0  0  0  0  0
   12.4537    2.9267  -19.3027 C   0  0  0  0  0  0  0  0  0  0  0  0
   11.9632    1.6487  -18.9880 C   0  0  0  0  0  0  0  0  0  0  0  0
   12.0452    0.4088  -20.1915 Cl  0  0  0  0  0  0  0  0  0  0  0  0
   11.4274    1.3825  -17.7061 C   0  0  0  0  0  0  0  0  0  0  0  0
   10.8827   -0.2277  -17.3819 Cl  0  0  0  0  0  0  0  0  0  0  0  0
   11.3498    2.9953  -14.2967 C   0  0  0  0  0  0  0  0  0  0  0  0
   10.3809    4.1557  -13.9798 C   0  0  0  0  0  0  0  0  0  0  0  0
    7.0578    7.2088  -11.7873 H   0  0  0  0  0  0  0  0  0  0  0  0
    9.1662    6.2326  -12.4992 H   0  0  0  0  0  0  0  0  0  0  0  0
    7.2652    5.7722  -10.5117 H   0  0  0  0  0  0  0  0  0  0  0  0
    7.2849    4.2156  -11.2618 H   0  0  0  0  0  0  0  0  0  0  0  0
    8.8030    4.0940   -9.4854 H   0  0  0  0  0  0  0  0  0  0  0  0
    9.8969    4.2874  -10.8429 H   0  0  0  0  0  0  0  0  0  0  0  0
    9.3603    5.3729   -7.4899 H   0  0  0  0  0  0  0  0  0  0  0  0
   10.5838    9.8747   -7.4983 H   0  0  0  0  0  0  0  0  0  0  0  0
   11.2836   10.9538   -5.3643 H   0  0  0  0  0  0  0  0  0  0  0  0
   12.0649   10.7030   -3.0127 H   0  0  0  0  0  0  0  0  0  0  0  0
   12.7942    9.2569   -1.1468 H   0  0  0  0  0  0  0  0  0  0  0  0
   12.8105    6.7710   -1.4469 H   0  0  0  0  0  0  0  0  0  0  0  0
   12.0863    5.7721   -3.5598 H   0  0  0  0  0  0  0  0  0  0  0  0
   11.2678    5.9940   -5.8242 H   0  0  0  0  0  0  0  0  0  0  0  0
    6.9877    4.4116  -13.6748 H   0  0  0  0  0  0  0  0  0  0  0  0
    8.0849    5.3751  -14.6261 H   0  0  0  0  0  0  0  0  0  0  0  0
    7.5624    2.3881  -14.7394 H   0  0  0  0  0  0  0  0  0  0  0  0
    8.4857    3.3725  -15.8605 H   0  0  0  0  0  0  0  0  0  0  0  0
    9.5502    0.9553  -14.3694 H   0  0  0  0  0  0  0  0  0  0  0  0
    9.1757    1.0985  -16.0713 H   0  0  0  0  0  0  0  0  0  0  0  0
   11.9029    4.5006  -16.3557 H   0  0  0  0  0  0  0  0  0  0  0  0
   12.8027    4.9267  -18.5757 H   0  0  0  0  0  0  0  0  0  0  0  0
   12.8623    3.1246  -20.2829 H   0  0  0  0  0  0  0  0  0  0  0  0
   11.4135    2.3219  -13.4469 H   0  0  0  0  0  0  0  0  0  0  0  0
   12.3593    3.3721  -14.4651 H   0  0  0  0  0  0  0  0  0  0  0  0
   10.4205    4.9029  -14.7727 H   0  0  0  0  0  0  0  0  0  0  0  0
   10.7154    4.6539  -13.0704 H   0  0  0  0  0  0  0  0  0  0  0  0
    8.9351    3.1439  -12.9776 H   0  0  0  0  0  0  0  0  0  0  0  0
  2  1  1  0
  3  2  1  0
  4  3  1  0
  5  4  1  0
  6  5  1  0
  7  6  2  0
  8  7  1  0
  9  8  1  0
 10  9  2  0
 11 10  1  0
 12 11  2  0
 13 12  1  0
 14 13  2  0
 15 14  1  0
 16 11  1  0
 16 15  2  0
 17  8  2  0
 17 16  1  0
 18  7  1  0
 19  5  1  0
 19 18  2  0
 20  2  1  0
 21 20  1  0
 22 21  1  0
 23 22  1  0
 24 23  1  0
 25 24  1  0
 26 25  2  0
 27 26  1  0
 28 27  2  0
 29 28  1  0
 30 29  1  0
 31 25  1  0
 31 29  2  0
 32 31  1  0
 33 24  1  0
 34 21  1  0
 34 33  1  0
 35  1  1  0
  2 36  1  1
 37  3  1  0
 38  3  1  0
 39  4  1  0
 40  4  1  0
 41  6  1  0
 42  9  1  0
 43 10  1  0
 44 12  1  0
 45 13  1  0
 46 14  1  0
 47 15  1  0
 48 17  1  0
 49 20  1  0
 50 20  1  0
 51 22  1  0
 52 22  1  0
 53 23  1  0
 54 23  1  0
 55 26  1  0
 56 27  1  0
 57 28  1  0
 58 33  1  0
 59 33  1  0
 60 34  1  0
 61 34  1  0
 62 21  1  0
M  CHG  1  21   1
M  END
>  <b_m_subgroup_collapsed>  (139) 
0

>  <r_i_docking_score>  (139) 
-8.8616936319608293

>  <s_m_subgroup_title>  (139) 
glide-dock_SP_D22_pv

>  <s_m_subgroupid>  (139) 
glide-dock_SP_D22_pv

>  <Molecule ChEMBL ID>  (139) 
CHEMBL3588995

>  <Standard Type>  (139) 
Ki

>  <Standard Value>  (139) 
18800.0

>  <label>  (139) 
0

$$$$
CHEMBL3817911
     RDKit          3D

 54 57  0  0  1  0  0  0  0  0999 V2000
   11.3144    6.2263   -6.6046 O   0  0  0  0  0  0  0  0  0  0  0  0
   11.2860    7.3297   -6.0660 C   0  0  0  0  0  0  0  0  0  0  0  0
   11.6171    7.5826   -4.6466 C   0  0  0  0  0  0  0  0  0  0  0  0
   11.9389    6.6833   -3.6235 C   0  0  0  0  0  0  0  0  0  0  0  0
   12.2430    7.2215   -2.3559 C   0  0  0  0  0  0  0  0  0  0  0  0
   12.2351    8.6237   -2.1482 C   0  0  0  0  0  0  0  0  0  0  0  0
   11.9269    9.5078   -3.2074 C   0  0  0  0  0  0  0  0  0  0  0  0
   11.6250    8.9367   -4.4542 C   0  0  0  0  0  0  0  0  0  0  0  0
   11.3076    9.5648   -5.7581 C   0  0  0  0  0  0  0  0  0  0  0  0
   11.2858   10.7738   -5.9677 O   0  0  0  0  0  0  0  0  0  0  0  0
   11.1035    8.5465   -6.6368 N   0  0  0  0  0  0  0  0  0  0  0  0
   10.8606    8.7381   -8.0714 C   0  0  0  0  0  0  0  0  0  0  0  0
    9.4140    8.3995   -8.4837 C   0  0  0  0  0  0  0  0  0  0  0  0
    9.1290    6.8977   -8.6921 C   0  0  0  0  0  0  0  0  0  0  0  0
    9.8134    6.2218   -9.8824 C   0  0  0  0  0  0  0  0  0  0  0  0
    9.2161    6.6803  -11.1662 N   0  0  1  0  0  0  0  0  0  0  0  0
   10.0623    7.6547  -11.9044 C   0  0  0  0  0  0  0  0  0  0  0  0
   11.2706    6.9800  -12.5927 C   0  0  0  0  0  0  0  0  0  0  0  0
   10.8617    5.7721  -13.4564 C   0  0  1  0  0  0  0  0  0  0  0  0
   12.0760    5.0068  -14.0162 C   0  0  0  0  0  0  0  0  0  0  0  0
   11.6197    3.8661  -14.9411 C   0  0  0  0  0  0  0  0  0  0  0  0
   10.6414    2.9168  -14.2290 C   0  0  0  0  0  0  0  0  0  0  0  0
    9.4536    3.6797  -13.6154 C   0  0  0  0  0  0  0  0  0  0  0  0
    9.9274    4.8121  -12.6845 C   0  0  2  0  0  0  0  0  0  0  0  0
    8.7478    5.5797  -12.0488 C   0  0  0  0  0  0  0  0  0  0  0  0
   11.9648    5.6261   -3.8072 H   0  0  0  0  0  0  0  0  0  0  0  0
   12.4971    6.5515   -1.5486 H   0  0  0  0  0  0  0  0  0  0  0  0
   12.4712    9.0240   -1.1729 H   0  0  0  0  0  0  0  0  0  0  0  0
   11.9252   10.5734   -3.0495 H   0  0  0  0  0  0  0  0  0  0  0  0
   11.0657    9.7723   -8.3441 H   0  0  0  0  0  0  0  0  0  0  0  0
   11.5813    8.1559   -8.6457 H   0  0  0  0  0  0  0  0  0  0  0  0
    8.7255    8.7912   -7.7330 H   0  0  0  0  0  0  0  0  0  0  0  0
    9.1601    8.9403   -9.3945 H   0  0  0  0  0  0  0  0  0  0  0  0
    9.2869    6.3303   -7.7824 H   0  0  0  0  0  0  0  0  0  0  0  0
    8.0814    6.7677   -8.8571 H   0  0  0  0  0  0  0  0  0  0  0  0
   10.8905    6.3692   -9.8500 H   0  0  0  0  0  0  0  0  0  0  0  0
    9.6656    5.1462   -9.7726 H   0  0  0  0  0  0  0  0  0  0  0  0
    9.4376    8.1517  -12.6467 H   0  0  0  0  0  0  0  0  0  0  0  0
   10.4111    8.4402  -11.2344 H   0  0  0  0  0  0  0  0  0  0  0  0
   11.7864    7.7108  -13.2169 H   0  0  0  0  0  0  0  0  0  0  0  0
   12.0018    6.6776  -11.8480 H   0  0  0  0  0  0  0  0  0  0  0  0
   10.3141    6.1586  -14.3134 H   0  0  0  0  0  0  0  0  0  0  0  0
   12.7276    5.6852  -14.5682 H   0  0  0  0  0  0  0  0  0  0  0  0
   12.6772    4.6016  -13.2007 H   0  0  0  0  0  0  0  0  0  0  0  0
   11.1372    4.2870  -15.8242 H   0  0  0  0  0  0  0  0  0  0  0  0
   12.4855    3.3110  -15.3033 H   0  0  0  0  0  0  0  0  0  0  0  0
   10.2774    2.1658  -14.9308 H   0  0  0  0  0  0  0  0  0  0  0  0
   11.1651    2.3669  -13.4472 H   0  0  0  0  0  0  0  0  0  0  0  0
    8.8320    4.0880  -14.4132 H   0  0  0  0  0  0  0  0  0  0  0  0
    8.8271    2.9830  -13.0592 H   0  0  0  0  0  0  0  0  0  0  0  0
   10.4860    4.3409  -11.8777 H   0  0  0  0  0  0  0  0  0  0  0  0
    8.1046    4.9036  -11.4826 H   0  0  0  0  0  0  0  0  0  0  0  0
    8.1198    6.0081  -12.8316 H   0  0  0  0  0  0  0  0  0  0  0  0
    8.3670    7.1708  -10.8933 H   0  0  0  0  0  0  0  0  0  0  0  0
  2  1  2  0
  3  2  1  0
  4  3  2  0
  5  4  1  0
  6  5  2  0
  7  6  1  0
  8  3  1  0
  8  7  2  0
  9  8  1  0
 10  9  2  0
 11  2  1  0
 11  9  1  0
 12 11  1  0
 13 12  1  0
 14 13  1  0
 15 14  1  0
 16 15  1  0
 17 16  1  0
 18 17  1  0
 19 18  1  0
 20 19  1  0
 21 20  1  0
 22 21  1  0
 23 22  1  0
 24 19  1  0
 24 23  1  0
 25 16  1  0
 25 24  1  0
 26  4  1  0
 27  5  1  0
 28  6  1  0
 29  7  1  0
 30 12  1  0
 31 12  1  0
 32 13  1  0
 33 13  1  0
 34 14  1  0
 35 14  1  0
 36 15  1  0
 37 15  1  0
 38 17  1  0
 39 17  1  0
 40 18  1  0
 41 18  1  0
 19 42  1  6
 43 20  1  0
 44 20  1  0
 45 21  1  0
 46 21  1  0
 47 22  1  0
 48 22  1  0
 49 23  1  0
 50 23  1  0
 24 51  1  1
 52 25  1  0
 53 25  1  0
 16 54  1  1
M  CHG  1  16   1
M  END
>  <b_m_subgroup_collapsed>  (140) 
0

>  <r_i_docking_score>  (140) 
-8.8321604468678903

>  <s_m_subgroup_title>  (140) 
glide-dock_SP_D22_pv

>  <s_m_subgroupid>  (140) 
glide-dock_SP_D22_pv

>  <Molecule ChEMBL ID>  (140) 
CHEMBL3817911

>  <Standard Type>  (140) 
Ki

>  <Standard Value>  (140) 
10000.0

>  <label>  (140) 
0

$$$$
CHEMBL4476163
     RDKit          3D

 70 74  0  0  1  0  0  0  0  0999 V2000
   11.9251   10.7157   -6.1845 C   0  0  0  0  0  0  0  0  0  0  0  0
   11.0822   10.5214   -5.0586 O   0  0  0  0  0  0  0  0  0  0  0  0
   11.4563    9.4732   -4.2531 C   0  0  0  0  0  0  0  0  0  0  0  0
   11.9934    9.7711   -2.9844 C   0  0  0  0  0  0  0  0  0  0  0  0
   12.4048    8.7467   -2.1141 C   0  0  0  0  0  0  0  0  0  0  0  0
   12.2450    7.4053   -2.4951 C   0  0  0  0  0  0  0  0  0  0  0  0
   11.6944    7.0950   -3.7473 C   0  0  0  0  0  0  0  0  0  0  0  0
   11.3043    8.1173   -4.6483 C   0  0  0  0  0  0  0  0  0  0  0  0
   10.7858    7.7798   -5.9105 N   0  0  0  0  0  0  0  0  0  0  0  0
   11.1288    6.4927   -6.4766 C   0  0  0  0  0  0  0  0  0  0  0  0
   11.1744    6.6036   -7.9911 C   0  0  0  0  0  0  0  0  0  0  0  0
    9.8822    7.1463   -8.5987 C   0  0  0  0  0  0  0  0  0  0  0  0
    8.7939    6.0575   -8.5117 C   0  0  0  0  0  0  0  0  0  0  0  0
    8.3582    5.7715   -9.9418 C   0  0  0  0  0  0  0  0  0  0  0  0
    8.8861    6.8684  -10.7686 N   0  0  2  0  0  0  0  0  0  0  0  0
    9.0088    6.6200  -12.2269 C   0  0  0  0  0  0  0  0  0  0  0  0
    9.6060    5.2437  -12.5786 C   0  0  0  0  0  0  0  0  0  0  0  0
    9.9539    5.0564  -14.0631 C   0  0  0  0  0  0  0  0  0  0  0  0
   10.2800    3.3062  -14.4620 S   0  0  0  0  0  0  0  0  0  0  0  0
    8.6266    2.6681  -14.4422 C   0  0  0  0  0  0  0  0  0  0  0  0
    7.5563    3.3882  -14.1075 N   0  0  0  0  0  0  0  0  0  0  0  0
    6.4859    2.5571  -14.2467 N   0  0  0  0  0  0  0  0  0  0  0  0
    6.9727    1.3950  -14.6889 C   0  0  0  0  0  0  0  0  0  0  0  0
    6.0610    0.3176  -15.0579 C   0  0  0  0  0  0  0  0  0  0  0  0
    4.9534    0.0273  -14.2293 C   0  0  0  0  0  0  0  0  0  0  0  0
    3.9707   -0.8890  -14.6504 C   0  0  0  0  0  0  0  0  0  0  0  0
    4.0999   -1.5313  -15.8950 C   0  0  0  0  0  0  0  0  0  0  0  0
    5.2136   -1.2669  -16.7143 C   0  0  0  0  0  0  0  0  0  0  0  0
    6.1887   -0.3391  -16.3006 C   0  0  0  0  0  0  0  0  0  0  0  0
    8.3235    1.4008  -14.7898 N   0  0  0  0  0  0  0  0  0  0  0  0
    9.2284    0.3383  -15.1887 C   0  0  0  0  0  0  0  0  0  0  0  0
   10.0900    7.3833  -10.1070 C   0  0  0  0  0  0  0  0  0  0  0  0
    9.4743    8.4577   -7.8822 C   0  0  0  0  0  0  0  0  0  0  0  0
    9.5018    8.3195   -6.3504 C   0  0  0  0  0  0  0  0  0  0  0  0
   11.5821   11.5553   -6.7805 H   0  0  0  0  0  0  0  0  0  0  0  0
   12.9192   10.9679   -5.8475 H   0  0  0  0  0  0  0  0  0  0  0  0
   12.0031    9.8477   -6.8368 H   0  0  0  0  0  0  0  0  0  0  0  0
   12.0859   10.7961   -2.6544 H   0  0  0  0  0  0  0  0  0  0  0  0
   12.8186    8.9954   -1.1475 H   0  0  0  0  0  0  0  0  0  0  0  0
   12.5362    6.6065   -1.8301 H   0  0  0  0  0  0  0  0  0  0  0  0
   11.5684    6.0515   -3.9929 H   0  0  0  0  0  0  0  0  0  0  0  0
   10.3745    5.7727   -6.1684 H   0  0  0  0  0  0  0  0  0  0  0  0
   12.0912    6.1305   -6.1206 H   0  0  0  0  0  0  0  0  0  0  0  0
   11.2859    5.6014   -8.3833 H   0  0  0  0  0  0  0  0  0  0  0  0
   12.0283    7.2153   -8.2888 H   0  0  0  0  0  0  0  0  0  0  0  0
    7.9714    6.3709   -7.8844 H   0  0  0  0  0  0  0  0  0  0  0  0
    9.1432    5.1314   -8.0542 H   0  0  0  0  0  0  0  0  0  0  0  0
    7.2859    5.7707  -10.0592 H   0  0  0  0  0  0  0  0  0  0  0  0
    8.7404    4.7888  -10.2088 H   0  0  0  0  0  0  0  0  0  0  0  0
    9.6131    7.4225  -12.6469 H   0  0  0  0  0  0  0  0  0  0  0  0
    8.0174    6.7052  -12.6736 H   0  0  0  0  0  0  0  0  0  0  0  0
    8.8961    4.4745  -12.2884 H   0  0  0  0  0  0  0  0  0  0  0  0
   10.4860    5.0519  -11.9774 H   0  0  0  0  0  0  0  0  0  0  0  0
   10.8393    5.6414  -14.3120 H   0  0  0  0  0  0  0  0  0  0  0  0
    9.1527    5.4228  -14.7056 H   0  0  0  0  0  0  0  0  0  0  0  0
    4.8317    0.5441  -13.2880 H   0  0  0  0  0  0  0  0  0  0  0  0
    3.1078   -1.0888  -14.0313 H   0  0  0  0  0  0  0  0  0  0  0  0
    3.3410   -2.2275  -16.2225 H   0  0  0  0  0  0  0  0  0  0  0  0
    5.3099   -1.7636  -17.6687 H   0  0  0  0  0  0  0  0  0  0  0  0
    7.0168   -0.1133  -16.9552 H   0  0  0  0  0  0  0  0  0  0  0  0
   10.1253    0.3572  -14.5694 H   0  0  0  0  0  0  0  0  0  0  0  0
    8.7478   -0.6279  -15.0602 H   0  0  0  0  0  0  0  0  0  0  0  0
    9.5089    0.4656  -16.2337 H   0  0  0  0  0  0  0  0  0  0  0  0
   10.9559    6.8277  -10.4700 H   0  0  0  0  0  0  0  0  0  0  0  0
   10.2552    8.4324  -10.3582 H   0  0  0  0  0  0  0  0  0  0  0  0
   10.1581    9.2569   -8.1675 H   0  0  0  0  0  0  0  0  0  0  0  0
    8.4845    8.7802   -8.2072 H   0  0  0  0  0  0  0  0  0  0  0  0
    8.7125    7.6410   -6.0314 H   0  0  0  0  0  0  0  0  0  0  0  0
    9.2860    9.2811   -5.8945 H   0  0  0  0  0  0  0  0  0  0  0  0
    8.1721    7.5857  -10.6490 H   0  0  0  0  0  0  0  0  0  0  0  0
  2  1  1  0
  3  2  1  0
  4  3  2  0
  5  4  1  0
  6  5  2  0
  7  6  1  0
  8  3  1  0
  8  7  2  0
  9  8  1  0
 10  9  1  0
 11 10  1  0
 12 11  1  0
 13 12  1  0
 14 13  1  0
 15 14  1  0
 16 15  1  0
 17 16  1  0
 18 17  1  0
 19 18  1  0
 20 19  1  0
 21 20  2  0
 22 21  1  0
 23 22  2  0
 24 23  1  0
 25 24  2  0
 26 25  1  0
 27 26  2  0
 28 27  1  0
 29 24  1  0
 29 28  2  0
 30 20  1  0
 30 23  1  0
 31 30  1  0
 32 12  1  0
 32 15  1  0
 33 12  1  0
 34  9  1  0
 34 33  1  0
 35  1  1  0
 36  1  1  0
 37  1  1  0
 38  4  1  0
 39  5  1  0
 40  6  1  0
 41  7  1  0
 42 10  1  0
 43 10  1  0
 44 11  1  0
 45 11  1  0
 46 13  1  0
 47 13  1  0
 48 14  1  0
 49 14  1  0
 50 16  1  0
 51 16  1  0
 52 17  1  0
 53 17  1  0
 54 18  1  0
 55 18  1  0
 56 25  1  0
 57 26  1  0
 58 27  1  0
 59 28  1  0
 60 29  1  0
 61 31  1  0
 62 31  1  0
 63 31  1  0
 64 32  1  0
 65 32  1  0
 66 33  1  0
 67 33  1  0
 68 34  1  0
 69 34  1  0
 15 70  1  6
M  CHG  1  15   1
M  END
>  <b_m_subgroup_collapsed>  (141) 
0

>  <r_i_docking_score>  (141) 
-8.8309199820067992

>  <s_m_subgroup_title>  (141) 
glide-dock_SP_D22_pv

>  <s_m_subgroupid>  (141) 
glide-dock_SP_D22_pv

>  <Molecule ChEMBL ID>  (141) 
CHEMBL4476163

>  <Standard Type>  (141) 
Ki

>  <Standard Value>  (141) 
21098.0

>  <label>  (141) 
0

$$$$
CHEMBL4472206
     RDKit          3D

 60 63  0  0  1  0  0  0  0  0999 V2000
   10.7929    9.5651   -7.0463 O   0  0  0  0  0  0  0  0  0  0  0  0
   11.1247    8.5157   -6.5049 C   0  0  0  0  0  0  0  0  0  0  0  0
   11.2350    7.2591   -7.3633 C   0  0  0  0  0  0  0  0  0  0  0  0
    9.9845    6.3783   -7.2766 C   0  0  0  0  0  0  0  0  0  0  0  0
    8.8857    6.7009   -8.2873 C   0  0  0  0  0  0  0  0  0  0  0  0
    9.2788    6.2202   -9.6340 N   0  0  1  0  0  0  0  0  0  0  0  0
    8.3963    5.1442  -10.1386 C   0  0  0  0  0  0  0  0  0  0  0  0
    8.9299    4.5479  -11.4518 C   0  0  0  0  0  0  0  0  0  0  0  0
    9.1096    5.5960  -12.5702 C   0  0  2  0  0  0  0  0  0  0  0  0
    7.8691    6.2243  -12.8392 O   0  0  0  0  0  0  0  0  0  0  0  0
    9.7022    4.9731  -13.8777 C   0  0  0  0  0  0  0  0  0  0  0  0
   10.8928    5.5570  -14.4024 C   0  0  0  0  0  0  0  0  0  0  0  0
   11.4524    5.1672  -15.6270 C   0  0  0  0  0  0  0  0  0  0  0  0
   10.8251    4.1808  -16.3884 C   0  0  0  0  0  0  0  0  0  0  0  0
    9.6731    3.5603  -15.8880 C   0  0  0  0  0  0  0  0  0  0  0  0
    9.1126    3.8801  -14.6236 C   0  0  0  0  0  0  0  0  0  0  0  0
    7.9579    3.0131  -14.2270 C   0  0  0  0  0  0  0  0  0  0  0  0
    6.7128    3.5725  -13.8470 C   0  0  0  0  0  0  0  0  0  0  0  0
    5.6342    2.7743  -13.4251 C   0  0  0  0  0  0  0  0  0  0  0  0
    5.7342    1.3753  -13.4474 C   0  0  0  0  0  0  0  0  0  0  0  0
    6.9323    0.7842  -13.8758 C   0  0  0  0  0  0  0  0  0  0  0  0
    8.0381    1.5832  -14.2470 C   0  0  0  0  0  0  0  0  0  0  0  0
    9.4988    0.7412  -14.6502 Cl  0  0  0  0  0  0  0  0  0  0  0  0
    9.9586    6.7569  -11.9615 C   0  0  0  0  0  0  0  0  0  0  0  0
    9.4331    7.3089  -10.6251 C   0  0  0  0  0  0  0  0  0  0  0  0
   11.4830    8.4111   -5.0640 C   0  0  0  0  0  0  0  0  0  0  0  0
   11.6872    7.1652   -4.4178 C   0  0  0  0  0  0  0  0  0  0  0  0
   12.1348    7.1221   -3.0828 C   0  0  0  0  0  0  0  0  0  0  0  0
   12.3687    8.3184   -2.3806 C   0  0  0  0  0  0  0  0  0  0  0  0
   12.8833    8.2848   -1.1303 F   0  0  0  0  0  0  0  0  0  0  0  0
   12.0861    9.5520   -2.9911 C   0  0  0  0  0  0  0  0  0  0  0  0
   11.6431    9.6006   -4.3227 C   0  0  0  0  0  0  0  0  0  0  0  0
   12.0998    6.6887   -7.0343 H   0  0  0  0  0  0  0  0  0  0  0  0
   11.4492    7.5387   -8.3942 H   0  0  0  0  0  0  0  0  0  0  0  0
    9.5654    6.4004   -6.2693 H   0  0  0  0  0  0  0  0  0  0  0  0
   10.3032    5.3610   -7.4465 H   0  0  0  0  0  0  0  0  0  0  0  0
    8.6344    7.7638   -8.2823 H   0  0  0  0  0  0  0  0  0  0  0  0
    7.9880    6.1735   -7.9629 H   0  0  0  0  0  0  0  0  0  0  0  0
    8.3125    4.3528   -9.3916 H   0  0  0  0  0  0  0  0  0  0  0  0
    7.3950    5.5485  -10.2883 H   0  0  0  0  0  0  0  0  0  0  0  0
    8.2392    3.7725  -11.7549 H   0  0  0  0  0  0  0  0  0  0  0  0
    9.8826    4.0484  -11.2652 H   0  0  0  0  0  0  0  0  0  0  0  0
    7.5121    6.6061  -12.0489 H   0  0  0  0  0  0  0  0  0  0  0  0
   11.4117    6.3589  -13.9065 H   0  0  0  0  0  0  0  0  0  0  0  0
   12.3476    5.6508  -15.9926 H   0  0  0  0  0  0  0  0  0  0  0  0
   11.2317    3.8881  -17.3457 H   0  0  0  0  0  0  0  0  0  0  0  0
    9.2198    2.7907  -16.4946 H   0  0  0  0  0  0  0  0  0  0  0  0
    6.5446    4.6310  -13.9024 H   0  0  0  0  0  0  0  0  0  0  0  0
    4.7094    3.2439  -13.1214 H   0  0  0  0  0  0  0  0  0  0  0  0
    4.8957    0.7623  -13.1501 H   0  0  0  0  0  0  0  0  0  0  0  0
    7.0197   -0.2936  -13.8967 H   0  0  0  0  0  0  0  0  0  0  0  0
   10.9776    6.4222  -11.7910 H   0  0  0  0  0  0  0  0  0  0  0  0
   10.0295    7.6002  -12.6469 H   0  0  0  0  0  0  0  0  0  0  0  0
   10.1293    8.0555  -10.2434 H   0  0  0  0  0  0  0  0  0  0  0  0
    8.4862    7.8281  -10.7761 H   0  0  0  0  0  0  0  0  0  0  0  0
   11.5477    6.2288   -4.9366 H   0  0  0  0  0  0  0  0  0  0  0  0
   12.3251    6.1694   -2.6090 H   0  0  0  0  0  0  0  0  0  0  0  0
   12.2184   10.4676   -2.4397 H   0  0  0  0  0  0  0  0  0  0  0  0
   11.4583   10.5637   -4.7790 H   0  0  0  0  0  0  0  0  0  0  0  0
   10.1906    5.8026   -9.5228 H   0  0  0  0  0  0  0  0  0  0  0  0
  2  1  2  0
  3  2  1  0
  4  3  1  0
  5  4  1  0
  6  5  1  0
  7  6  1  0
  8  7  1  0
  9  8  1  0
  9 10  1  6
 11  9  1  0
 12 11  2  0
 13 12  1  0
 14 13  2  0
 15 14  1  0
 16 11  1  0
 16 15  2  0
 17 16  1  0
 18 17  2  0
 19 18  1  0
 20 19  2  0
 21 20  1  0
 22 17  1  0
 22 21  2  0
 23 22  1  0
 24  9  1  0
 25  6  1  0
 25 24  1  0
 26  2  1  0
 27 26  1  0
 28 27  2  0
 29 28  1  0
 30 29  1  0
 31 29  2  0
 32 26  2  0
 32 31  1  0
 33  3  1  0
 34  3  1  0
 35  4  1  0
 36  4  1  0
 37  5  1  0
 38  5  1  0
 39  7  1  0
 40  7  1  0
 41  8  1  0
 42  8  1  0
 43 10  1  0
 44 12  1  0
 45 13  1  0
 46 14  1  0
 47 15  1  0
 48 18  1  0
 49 19  1  0
 50 20  1  0
 51 21  1  0
 52 24  1  0
 53 24  1  0
 54 25  1  0
 55 25  1  0
 56 27  1  0
 57 28  1  0
 58 31  1  0
 59 32  1  0
  6 60  1  1
M  CHG  1   6   1
M  END
>  <b_m_subgroup_collapsed>  (142) 
0

>  <r_i_docking_score>  (142) 
-8.8106358522920001

>  <s_m_subgroup_title>  (142) 
glide-dock_SP_D22_pv

>  <s_m_subgroupid>  (142) 
glide-dock_SP_D22_pv

>  <Molecule ChEMBL ID>  (142) 
CHEMBL4472206

>  <Standard Type>  (142) 
Ki

>  <Standard Value>  (142) 
2.455

>  <label>  (142) 
1

$$$$
CHEMBL3321791
     RDKit          3D

 53 56  0  0  1  0  0  0  0  0999 V2000
   12.7468    7.8560   -8.5467 O   0  0  0  0  0  0  0  0  0  0  0  0
   11.4808    7.7214   -7.9328 C   0  0  1  0  0  0  0  0  0  0  0  0
   11.6402    7.8922   -6.3989 C   0  0  0  0  0  0  0  0  0  0  0  0
   11.4573    6.8183   -5.4840 C   0  0  0  0  0  0  0  0  0  0  0  0
   11.6862    6.9722   -4.1032 C   0  0  0  0  0  0  0  0  0  0  0  0
   12.1319    8.2004   -3.6003 C   0  0  0  0  0  0  0  0  0  0  0  0
   12.4861    8.3973   -1.9241 Cl  0  0  0  0  0  0  0  0  0  0  0  0
   12.3342    9.2668   -4.4835 C   0  0  0  0  0  0  0  0  0  0  0  0
   12.0840    9.1297   -5.8629 C   0  0  0  0  0  0  0  0  0  0  0  0
   10.6498    8.8596   -8.5737 C   0  0  0  0  0  0  0  0  0  0  0  0
    9.1444    8.5575   -8.5957 C   0  0  2  0  0  0  0  0  0  0  0  0
    8.6629    8.1654   -7.1920 C   0  0  0  0  0  0  0  0  0  0  0  0
    8.6850    6.6223   -7.1870 C   0  0  0  0  0  0  0  0  0  0  0  0
    9.3595    6.2704   -8.5141 C   0  0  2  0  0  0  0  0  0  0  0  0
   10.8953    6.3440   -8.4080 C   0  0  0  0  0  0  0  0  0  0  0  0
    8.8860    7.3478   -9.3977 N   0  0  2  0  0  0  0  0  0  0  0  0
    9.2860    7.3764  -10.8310 C   0  0  0  0  0  0  0  0  0  0  0  0
    8.5456    6.3400  -11.7040 C   0  0  0  0  0  0  0  0  0  0  0  0
    9.0854    4.9033  -11.6053 C   0  0  0  0  0  0  0  0  0  0  0  0
    9.1139    4.0449  -13.2064 S   0  0  0  0  0  0  0  0  0  0  0  0
   10.5526    4.5463  -14.1087 C   0  0  0  0  0  0  0  0  0  0  0  0
   11.0423    3.7077  -15.1301 C   0  0  0  0  0  0  0  0  0  0  0  0
   12.1656    4.0950  -15.8876 C   0  0  0  0  0  0  0  0  0  0  0  0
   12.7958    5.3294  -15.6340 C   0  0  0  0  0  0  0  0  0  0  0  0
   12.3062    6.1701  -14.6166 C   0  0  0  0  0  0  0  0  0  0  0  0
   12.8885    7.3699  -14.3832 F   0  0  0  0  0  0  0  0  0  0  0  0
   11.2003    5.7710  -13.8440 C   0  0  0  0  0  0  0  0  0  0  0  0
   13.0800    8.7279   -8.3907 H   0  0  0  0  0  0  0  0  0  0  0  0
   11.1827    5.8303   -5.8071 H   0  0  0  0  0  0  0  0  0  0  0  0
   11.5475    6.1345   -3.4354 H   0  0  0  0  0  0  0  0  0  0  0  0
   12.7334   10.1723   -4.0791 H   0  0  0  0  0  0  0  0  0  0  0  0
   12.3039    9.9703   -6.5032 H   0  0  0  0  0  0  0  0  0  0  0  0
   10.8219    9.7724   -8.0350 H   0  0  0  0  0  0  0  0  0  0  0  0
   10.9779    9.0652   -9.5943 H   0  0  0  0  0  0  0  0  0  0  0  0
    8.5778    9.4000   -8.9901 H   0  0  0  0  0  0  0  0  0  0  0  0
    9.2332    8.6174   -6.3846 H   0  0  0  0  0  0  0  0  0  0  0  0
    7.6793    8.5502   -7.0469 H   0  0  0  0  0  0  0  0  0  0  0  0
    9.1472    6.1861   -6.3096 H   0  0  0  0  0  0  0  0  0  0  0  0
    7.6861    6.2069   -7.1855 H   0  0  0  0  0  0  0  0  0  0  0  0
    9.0387    5.2888   -8.8608 H   0  0  0  0  0  0  0  0  0  0  0  0
   11.2760    6.1721   -9.4119 H   0  0  0  0  0  0  0  0  0  0  0  0
   11.2824    5.5006   -7.8434 H   0  0  0  0  0  0  0  0  0  0  0  0
    9.0004    8.3598  -11.2069 H   0  0  0  0  0  0  0  0  0  0  0  0
   10.3629    7.3160  -10.9760 H   0  0  0  0  0  0  0  0  0  0  0  0
    7.4780    6.3353  -11.4874 H   0  0  0  0  0  0  0  0  0  0  0  0
    8.6149    6.6764  -12.7384 H   0  0  0  0  0  0  0  0  0  0  0  0
   10.0867    4.8793  -11.1874 H   0  0  0  0  0  0  0  0  0  0  0  0
    8.4556    4.3279  -10.9268 H   0  0  0  0  0  0  0  0  0  0  0  0
   10.5548    2.7659  -15.3365 H   0  0  0  0  0  0  0  0  0  0  0  0
   12.5407    3.4479  -16.6671 H   0  0  0  0  0  0  0  0  0  0  0  0
   13.6508    5.6334  -16.2197 H   0  0  0  0  0  0  0  0  0  0  0  0
   10.8511    6.4342  -13.0725 H   0  0  0  0  0  0  0  0  0  0  0  0
    7.8655    7.3026   -9.4412 H   0  0  0  0  0  0  0  0  0  0  0  0
  2  1  1  6
  3  2  1  0
  4  3  1  0
  5  4  2  0
  6  5  1  0
  7  6  1  0
  8  6  2  0
  9  3  2  0
  9  8  1  0
 10  2  1  0
 11 10  1  0
 12 11  1  0
 13 12  1  0
 14 13  1  0
 15  2  1  0
 15 14  1  0
 16 11  1  0
 16 14  1  0
 17 16  1  0
 18 17  1  0
 19 18  1  0
 20 19  1  0
 21 20  1  0
 22 21  2  0
 23 22  1  0
 24 23  2  0
 25 24  1  0
 26 25  1  0
 27 21  1  0
 27 25  2  0
 28  1  1  0
 29  4  1  0
 30  5  1  0
 31  8  1  0
 32  9  1  0
 33 10  1  0
 34 10  1  0
 11 35  1  6
 36 12  1  0
 37 12  1  0
 38 13  1  0
 39 13  1  0
 14 40  1  6
 41 15  1  0
 42 15  1  0
 43 17  1  0
 44 17  1  0
 45 18  1  0
 46 18  1  0
 47 19  1  0
 48 19  1  0
 49 22  1  0
 50 23  1  0
 51 24  1  0
 52 27  1  0
 16 53  1  6
M  CHG  1  16   1
M  END
>  <b_m_subgroup_collapsed>  (143) 
0

>  <r_i_docking_score>  (143) 
-8.8089729803422294

>  <s_m_subgroup_title>  (143) 
glide-dock_SP_D22_pv

>  <s_m_subgroupid>  (143) 
glide-dock_SP_D22_pv

>  <Molecule ChEMBL ID>  (143) 
CHEMBL3321791

>  <Standard Type>  (143) 
Ki

>  <Standard Value>  (143) 
27.0

>  <label>  (143) 
1

$$$$
CHEMBL143761
     RDKit          3D

 45 48  0  0  1  0  0  0  0  0999 V2000
    8.3271    0.6684  -15.7080 N   0  0  0  0  0  0  0  0  0  0  0  0
    8.1491    1.6099  -15.0604 C   0  0  0  0  0  0  0  0  0  0  0  0
    7.9281    2.7945  -14.2481 C   0  0  0  0  0  0  0  0  0  0  0  0
    6.6219    3.1408  -13.8424 C   0  0  0  0  0  0  0  0  0  0  0  0
    6.4185    4.2682  -13.0243 C   0  0  0  0  0  0  0  0  0  0  0  0
    7.5236    5.0454  -12.6329 C   0  0  0  0  0  0  0  0  0  0  0  0
    7.6436    6.1723  -11.8472 N   0  0  0  0  0  0  0  0  0  0  0  0
    8.9592    6.5848  -11.7652 C   0  0  0  0  0  0  0  0  0  0  0  0
    9.3296    7.7849  -10.9582 C   0  0  0  0  0  0  0  0  0  0  0  0
    9.3012    7.5118   -9.4991 N   0  0  0  0  0  0  0  0  0  0  0  0
    9.2860    8.7676   -8.7078 C   0  0  0  0  0  0  0  0  0  0  0  0
    9.2799    8.4672   -7.2045 C   0  0  0  0  0  0  0  0  0  0  0  0
   10.4547    7.6890   -6.8616 N   0  0  0  0  0  0  0  0  0  0  0  0
   11.0065    7.8711   -5.5748 C   0  0  0  0  0  0  0  0  0  0  0  0
   11.2855    9.1749   -5.0965 C   0  0  0  0  0  0  0  0  0  0  0  0
   11.8080    9.3724   -3.8027 C   0  0  0  0  0  0  0  0  0  0  0  0
   12.0858    8.2720   -2.9746 C   0  0  0  0  0  0  0  0  0  0  0  0
   12.5901    8.4658   -1.7338 F   0  0  0  0  0  0  0  0  0  0  0  0
   11.8324    6.9718   -3.4410 C   0  0  0  0  0  0  0  0  0  0  0  0
   11.2897    6.7767   -4.7271 C   0  0  0  0  0  0  0  0  0  0  0  0
   10.4865    6.3997   -7.5368 C   0  0  0  0  0  0  0  0  0  0  0  0
   10.3866    6.5794   -9.0695 C   0  0  0  0  0  0  0  0  0  0  0  0
    9.7356    5.7245  -12.4981 C   0  0  0  0  0  0  0  0  0  0  0  0
    8.8522    4.7335  -13.0472 C   0  0  0  0  0  0  0  0  0  0  0  0
    9.0279    3.5884  -13.8576 C   0  0  0  0  0  0  0  0  0  0  0  0
    5.7780    2.5337  -14.1388 H   0  0  0  0  0  0  0  0  0  0  0  0
    5.4248    4.5315  -12.6930 H   0  0  0  0  0  0  0  0  0  0  0  0
    6.9007    6.6747  -11.3444 H   0  0  0  0  0  0  0  0  0  0  0  0
    8.6235    8.5846  -11.1880 H   0  0  0  0  0  0  0  0  0  0  0  0
   10.3134    8.1527  -11.2542 H   0  0  0  0  0  0  0  0  0  0  0  0
    8.4085    9.3622   -8.9663 H   0  0  0  0  0  0  0  0  0  0  0  0
   10.1605    9.3710   -8.9596 H   0  0  0  0  0  0  0  0  0  0  0  0
    8.3836    7.9025   -6.9407 H   0  0  0  0  0  0  0  0  0  0  0  0
    9.2376    9.3719   -6.6200 H   0  0  0  0  0  0  0  0  0  0  0  0
   11.1008   10.0399   -5.7171 H   0  0  0  0  0  0  0  0  0  0  0  0
   11.9930   10.3677   -3.4318 H   0  0  0  0  0  0  0  0  0  0  0  0
   12.0370    6.1220   -2.8063 H   0  0  0  0  0  0  0  0  0  0  0  0
   11.0819    5.7724   -5.0466 H   0  0  0  0  0  0  0  0  0  0  0  0
   11.4044    5.8619   -7.2974 H   0  0  0  0  0  0  0  0  0  0  0  0
    9.6544    5.7925   -7.1757 H   0  0  0  0  0  0  0  0  0  0  0  0
   10.2508    5.6044   -9.5383 H   0  0  0  0  0  0  0  0  0  0  0  0
   11.3377    6.9715   -9.4320 H   0  0  0  0  0  0  0  0  0  0  0  0
   10.8059    5.7646  -12.6403 H   0  0  0  0  0  0  0  0  0  0  0  0
   10.0246    3.3166  -14.1736 H   0  0  0  0  0  0  0  0  0  0  0  0
    8.4077    7.0665   -9.3172 H   0  0  0  0  0  0  0  0  0  0  0  0
  2  1  3  0
  3  2  1  0
  4  3  2  0
  5  4  1  0
  6  5  2  0
  7  6  1  0
  8  7  1  0
  9  8  1  0
 10  9  1  0
 11 10  1  0
 12 11  1  0
 13 12  1  0
 14 13  1  0
 15 14  1  0
 16 15  2  0
 17 16  1  0
 18 17  1  0
 19 17  2  0
 20 14  2  0
 20 19  1  0
 21 13  1  0
 22 10  1  0
 22 21  1  0
 23  8  2  0
 24  6  1  0
 24 23  1  0
 25  3  1  0
 25 24  2  0
 26  4  1  0
 27  5  1  0
 28  7  1  0
 29  9  1  0
 30  9  1  0
 31 11  1  0
 32 11  1  0
 33 12  1  0
 34 12  1  0
 35 15  1  0
 36 16  1  0
 37 19  1  0
 38 20  1  0
 39 21  1  0
 40 21  1  0
 41 22  1  0
 42 22  1  0
 43 23  1  0
 44 25  1  0
 45 10  1  0
M  CHG  1  10   1
M  END
>  <b_m_subgroup_collapsed>  (144) 
0

>  <r_i_docking_score>  (144) 
-8.8079190661569005

>  <s_m_subgroup_title>  (144) 
glide-dock_SP_D22_pv

>  <s_m_subgroupid>  (144) 
glide-dock_SP_D22_pv

>  <Molecule ChEMBL ID>  (144) 
CHEMBL143761

>  <Standard Type>  (144) 
Ki

>  <Standard Value>  (144) 
19000.0

>  <label>  (144) 
0

$$$$
CHEMBL6011755
     RDKit          3D

 51 53  0  0  1  0  0  0  0  0999 V2000
   11.6588    7.3725   -8.1637 C   0  0  0  0  0  0  0  0  0  0  0  0
   10.2220    7.7671   -7.7625 C   0  0  1  0  0  0  0  0  0  0  0  0
   10.2604    8.8007   -6.7635 O   0  0  0  0  0  0  0  0  0  0  0  0
   10.8883    8.6535   -5.5377 C   0  0  0  0  0  0  0  0  0  0  0  0
   11.0742    9.8018   -4.7435 C   0  0  0  0  0  0  0  0  0  0  0  0
   11.6880    9.6694   -3.4806 C   0  0  0  0  0  0  0  0  0  0  0  0
   12.0883    8.3913   -3.0539 C   0  0  0  0  0  0  0  0  0  0  0  0
   11.8669    7.3016   -3.9156 C   0  0  0  0  0  0  0  0  0  0  0  0
   11.2856    7.4243   -5.1251 N   0  0  0  0  0  0  0  0  0  0  0  0
    9.5295    8.4336   -8.9650 C   0  0  0  0  0  0  0  0  0  0  0  0
    9.2733    7.4541  -10.1291 C   0  0  0  0  0  0  0  0  0  0  0  0
    8.4863    6.2565   -9.7098 N   0  0  1  0  0  0  0  0  0  0  0  0
    8.2479    5.3032  -10.8240 C   0  0  0  0  0  0  0  0  0  0  0  0
    7.2940    5.8413  -11.9118 C   0  0  0  0  0  0  0  0  0  0  0  0
    7.5238    5.1397  -13.1239 O   0  0  0  0  0  0  0  0  0  0  0  0
    6.9888    3.8860  -13.2947 C   0  0  0  0  0  0  0  0  0  0  0  0
    7.6148    3.0587  -14.2475 C   0  0  0  0  0  0  0  0  0  0  0  0
    7.1201    1.7717  -14.5217 C   0  0  0  0  0  0  0  0  0  0  0  0
    5.9822    1.2928  -13.8466 C   0  0  0  0  0  0  0  0  0  0  0  0
    5.4341   -0.0831  -14.1897 C   0  0  0  0  0  0  0  0  0  0  0  0
    5.3413   -0.2242  -15.5109 F   0  0  0  0  0  0  0  0  0  0  0  0
    6.2648   -1.0080  -13.7140 F   0  0  0  0  0  0  0  0  0  0  0  0
    4.2231   -0.2619  -13.6594 F   0  0  0  0  0  0  0  0  0  0  0  0
    5.3558    2.1137  -12.8845 C   0  0  0  0  0  0  0  0  0  0  0  0
    5.8522    3.4020  -12.6068 C   0  0  0  0  0  0  0  0  0  0  0  0
    9.0593    5.5917   -8.5119 C   0  0  0  0  0  0  0  0  0  0  0  0
    9.3193    6.5758   -7.3525 C   0  0  0  0  0  0  0  0  0  0  0  0
   11.6760    6.8486   -9.1147 H   0  0  0  0  0  0  0  0  0  0  0  0
   12.2922    8.2540   -8.2767 H   0  0  0  0  0  0  0  0  0  0  0  0
   12.1262    6.7092   -7.4399 H   0  0  0  0  0  0  0  0  0  0  0  0
   10.7495   10.7687   -5.0936 H   0  0  0  0  0  0  0  0  0  0  0  0
   11.8438   10.5342   -2.8519 H   0  0  0  0  0  0  0  0  0  0  0  0
   12.5564    8.2523   -2.0915 H   0  0  0  0  0  0  0  0  0  0  0  0
   12.1608    6.3049   -3.6248 H   0  0  0  0  0  0  0  0  0  0  0  0
    8.5734    8.8560   -8.6475 H   0  0  0  0  0  0  0  0  0  0  0  0
   10.1220    9.2770   -9.3229 H   0  0  0  0  0  0  0  0  0  0  0  0
    8.7366    8.0126  -10.8951 H   0  0  0  0  0  0  0  0  0  0  0  0
   10.2010    7.1406  -10.6054 H   0  0  0  0  0  0  0  0  0  0  0  0
    9.2082    5.0329  -11.2631 H   0  0  0  0  0  0  0  0  0  0  0  0
    7.8217    4.3768  -10.4310 H   0  0  0  0  0  0  0  0  0  0  0  0
    6.2547    5.8424  -11.5843 H   0  0  0  0  0  0  0  0  0  0  0  0
    7.5101    6.8754  -12.1656 H   0  0  0  0  0  0  0  0  0  0  0  0
    8.4827    3.4194  -14.7778 H   0  0  0  0  0  0  0  0  0  0  0  0
    7.6088    1.1545  -15.2611 H   0  0  0  0  0  0  0  0  0  0  0  0
    4.4885    1.7706  -12.3505 H   0  0  0  0  0  0  0  0  0  0  0  0
    5.3275    3.9903  -11.8689 H   0  0  0  0  0  0  0  0  0  0  0  0
    8.3706    4.8156   -8.1724 H   0  0  0  0  0  0  0  0  0  0  0  0
    9.9876    5.0866   -8.7840 H   0  0  0  0  0  0  0  0  0  0  0  0
    9.7540    6.0203   -6.5278 H   0  0  0  0  0  0  0  0  0  0  0  0
    8.3646    6.9548   -6.9850 H   0  0  0  0  0  0  0  0  0  0  0  0
    7.5745    6.6389   -9.4577 H   0  0  0  0  0  0  0  0  0  0  0  0
  2  1  1  0
  2  3  1  1
  4  3  1  0
  5  4  2  0
  6  5  1  0
  7  6  2  0
  8  7  1  0
  9  4  1  0
  9  8  2  0
 10  2  1  0
 11 10  1  0
 12 11  1  0
 13 12  1  0
 14 13  1  0
 15 14  1  0
 16 15  1  0
 17 16  1  0
 18 17  2  0
 19 18  1  0
 20 19  1  0
 21 20  1  0
 22 20  1  0
 23 20  1  0
 24 19  2  0
 25 16  2  0
 25 24  1  0
 26 12  1  0
 27  2  1  0
 27 26  1  0
 28  1  1  0
 29  1  1  0
 30  1  1  0
 31  5  1  0
 32  6  1  0
 33  7  1  0
 34  8  1  0
 35 10  1  0
 36 10  1  0
 37 11  1  0
 38 11  1  0
 39 13  1  0
 40 13  1  0
 41 14  1  0
 42 14  1  0
 43 17  1  0
 44 18  1  0
 45 24  1  0
 46 25  1  0
 47 26  1  0
 48 26  1  0
 49 27  1  0
 50 27  1  0
 12 51  1  1
M  CHG  1  12   1
M  END
>  <b_m_subgroup_collapsed>  (145) 
0

>  <r_i_docking_score>  (145) 
-8.7974417072860298

>  <s_m_subgroup_title>  (145) 
glide-dock_SP_D22_pv

>  <s_m_subgroupid>  (145) 
glide-dock_SP_D22_pv

>  <Molecule ChEMBL ID>  (145) 
CHEMBL6011755

>  <Standard Type>  (145) 
Ki

>  <Standard Value>  (145) 
20000.0

>  <label>  (145) 
0

$$$$
CHEMBL92649
     RDKit          3D

 87 93  0  0  1  0  0  0  0  0999 V2000
    8.0032    5.4738  -24.7004 O   0  0  0  0  0  0  0  0  0  0  0  0
    8.0468    5.5252  -23.4700 C   0  0  0  0  0  0  0  0  0  0  0  0
    8.6417    4.3272  -22.7168 C   0  0  0  0  0  0  0  0  0  0  0  0
   10.1825    4.3075  -22.7706 C   0  0  0  0  0  0  0  0  0  0  0  0
   10.8973    5.4446  -22.0031 C   0  0  0  0  0  0  0  0  0  0  0  0
   10.6979    5.4323  -20.5262 N   0  0  2  0  0  0  0  0  0  0  0  0
   11.3227    6.6324  -19.9071 C   0  0  0  0  0  0  0  0  0  0  0  0
   11.1490    6.6852  -18.3776 C   0  0  0  0  0  0  0  0  0  0  0  0
   11.6361    5.4141  -17.6444 C   0  0  2  0  0  0  0  0  0  0  0  0
   11.0030    4.1828  -18.3562 C   0  0  0  0  0  0  0  0  0  0  0  0
   11.1629    4.1703  -19.8900 C   0  0  0  0  0  0  0  0  0  0  0  0
   11.1568    5.4445  -16.1967 C   0  0  0  0  0  0  0  0  0  0  0  0
    9.9738    5.3656  -15.8731 O   0  0  0  0  0  0  0  0  0  0  0  0
   12.1894    5.5594  -15.3580 N   0  0  0  0  0  0  0  0  0  0  0  0
   12.0796    5.6899  -13.9022 C   0  0  0  0  0  0  0  0  0  0  0  0
   12.0356    7.1719  -13.4593 C   0  0  0  0  0  0  0  0  0  0  0  0
   11.4315    7.3720  -12.0753 C   0  0  0  0  0  0  0  0  0  0  0  0
   10.0824    7.0319  -11.8470 C   0  0  0  0  0  0  0  0  0  0  0  0
    9.5208    7.1772  -10.5652 C   0  0  0  0  0  0  0  0  0  0  0  0
   10.2892    7.6561   -9.4877 C   0  0  0  0  0  0  0  0  0  0  0  0
    9.6775    7.7363   -8.2274 N   0  0  0  0  0  0  0  0  0  0  0  0
   10.3239    7.7159   -6.9825 C   0  0  0  0  0  0  0  0  0  0  0  0
   10.1900    6.6011   -6.1554 C   0  0  0  0  0  0  0  0  0  0  0  0
   10.8243    6.5723   -4.9020 C   0  0  0  0  0  0  0  0  0  0  0  0
   11.6253    7.6068   -4.4277 C   0  0  0  0  0  0  0  0  0  0  0  0
   12.2516    7.5251   -3.0945 N   0  0  0  0  0  0  0  0  0  0  0  0
   12.4851    8.5616   -2.4825 O   0  0  0  0  0  0  0  0  0  0  0  0
   12.4860    6.4109   -2.6454 O   0  0  0  0  0  0  0  0  0  0  0  0
   11.7563    8.7044   -5.2495 C   0  0  0  0  0  0  0  0  0  0  0  0
   12.5027    9.7734   -5.0818 N   0  0  0  0  0  0  0  0  0  0  0  0
   12.1790   10.5821   -6.1725 O   0  0  0  0  0  0  0  0  0  0  0  0
   11.2865    9.9698   -7.0468 N   0  0  0  0  0  0  0  0  0  0  0  0
   11.0723    8.7830   -6.5064 C   0  0  0  0  0  0  0  0  0  0  0  0
   11.6378    8.0145   -9.7219 C   0  0  0  0  0  0  0  0  0  0  0  0
   12.1981    7.8842  -11.0088 C   0  0  0  0  0  0  0  0  0  0  0  0
   13.4645    5.4627  -16.0543 C   0  0  0  0  0  0  0  0  0  0  0  0
   13.0986    5.4151  -17.4723 N   0  0  0  0  0  0  0  0  0  0  0  0
   13.9322    4.6969  -18.3437 C   0  0  0  0  0  0  0  0  0  0  0  0
   14.6101    5.3816  -19.3739 C   0  0  0  0  0  0  0  0  0  0  0  0
   15.3263    4.6641  -20.3520 C   0  0  0  0  0  0  0  0  0  0  0  0
   15.3749    3.2579  -20.2982 C   0  0  0  0  0  0  0  0  0  0  0  0
   14.7497    2.5731  -19.2395 C   0  0  0  0  0  0  0  0  0  0  0  0
   14.0487    3.2926  -18.2526 C   0  0  0  0  0  0  0  0  0  0  0  0
    7.6355    6.7299  -22.6960 C   0  0  0  0  0  0  0  0  0  0  0  0
    7.5471    7.9719  -23.3686 C   0  0  0  0  0  0  0  0  0  0  0  0
    7.1500    9.1350  -22.6802 C   0  0  0  0  0  0  0  0  0  0  0  0
    6.8212    9.0639  -21.3149 C   0  0  0  0  0  0  0  0  0  0  0  0
    6.4310   10.1719  -20.6472 F   0  0  0  0  0  0  0  0  0  0  0  0
    6.8898    7.8342  -20.6412 C   0  0  0  0  0  0  0  0  0  0  0  0
    7.2902    6.6712  -21.3243 C   0  0  0  0  0  0  0  0  0  0  0  0
    8.2647    3.4289  -23.2068 H   0  0  0  0  0  0  0  0  0  0  0  0
    8.2951    4.2612  -21.6907 H   0  0  0  0  0  0  0  0  0  0  0  0
   10.4878    4.3683  -23.8170 H   0  0  0  0  0  0  0  0  0  0  0  0
   10.5415    3.3303  -22.4480 H   0  0  0  0  0  0  0  0  0  0  0  0
   10.5767    6.4090  -22.4021 H   0  0  0  0  0  0  0  0  0  0  0  0
   11.9676    5.3797  -22.2085 H   0  0  0  0  0  0  0  0  0  0  0  0
   10.8786    7.5314  -20.3382 H   0  0  0  0  0  0  0  0  0  0  0  0
   12.3790    6.6685  -20.1651 H   0  0  0  0  0  0  0  0  0  0  0  0
   10.0919    6.8583  -18.1652 H   0  0  0  0  0  0  0  0  0  0  0  0
   11.6858    7.5542  -17.9933 H   0  0  0  0  0  0  0  0  0  0  0  0
   11.3675    3.2495  -17.9275 H   0  0  0  0  0  0  0  0  0  0  0  0
    9.9285    4.1723  -18.1587 H   0  0  0  0  0  0  0  0  0  0  0  0
   10.5803    3.3299  -20.2650 H   0  0  0  0  0  0  0  0  0  0  0  0
   12.1912    3.9778  -20.1880 H   0  0  0  0  0  0  0  0  0  0  0  0
   11.1674    5.1815  -13.5848 H   0  0  0  0  0  0  0  0  0  0  0  0
   12.8870    5.1582  -13.4051 H   0  0  0  0  0  0  0  0  0  0  0  0
   13.0428    7.5911  -13.4910 H   0  0  0  0  0  0  0  0  0  0  0  0
   11.4540    7.7618  -14.1643 H   0  0  0  0  0  0  0  0  0  0  0  0
    9.4700    6.6475  -12.6478 H   0  0  0  0  0  0  0  0  0  0  0  0
    8.4863    6.9066  -10.4105 H   0  0  0  0  0  0  0  0  0  0  0  0
    8.7298    7.3723   -8.2237 H   0  0  0  0  0  0  0  0  0  0  0  0
    9.5806    5.7724   -6.4825 H   0  0  0  0  0  0  0  0  0  0  0  0
   10.6661    5.7411   -4.2477 H   0  0  0  0  0  0  0  0  0  0  0  0
   12.2636    8.3892   -8.9272 H   0  0  0  0  0  0  0  0  0  0  0  0
   13.2276    8.1726  -11.1672 H   0  0  0  0  0  0  0  0  0  0  0  0
   14.0060    4.5726  -15.7398 H   0  0  0  0  0  0  0  0  0  0  0  0
   14.0798    6.3390  -15.8466 H   0  0  0  0  0  0  0  0  0  0  0  0
   14.5592    6.4591  -19.4364 H   0  0  0  0  0  0  0  0  0  0  0  0
   15.8278    5.1910  -21.1501 H   0  0  0  0  0  0  0  0  0  0  0  0
   15.9172    2.7074  -21.0530 H   0  0  0  0  0  0  0  0  0  0  0  0
   14.8071    1.4955  -19.1816 H   0  0  0  0  0  0  0  0  0  0  0  0
   13.5620    2.7558  -17.4511 H   0  0  0  0  0  0  0  0  0  0  0  0
    7.7915    8.0462  -24.4197 H   0  0  0  0  0  0  0  0  0  0  0  0
    7.0953   10.0797  -23.1998 H   0  0  0  0  0  0  0  0  0  0  0  0
    6.6252    7.7798  -19.5946 H   0  0  0  0  0  0  0  0  0  0  0  0
    7.2921    5.7473  -20.7678 H   0  0  0  0  0  0  0  0  0  0  0  0
    9.7048    5.5053  -20.3543 H   0  0  0  0  0  0  0  0  0  0  0  0
  2  1  2  0
  3  2  1  0
  4  3  1  0
  5  4  1  0
  6  5  1  0
  7  6  1  0
  8  7  1  0
  9  8  1  0
 10  9  1  0
 11  6  1  0
 11 10  1  0
 12  9  1  0
 13 12  2  0
 14 12  1  0
 15 14  1  0
 16 15  1  0
 17 16  1  0
 18 17  1  0
 19 18  2  0
 20 19  1  0
 21 20  1  0
 22 21  1  0
 23 22  2  0
 24 23  1  0
 25 24  2  0
 26 25  1  0
 27 26  2  0
 28 26  1  0
 29 25  1  0
 30 29  2  0
 31 30  1  0
 32 31  1  0
 33 22  1  0
 33 29  1  0
 33 32  2  0
 34 20  2  0
 35 17  2  0
 35 34  1  0
 36 14  1  0
  9 37  1  1
 37 36  1  0
 38 37  1  0
 39 38  2  0
 40 39  1  0
 41 40  2  0
 42 41  1  0
 43 38  1  0
 43 42  2  0
 44  2  1  0
 45 44  1  0
 46 45  2  0
 47 46  1  0
 48 47  1  0
 49 47  2  0
 50 44  2  0
 50 49  1  0
 51  3  1  0
 52  3  1  0
 53  4  1  0
 54  4  1  0
 55  5  1  0
 56  5  1  0
 57  7  1  0
 58  7  1  0
 59  8  1  0
 60  8  1  0
 61 10  1  0
 62 10  1  0
 63 11  1  0
 64 11  1  0
 65 15  1  0
 66 15  1  0
 67 16  1  0
 68 16  1  0
 69 18  1  0
 70 19  1  0
 71 21  1  0
 72 23  1  0
 73 24  1  0
 74 34  1  0
 75 35  1  0
 76 36  1  0
 77 36  1  0
 78 39  1  0
 79 40  1  0
 80 41  1  0
 81 42  1  0
 82 43  1  0
 83 45  1  0
 84 46  1  0
 85 49  1  0
 86 50  1  0
  6 87  1  6
M  CHG  3   6   1  26   1  28  -1
M  END
>  <b_m_subgroup_collapsed>  (146) 
0

>  <r_i_docking_score>  (146) 
-8.7918068482726994

>  <s_m_subgroup_title>  (146) 
glide-dock_SP_D22_pv

>  <s_m_subgroupid>  (146) 
glide-dock_SP_D22_pv

>  <Molecule ChEMBL ID>  (146) 
CHEMBL92649

>  <Standard Type>  (146) 
Ki

>  <Standard Value>  (146) 
0.66

>  <label>  (146) 
1

$$$$
CHEMBL3695445
     RDKit          3D

 78 83  0  0  1  0  0  0  0  0999 V2000
    9.2856    8.5830  -11.0617 O   0  0  0  0  0  0  0  0  0  0  0  0
   10.1108    7.8531  -10.5207 C   0  0  0  0  0  0  0  0  0  0  0  0
   10.8859    6.9723  -11.1586 N   0  0  0  0  0  0  0  0  0  0  0  0
   10.8485    6.6811  -12.5828 C   0  0  1  0  0  0  0  0  0  0  0  0
   12.2648    6.6105  -13.1807 C   0  0  0  0  0  0  0  0  0  0  0  0
   12.2410    6.1970  -14.6612 C   0  0  0  0  0  0  0  0  0  0  0  0
   11.5360    4.8383  -14.8546 C   0  0  2  0  0  0  0  0  0  0  0  0
   11.6124    4.3774  -16.3315 C   0  0  0  0  0  0  0  0  0  0  0  0
   11.5448    2.8481  -16.5532 C   0  0  0  0  0  0  0  0  0  0  0  0
   10.2560    2.2508  -16.1301 N   0  0  2  0  0  0  0  0  0  0  0  0
   10.3331    0.7918  -15.8776 C   0  0  0  0  0  0  0  0  0  0  0  0
    9.0506    0.3002  -15.1869 C   0  0  0  0  0  0  0  0  0  0  0  0
    7.7786    0.6558  -15.9913 C   0  0  1  0  0  0  0  0  0  0  0  0
    6.4855    0.3151  -15.2531 C   0  0  0  0  0  0  0  0  0  0  0  0
    6.2522    0.8105  -13.9484 C   0  0  0  0  0  0  0  0  0  0  0  0
    5.0287    0.5739  -13.2866 C   0  0  0  0  0  0  0  0  0  0  0  0
    3.9995   -0.1562  -13.9204 C   0  0  0  0  0  0  0  0  0  0  0  0
    4.2349   -0.6499  -15.2096 C   0  0  0  0  0  0  0  0  0  0  0  0
    5.4436   -0.4262  -15.8549 C   0  0  0  0  0  0  0  0  0  0  0  0
    5.3869   -1.0521  -17.2071 C   0  0  0  0  0  0  0  0  0  0  0  0
    3.9360   -1.5914  -17.2475 C   0  0  0  0  0  0  0  0  0  0  0  0
    3.3405   -1.3533  -15.9630 O   0  0  0  0  0  0  0  0  0  0  0  0
    7.7923    2.1520  -16.3632 C   0  0  0  0  0  0  0  0  0  0  0  0
    9.1147    2.5758  -17.0224 C   0  0  0  0  0  0  0  0  0  0  0  0
   10.0906    4.9562  -14.3191 C   0  0  0  0  0  0  0  0  0  0  0  0
   10.0611    5.3817  -12.8416 C   0  0  0  0  0  0  0  0  0  0  0  0
   10.3908    7.9247   -9.0607 C   0  0  0  0  0  0  0  0  0  0  0  0
    9.9252    6.9231   -8.1844 C   0  0  0  0  0  0  0  0  0  0  0  0
   10.2561    6.9750   -6.8160 C   0  0  0  0  0  0  0  0  0  0  0  0
   11.0582    8.0247   -6.3076 C   0  0  0  0  0  0  0  0  0  0  0  0
   11.4388    8.1021   -4.8880 C   0  0  0  0  0  0  0  0  0  0  0  0
   11.5975    9.3482   -4.2418 C   0  0  0  0  0  0  0  0  0  0  0  0
   11.9969    9.3844   -2.8975 C   0  0  0  0  0  0  0  0  0  0  0  0
   12.2338    8.1717   -2.2355 C   0  0  0  0  0  0  0  0  0  0  0  0
   12.0852    6.9708   -2.8240 N   0  0  0  0  0  0  0  0  0  0  0  0
   11.6862    6.9452   -4.1143 C   0  0  0  0  0  0  0  0  0  0  0  0
   11.5226    9.0123   -7.2054 C   0  0  0  0  0  0  0  0  0  0  0  0
   11.1856    8.9708   -8.5681 C   0  0  0  0  0  0  0  0  0  0  0  0
   11.5471    6.4641  -10.5923 H   0  0  0  0  0  0  0  0  0  0  0  0
   10.3526    7.5235  -13.0428 H   0  0  0  0  0  0  0  0  0  0  0  0
   12.7644    7.5741  -13.0738 H   0  0  0  0  0  0  0  0  0  0  0  0
   12.8740    5.8842  -12.6472 H   0  0  0  0  0  0  0  0  0  0  0  0
   11.7427    6.9663  -15.2533 H   0  0  0  0  0  0  0  0  0  0  0  0
   13.2673    6.1429  -15.0268 H   0  0  0  0  0  0  0  0  0  0  0  0
   12.0709    4.1051  -14.2482 H   0  0  0  0  0  0  0  0  0  0  0  0
   10.8719    4.9065  -16.9338 H   0  0  0  0  0  0  0  0  0  0  0  0
   12.5742    4.6958  -16.7376 H   0  0  0  0  0  0  0  0  0  0  0  0
   11.7241    2.6090  -17.6030 H   0  0  0  0  0  0  0  0  0  0  0  0
   12.3614    2.3882  -15.9934 H   0  0  0  0  0  0  0  0  0  0  0  0
   10.4932    0.2605  -16.8177 H   0  0  0  0  0  0  0  0  0  0  0  0
   11.1892    0.5671  -15.2378 H   0  0  0  0  0  0  0  0  0  0  0  0
    9.1133   -0.7755  -15.0469 H   0  0  0  0  0  0  0  0  0  0  0  0
    9.0103    0.7328  -14.1866 H   0  0  0  0  0  0  0  0  0  0  0  0
    7.8093    0.0789  -16.9169 H   0  0  0  0  0  0  0  0  0  0  0  0
    7.0004    1.4057  -13.4485 H   0  0  0  0  0  0  0  0  0  0  0  0
    4.8886    0.9753  -12.2943 H   0  0  0  0  0  0  0  0  0  0  0  0
    3.0473   -0.3243  -13.4404 H   0  0  0  0  0  0  0  0  0  0  0  0
    5.5728   -0.3192  -17.9932 H   0  0  0  0  0  0  0  0  0  0  0  0
    6.1194   -1.8583  -17.2787 H   0  0  0  0  0  0  0  0  0  0  0  0
    3.3497   -1.0720  -18.0064 H   0  0  0  0  0  0  0  0  0  0  0  0
    3.9128   -2.6554  -17.4835 H   0  0  0  0  0  0  0  0  0  0  0  0
    6.9562    2.3752  -17.0281 H   0  0  0  0  0  0  0  0  0  0  0  0
    7.6406    2.7509  -15.4641 H   0  0  0  0  0  0  0  0  0  0  0  0
    9.0725    3.6459  -17.2230 H   0  0  0  0  0  0  0  0  0  0  0  0
    9.2410    2.0785  -17.9848 H   0  0  0  0  0  0  0  0  0  0  0  0
    9.5307    5.6777  -14.9145 H   0  0  0  0  0  0  0  0  0  0  0  0
    9.5494    4.0185  -14.4013 H   0  0  0  0  0  0  0  0  0  0  0  0
   10.4803    4.5760  -12.2414 H   0  0  0  0  0  0  0  0  0  0  0  0
    9.0287    5.5041  -12.5138 H   0  0  0  0  0  0  0  0  0  0  0  0
    9.3138    6.1138   -8.5563 H   0  0  0  0  0  0  0  0  0  0  0  0
    9.8877    6.1933   -6.1623 H   0  0  0  0  0  0  0  0  0  0  0  0
   11.3946   10.2732   -4.7618 H   0  0  0  0  0  0  0  0  0  0  0  0
   12.0882   10.3263   -2.3792 H   0  0  0  0  0  0  0  0  0  0  0  0
   12.5428    8.1701   -1.1991 H   0  0  0  0  0  0  0  0  0  0  0  0
   11.5941    5.9639   -4.5529 H   0  0  0  0  0  0  0  0  0  0  0  0
   12.1616    9.8106   -6.8622 H   0  0  0  0  0  0  0  0  0  0  0  0
   11.5585    9.7308   -9.2408 H   0  0  0  0  0  0  0  0  0  0  0  0
   10.0510    2.6694  -15.2331 H   0  0  0  0  0  0  0  0  0  0  0  0
  2  1  2  0
  3  2  1  0
  4  3  1  0
  5  4  1  0
  6  5  1  0
  7  6  1  0
  8  7  1  0
  9  8  1  0
 10  9  1  0
 11 10  1  0
 12 11  1  0
 13 12  1  0
 14 13  1  0
 15 14  2  0
 16 15  1  0
 17 16  2  0
 18 17  1  0
 19 14  1  0
 19 18  2  0
 20 19  1  0
 21 20  1  0
 22 18  1  0
 22 21  1  0
 23 13  1  0
 24 10  1  0
 24 23  1  0
 25  7  1  0
 26  4  1  0
 26 25  1  0
 27  2  1  0
 28 27  1  0
 29 28  2  0
 30 29  1  0
 31 30  1  0
 32 31  1  0
 33 32  2  0
 34 33  1  0
 35 34  2  0
 36 31  2  0
 36 35  1  0
 37 30  2  0
 38 27  2  0
 38 37  1  0
 39  3  1  0
  4 40  1  6
 41  5  1  0
 42  5  1  0
 43  6  1  0
 44  6  1  0
  7 45  1  1
 46  8  1  0
 47  8  1  0
 48  9  1  0
 49  9  1  0
 50 11  1  0
 51 11  1  0
 52 12  1  0
 53 12  1  0
 13 54  1  6
 55 15  1  0
 56 16  1  0
 57 17  1  0
 58 20  1  0
 59 20  1  0
 60 21  1  0
 61 21  1  0
 62 23  1  0
 63 23  1  0
 64 24  1  0
 65 24  1  0
 66 25  1  0
 67 25  1  0
 68 26  1  0
 69 26  1  0
 70 28  1  0
 71 29  1  0
 72 32  1  0
 73 33  1  0
 74 34  1  0
 75 36  1  0
 76 37  1  0
 77 38  1  0
 10 78  1  1
M  CHG  1  10   1
M  END
>  <b_m_subgroup_collapsed>  (147) 
0

>  <r_i_docking_score>  (147) 
-8.7883661750408901

>  <s_m_subgroup_title>  (147) 
glide-dock_SP_D22_pv

>  <s_m_subgroupid>  (147) 
glide-dock_SP_D22_pv

>  <Molecule ChEMBL ID>  (147) 
CHEMBL3695445

>  <Standard Type>  (147) 
Ki

>  <Standard Value>  (147) 
99.8

>  <label>  (147) 
1

$$$$
CHEMBL5394387
     RDKit          3D

 51 54  0  0  1  0  0  0  0  0999 V2000
    9.2925    2.5324  -14.3642 C   0  0  0  0  0  0  0  0  0  0  0  0
   10.2884    3.6747  -14.2599 C   0  0  0  0  0  0  0  0  0  0  0  0
   11.4091    3.6758  -15.1167 C   0  0  0  0  0  0  0  0  0  0  0  0
   12.3279    4.7357  -15.0469 C   0  0  0  0  0  0  0  0  0  0  0  0
   12.0860    5.7634  -14.1215 C   0  0  0  0  0  0  0  0  0  0  0  0
   11.0235    5.7723  -13.2927 N   0  0  0  0  0  0  0  0  0  0  0  0
   10.1396    4.7497  -13.3422 C   0  0  0  0  0  0  0  0  0  0  0  0
    8.9571    4.8533  -12.3665 C   0  0  1  0  0  0  0  0  0  0  0  0
    9.3487    4.8570  -10.8751 C   0  0  0  0  0  0  0  0  0  0  0  0
    9.8399    6.2280  -10.3639 C   0  0  0  0  0  0  0  0  0  0  0  0
    8.8860    7.3206  -10.6918 N   0  0  1  0  0  0  0  0  0  0  0  0
    9.2860    8.6605  -10.1987 C   0  0  0  0  0  0  0  0  0  0  0  0
    9.4533    8.7394   -8.6733 C   0  0  0  0  0  0  0  0  0  0  0  0
   10.9360    8.8160   -8.2957 C   0  0  0  0  0  0  0  0  0  0  0  0
   11.1692    8.7474   -6.8320 C   0  0  0  0  0  0  0  0  0  0  0  0
   11.1906    7.5793   -6.1866 N   0  0  0  0  0  0  0  0  0  0  0  0
   11.5184    7.7892   -4.8544 C   0  0  0  0  0  0  0  0  0  0  0  0
   11.6906    6.7962   -3.8739 C   0  0  0  0  0  0  0  0  0  0  0  0
   12.0860    7.1161   -2.5646 C   0  0  0  0  0  0  0  0  0  0  0  0
   12.2864    8.4602   -2.2005 C   0  0  0  0  0  0  0  0  0  0  0  0
   12.0842    9.4792   -3.1480 C   0  0  0  0  0  0  0  0  0  0  0  0
   11.7129    9.1438   -4.4637 C   0  0  0  0  0  0  0  0  0  0  0  0
   11.4190   10.1890   -5.8469 S   0  0  0  0  0  0  0  0  0  0  0  0
    8.5651    7.3795  -12.1347 C   0  0  0  0  0  0  0  0  0  0  0  0
    8.0273    6.0396  -12.6676 C   0  0  0  0  0  0  0  0  0  0  0  0
    9.5471    1.8577  -15.1821 H   0  0  0  0  0  0  0  0  0  0  0  0
    9.2860    1.9470  -13.4469 H   0  0  0  0  0  0  0  0  0  0  0  0
    8.2868    2.9099  -14.5508 H   0  0  0  0  0  0  0  0  0  0  0  0
   11.5665    2.8747  -15.8243 H   0  0  0  0  0  0  0  0  0  0  0  0
   13.1949    4.7628  -15.6903 H   0  0  0  0  0  0  0  0  0  0  0  0
   12.7660    6.5986  -14.0396 H   0  0  0  0  0  0  0  0  0  0  0  0
    8.3508    3.9602  -12.4987 H   0  0  0  0  0  0  0  0  0  0  0  0
    8.4675    4.5852  -10.2912 H   0  0  0  0  0  0  0  0  0  0  0  0
   10.0860    4.0792  -10.6758 H   0  0  0  0  0  0  0  0  0  0  0  0
   10.8147    6.4838  -10.7779 H   0  0  0  0  0  0  0  0  0  0  0  0
    9.9773    6.1559   -9.2853 H   0  0  0  0  0  0  0  0  0  0  0  0
   10.1970    8.9723  -10.7113 H   0  0  0  0  0  0  0  0  0  0  0  0
    8.5100    9.3723  -10.4868 H   0  0  0  0  0  0  0  0  0  0  0  0
    8.9438    9.6242   -8.2906 H   0  0  0  0  0  0  0  0  0  0  0  0
    8.9631    7.8971   -8.1821 H   0  0  0  0  0  0  0  0  0  0  0  0
   11.4970    8.0074   -8.7651 H   0  0  0  0  0  0  0  0  0  0  0  0
   11.3606    9.7446   -8.6764 H   0  0  0  0  0  0  0  0  0  0  0  0
   11.5307    5.7723   -4.1547 H   0  0  0  0  0  0  0  0  0  0  0  0
   12.2282    6.3224   -1.8469 H   0  0  0  0  0  0  0  0  0  0  0  0
   12.5781    8.7146   -1.1916 H   0  0  0  0  0  0  0  0  0  0  0  0
   12.2133   10.5130   -2.8624 H   0  0  0  0  0  0  0  0  0  0  0  0
    9.4679    7.6961  -12.6469 H   0  0  0  0  0  0  0  0  0  0  0  0
    7.8165    8.1532  -12.3132 H   0  0  0  0  0  0  0  0  0  0  0  0
    7.8472    6.0982  -13.7392 H   0  0  0  0  0  0  0  0  0  0  0  0
    7.0577    5.8566  -12.2010 H   0  0  0  0  0  0  0  0  0  0  0  0
    7.9795    7.1496  -10.2469 H   0  0  0  0  0  0  0  0  0  0  0  0
  2  1  1  0
  3  2  1  0
  4  3  2  0
  5  4  1  0
  6  5  2  0
  7  2  2  0
  7  6  1  0
  8  7  1  0
  9  8  1  0
 10  9  1  0
 11 10  1  0
 12 11  1  0
 13 12  1  0
 14 13  1  0
 15 14  1  0
 16 15  2  0
 17 16  1  0
 18 17  2  0
 19 18  1  0
 20 19  2  0
 21 20  1  0
 22 17  1  0
 22 21  2  0
 23 15  1  0
 23 22  1  0
 24 11  1  0
 25  8  1  0
 25 24  1  0
 26  1  1  0
 27  1  1  0
 28  1  1  0
 29  3  1  0
 30  4  1  0
 31  5  1  0
  8 32  1  1
 33  9  1  0
 34  9  1  0
 35 10  1  0
 36 10  1  0
 37 12  1  0
 38 12  1  0
 39 13  1  0
 40 13  1  0
 41 14  1  0
 42 14  1  0
 43 18  1  0
 44 19  1  0
 45 20  1  0
 46 21  1  0
 47 24  1  0
 48 24  1  0
 49 25  1  0
 50 25  1  0
 11 51  1  1
M  CHG  1  11   1
M  END
>  <b_m_subgroup_collapsed>  (148) 
0

>  <r_i_docking_score>  (148) 
-8.78695366076815

>  <s_m_subgroup_title>  (148) 
glide-dock_SP_D22_pv

>  <s_m_subgroupid>  (148) 
glide-dock_SP_D22_pv

>  <Molecule ChEMBL ID>  (148) 
CHEMBL5394387

>  <Standard Type>  (148) 
Ki

>  <Standard Value>  (148) 
13300.0

>  <label>  (148) 
0

$$$$
CHEMBL490632
     RDKit          3D

 60 62  0  0  1  0  0  0  0  0999 V2000
    7.5179    1.6038  -14.5040 C   0  0  0  0  0  0  0  0  0  0  0  0
    7.7806    3.0011  -14.5306 O   0  0  0  0  0  0  0  0  0  0  0  0
    9.1005    3.3887  -14.6370 C   0  0  0  0  0  0  0  0  0  0  0  0
    9.9578    2.8459  -15.6325 C   0  0  0  0  0  0  0  0  0  0  0  0
    9.3970    1.9950  -16.5662 O   0  0  0  0  0  0  0  0  0  0  0  0
   10.2113    1.3779  -17.5581 C   0  0  0  0  0  0  0  0  0  0  0  0
   10.9560    0.1723  -16.9703 C   0  0  0  0  0  0  0  0  0  0  0  0
   10.0860   -0.7936  -16.6606 F   0  0  0  0  0  0  0  0  0  0  0  0
   11.3200    3.2355  -15.6523 C   0  0  0  0  0  0  0  0  0  0  0  0
   11.8142    4.1703  -14.7273 C   0  0  0  0  0  0  0  0  0  0  0  0
   10.9536    4.7444  -13.7812 C   0  0  0  0  0  0  0  0  0  0  0  0
    9.5920    4.3699  -13.7329 C   0  0  0  0  0  0  0  0  0  0  0  0
    8.6702    5.0584  -12.7861 C   0  0  0  0  0  0  0  0  0  0  0  0
    7.5147    5.3733  -13.0806 O   0  0  0  0  0  0  0  0  0  0  0  0
    9.1848    5.3660  -11.3719 C   0  0  1  0  0  0  0  0  0  0  0  0
    9.6207    6.8301  -11.2068 C   0  0  0  0  0  0  0  0  0  0  0  0
   10.1221    7.0827   -9.7746 C   0  0  0  0  0  0  0  0  0  0  0  0
    9.1120    6.7415   -8.7283 N   0  0  2  0  0  0  0  0  0  0  0  0
    9.6313    6.8908   -7.3383 C   0  0  0  0  0  0  0  0  0  0  0  0
   10.3773    8.2148   -7.0480 C   0  0  0  0  0  0  0  0  0  0  0  0
   10.9434    8.3391   -5.6369 C   0  0  0  0  0  0  0  0  0  0  0  0
   11.4121    7.2134   -4.9186 C   0  0  0  0  0  0  0  0  0  0  0  0
   11.9724    7.3671   -3.6326 C   0  0  0  0  0  0  0  0  0  0  0  0
   12.0525    8.6433   -3.0457 C   0  0  0  0  0  0  0  0  0  0  0  0
   12.6232    8.8225   -1.6553 C   0  0  0  0  0  0  0  0  0  0  0  0
   11.5878    9.7654   -3.7574 C   0  0  0  0  0  0  0  0  0  0  0  0
   11.0412    9.6188   -5.0474 C   0  0  0  0  0  0  0  0  0  0  0  0
    8.5471    5.3758   -8.9037 C   0  0  0  0  0  0  0  0  0  0  0  0
    8.0793    5.1163  -10.3395 C   0  0  0  0  0  0  0  0  0  0  0  0
    6.6585    1.4172  -13.8615 H   0  0  0  0  0  0  0  0  0  0  0  0
    7.2671    1.2360  -15.4988 H   0  0  0  0  0  0  0  0  0  0  0  0
    8.3566    1.0249  -14.1097 H   0  0  0  0  0  0  0  0  0  0  0  0
    9.5548    1.0367  -18.3589 H   0  0  0  0  0  0  0  0  0  0  0  0
   10.8913    2.0902  -18.0267 H   0  0  0  0  0  0  0  0  0  0  0  0
   11.6567   -0.2483  -17.6920 H   0  0  0  0  0  0  0  0  0  0  0  0
   11.5071    0.4278  -16.0661 H   0  0  0  0  0  0  0  0  0  0  0  0
   12.0172    2.8439  -16.3777 H   0  0  0  0  0  0  0  0  0  0  0  0
   12.8531    4.4639  -14.7583 H   0  0  0  0  0  0  0  0  0  0  0  0
   11.3536    5.4798  -13.1036 H   0  0  0  0  0  0  0  0  0  0  0  0
   10.0268    4.7049  -11.1618 H   0  0  0  0  0  0  0  0  0  0  0  0
   10.4090    7.0864  -11.9158 H   0  0  0  0  0  0  0  0  0  0  0  0
    8.7837    7.4950  -11.4252 H   0  0  0  0  0  0  0  0  0  0  0  0
   10.3927    8.1360   -9.7044 H   0  0  0  0  0  0  0  0  0  0  0  0
   11.0298    6.5053   -9.5958 H   0  0  0  0  0  0  0  0  0  0  0  0
    8.7990    6.7814   -6.6389 H   0  0  0  0  0  0  0  0  0  0  0  0
   10.3085    6.0544   -7.1606 H   0  0  0  0  0  0  0  0  0  0  0  0
   11.2364    8.3272   -7.7092 H   0  0  0  0  0  0  0  0  0  0  0  0
    9.7127    9.0553   -7.2459 H   0  0  0  0  0  0  0  0  0  0  0  0
   11.3737    6.2174   -5.3322 H   0  0  0  0  0  0  0  0  0  0  0  0
   12.3275    6.4982   -3.0965 H   0  0  0  0  0  0  0  0  0  0  0  0
   12.1417    9.6549   -1.1411 H   0  0  0  0  0  0  0  0  0  0  0  0
   12.4876    7.9305   -1.0506 H   0  0  0  0  0  0  0  0  0  0  0  0
   13.6859    9.0280   -1.7183 H   0  0  0  0  0  0  0  0  0  0  0  0
   11.6437   10.7388   -3.2974 H   0  0  0  0  0  0  0  0  0  0  0  0
   10.6980   10.4944   -5.5792 H   0  0  0  0  0  0  0  0  0  0  0  0
    7.6983    5.2556   -8.2235 H   0  0  0  0  0  0  0  0  0  0  0  0
    9.2897    4.6257   -8.6335 H   0  0  0  0  0  0  0  0  0  0  0  0
    7.2394    5.7722  -10.5528 H   0  0  0  0  0  0  0  0  0  0  0  0
    7.6867    4.1051  -10.4273 H   0  0  0  0  0  0  0  0  0  0  0  0
    8.3270    7.3726   -8.8472 H   0  0  0  0  0  0  0  0  0  0  0  0
  2  1  1  0
  3  2  1  0
  4  3  2  0
  5  4  1  0
  6  5  1  0
  7  6  1  0
  8  7  1  0
  9  4  1  0
 10  9  2  0
 11 10  1  0
 12  3  1  0
 12 11  2  0
 13 12  1  0
 14 13  2  0
 15 13  1  0
 16 15  1  0
 17 16  1  0
 18 17  1  0
 19 18  1  0
 20 19  1  0
 21 20  1  0
 22 21  1  0
 23 22  2  0
 24 23  1  0
 25 24  1  0
 26 24  2  0
 27 21  2  0
 27 26  1  0
 28 18  1  0
 29 15  1  0
 29 28  1  0
 30  1  1  0
 31  1  1  0
 32  1  1  0
 33  6  1  0
 34  6  1  0
 35  7  1  0
 36  7  1  0
 37  9  1  0
 38 10  1  0
 39 11  1  0
 15 40  1  1
 41 16  1  0
 42 16  1  0
 43 17  1  0
 44 17  1  0
 45 19  1  0
 46 19  1  0
 47 20  1  0
 48 20  1  0
 49 22  1  0
 50 23  1  0
 51 25  1  0
 52 25  1  0
 53 25  1  0
 54 26  1  0
 55 27  1  0
 56 28  1  0
 57 28  1  0
 58 29  1  0
 59 29  1  0
 18 60  1  1
M  CHG  1  18   1
M  END
>  <b_m_subgroup_collapsed>  (149) 
0

>  <r_i_docking_score>  (149) 
-8.7849887634290091

>  <s_m_subgroup_title>  (149) 
glide-dock_SP_D22_pv

>  <s_m_subgroupid>  (149) 
glide-dock_SP_D22_pv

>  <Molecule ChEMBL ID>  (149) 
CHEMBL490632

>  <Standard Type>  (149) 
Ki

>  <Standard Value>  (149) 
10000.0

>  <label>  (149) 
0

$$$$
CHEMBL267930
     RDKit          3D

 56 59  0  0  1  0  0  0  0  0999 V2000
   10.8883    9.3723   -7.0111 O   0  0  0  0  0  0  0  0  0  0  0  0
   10.8142    8.3756   -6.2917 C   0  0  0  0  0  0  0  0  0  0  0  0
   10.0759    7.1225   -6.7752 C   0  0  0  0  0  0  0  0  0  0  0  0
    8.8862    7.4487   -7.6881 C   0  0  0  0  0  0  0  0  0  0  0  0
    9.2860    7.9517   -9.0903 C   0  0  0  0  0  0  0  0  0  0  0  0
    8.8861    7.0030  -10.1486 N   0  0  1  0  0  0  0  0  0  0  0  0
    8.7926    7.6572  -11.4770 C   0  0  0  0  0  0  0  0  0  0  0  0
    8.2568    6.6574  -12.5119 C   0  0  0  0  0  0  0  0  0  0  0  0
    9.1542    5.3963  -12.6610 C   0  0  2  0  0  0  0  0  0  0  0  0
    9.2562    4.7527  -11.2541 C   0  0  0  0  0  0  0  0  0  0  0  0
    9.6872    5.7504  -10.1495 C   0  0  0  0  0  0  0  0  0  0  0  0
   10.5557    5.7723  -13.1770 C   0  0  0  0  0  0  0  0  0  0  0  0
   11.3234    6.5727  -12.6469 O   0  0  0  0  0  0  0  0  0  0  0  0
   10.8258    5.1204  -14.2952 N   0  0  0  0  0  0  0  0  0  0  0  0
    9.7921    4.1873  -14.6624 C   0  0  0  0  0  0  0  0  0  0  0  0
    8.7094    4.4488  -13.7087 N   0  0  0  0  0  0  0  0  0  0  0  0
    7.6274    3.5266  -13.6416 C   0  0  0  0  0  0  0  0  0  0  0  0
    6.4593    3.7723  -12.8768 C   0  0  0  0  0  0  0  0  0  0  0  0
    5.4230    2.8223  -12.7990 C   0  0  0  0  0  0  0  0  0  0  0  0
    5.5351    1.5842  -13.4468 C   0  0  0  0  0  0  0  0  0  0  0  0
    6.6595    1.3299  -14.2467 C   0  0  0  0  0  0  0  0  0  0  0  0
    7.6788    2.2951  -14.3547 C   0  0  0  0  0  0  0  0  0  0  0  0
   11.3623    8.3410   -4.9202 C   0  0  0  0  0  0  0  0  0  0  0  0
   11.6861    7.1274   -4.2673 C   0  0  0  0  0  0  0  0  0  0  0  0
   12.1977    7.1463   -2.9570 C   0  0  0  0  0  0  0  0  0  0  0  0
   12.3977    8.3750   -2.3027 C   0  0  0  0  0  0  0  0  0  0  0  0
   12.8863    8.4007   -1.0470 F   0  0  0  0  0  0  0  0  0  0  0  0
   12.0864    9.5808   -2.9514 C   0  0  0  0  0  0  0  0  0  0  0  0
   11.5784    9.5664   -4.2583 C   0  0  0  0  0  0  0  0  0  0  0  0
    9.6920    6.5848   -5.9081 H   0  0  0  0  0  0  0  0  0  0  0  0
   10.7792    6.4568   -7.2758 H   0  0  0  0  0  0  0  0  0  0  0  0
    8.2642    8.2037   -7.2024 H   0  0  0  0  0  0  0  0  0  0  0  0
    8.2400    6.5719   -7.7561 H   0  0  0  0  0  0  0  0  0  0  0  0
   10.3538    8.1554   -9.1769 H   0  0  0  0  0  0  0  0  0  0  0  0
    8.7813    8.9046   -9.2588 H   0  0  0  0  0  0  0  0  0  0  0  0
    8.0933    8.4943  -11.4420 H   0  0  0  0  0  0  0  0  0  0  0  0
    9.7405    8.1100  -11.7581 H   0  0  0  0  0  0  0  0  0  0  0  0
    8.0860    7.1648  -13.4470 H   0  0  0  0  0  0  0  0  0  0  0  0
    7.2581    6.4064  -12.1771 H   0  0  0  0  0  0  0  0  0  0  0  0
    8.2914    4.3361  -10.9670 H   0  0  0  0  0  0  0  0  0  0  0  0
    9.9456    3.9068  -11.2737 H   0  0  0  0  0  0  0  0  0  0  0  0
    9.6023    5.2536   -9.1830 H   0  0  0  0  0  0  0  0  0  0  0  0
   10.7317    6.0368  -10.2467 H   0  0  0  0  0  0  0  0  0  0  0  0
   11.6879    5.2199  -14.8106 H   0  0  0  0  0  0  0  0  0  0  0  0
   10.2143    3.1873  -14.5581 H   0  0  0  0  0  0  0  0  0  0  0  0
    9.4691    4.3482  -15.6916 H   0  0  0  0  0  0  0  0  0  0  0  0
    6.3108    4.6766  -12.3218 H   0  0  0  0  0  0  0  0  0  0  0  0
    4.5286    3.0430  -12.2469 H   0  0  0  0  0  0  0  0  0  0  0  0
    4.7416    0.8551  -13.3741 H   0  0  0  0  0  0  0  0  0  0  0  0
    6.7427    0.3939  -14.7800 H   0  0  0  0  0  0  0  0  0  0  0  0
    8.5106    2.0288  -14.9857 H   0  0  0  0  0  0  0  0  0  0  0  0
   11.5484    6.1730   -4.7548 H   0  0  0  0  0  0  0  0  0  0  0  0
   12.4357    6.2194   -2.4548 H   0  0  0  0  0  0  0  0  0  0  0  0
   12.2147   10.5245   -2.4438 H   0  0  0  0  0  0  0  0  0  0  0  0
   11.3343   10.5043   -4.7374 H   0  0  0  0  0  0  0  0  0  0  0  0
    7.9130    6.7870   -9.9395 H   0  0  0  0  0  0  0  0  0  0  0  0
  2  1  2  0
  3  2  1  0
  4  3  1  0
  5  4  1  0
  6  5  1  0
  7  6  1  0
  8  7  1  0
  9  8  1  0
 10  9  1  0
 11  6  1  0
 11 10  1  0
 12  9  1  0
 13 12  2  0
 14 12  1  0
 15 14  1  0
  9 16  1  6
 16 15  1  0
 17 16  1  0
 18 17  2  0
 19 18  1  0
 20 19  2  0
 21 20  1  0
 22 17  1  0
 22 21  2  0
 23  2  1  0
 24 23  1  0
 25 24  2  0
 26 25  1  0
 27 26  1  0
 28 26  2  0
 29 23  2  0
 29 28  1  0
 30  3  1  0
 31  3  1  0
 32  4  1  0
 33  4  1  0
 34  5  1  0
 35  5  1  0
 36  7  1  0
 37  7  1  0
 38  8  1  0
 39  8  1  0
 40 10  1  0
 41 10  1  0
 42 11  1  0
 43 11  1  0
 44 14  1  0
 45 15  1  0
 46 15  1  0
 47 18  1  0
 48 19  1  0
 49 20  1  0
 50 21  1  0
 51 22  1  0
 52 24  1  0
 53 25  1  0
 54 28  1  0
 55 29  1  0
  6 56  1  1
M  CHG  1   6   1
M  END
>  <b_m_subgroup_collapsed>  (150) 
0

>  <r_i_docking_score>  (150) 
-8.7847259730164193

>  <s_m_subgroup_title>  (150) 
glide-dock_SP_D22_pv

>  <s_m_subgroupid>  (150) 
glide-dock_SP_D22_pv

>  <Molecule ChEMBL ID>  (150) 
CHEMBL267930

>  <Standard Type>  (150) 
Ki

>  <Standard Value>  (150) 
0.06

>  <label>  (150) 
1

$$$$
CHEMBL5830831
     RDKit          3D

 65 68  0  0  1  0  0  0  0  0999 V2000
    7.0665    3.3054  -13.8611 C   0  0  0  0  0  0  0  0  0  0  0  0
    8.1563    4.1941  -14.2467 N   0  0  0  0  0  0  0  0  0  0  0  0
    8.1073    5.4557  -13.4982 C   0  0  0  0  0  0  0  0  0  0  0  0
    8.7466    5.5115  -12.0863 C   0  0  1  0  0  0  0  0  0  0  0  0
    9.1857    6.9565  -11.7706 C   0  0  0  0  0  0  0  0  0  0  0  0
    9.7977    7.0917  -10.3643 C   0  0  0  0  0  0  0  0  0  0  0  0
    8.8858    6.5724   -9.3132 N   0  0  2  0  0  0  0  0  0  0  0  0
    9.4541    6.7005   -7.9486 C   0  0  0  0  0  0  0  0  0  0  0  0
    9.0937    8.0317   -7.2595 C   0  0  0  0  0  0  0  0  0  0  0  0
   10.2437    8.7954   -6.9022 O   0  0  0  0  0  0  0  0  0  0  0  0
   10.8858    8.4973   -5.7179 C   0  0  0  0  0  0  0  0  0  0  0  0
   11.0202    7.1864   -5.1961 C   0  0  0  0  0  0  0  0  0  0  0  0
   11.6862    6.9645   -3.9750 C   0  0  0  0  0  0  0  0  0  0  0  0
   12.2098    8.0479   -3.2509 C   0  0  0  0  0  0  0  0  0  0  0  0
   12.0877    9.3513   -3.7613 C   0  0  0  0  0  0  0  0  0  0  0  0
   11.4437    9.5723   -4.9947 C   0  0  0  0  0  0  0  0  0  0  0  0
    8.4331    5.1883   -9.5926 C   0  0  0  0  0  0  0  0  0  0  0  0
    7.7791    5.0799  -10.9782 C   0  0  0  0  0  0  0  0  0  0  0  0
    9.4830    3.5672  -14.3999 C   0  0  1  0  0  0  0  0  0  0  0  0
    9.4710    2.3286  -15.3034 C   0  0  0  0  0  0  0  0  0  0  0  0
    8.9232    2.3799  -16.6072 C   0  0  0  0  0  0  0  0  0  0  0  0
    8.9818    1.2605  -17.4574 C   0  0  0  0  0  0  0  0  0  0  0  0
    9.5725    0.0683  -17.0031 C   0  0  0  0  0  0  0  0  0  0  0  0
    9.6863   -1.2916  -18.0577 Cl  0  0  0  0  0  0  0  0  0  0  0  0
   10.0801   -0.0065  -15.6938 C   0  0  0  0  0  0  0  0  0  0  0  0
   10.0376    1.1195  -14.8479 C   0  0  0  0  0  0  0  0  0  0  0  0
   10.5404    4.5587  -14.9078 C   0  0  0  0  0  0  0  0  0  0  0  0
   11.5823    5.0054  -14.0645 C   0  0  0  0  0  0  0  0  0  0  0  0
   12.4865    5.9620  -14.5645 C   0  0  0  0  0  0  0  0  0  0  0  0
   12.3429    6.4176  -15.8872 C   0  0  0  0  0  0  0  0  0  0  0  0
   11.2861    5.9015  -16.6563 C   0  0  0  0  0  0  0  0  0  0  0  0
   10.3967    5.0083  -16.1797 N   0  0  0  0  0  0  0  0  0  0  0  0
    6.1108    3.8237  -13.9556 H   0  0  0  0  0  0  0  0  0  0  0  0
    7.0112    2.4266  -14.5027 H   0  0  0  0  0  0  0  0  0  0  0  0
    7.1574    2.9725  -12.8385 H   0  0  0  0  0  0  0  0  0  0  0  0
    8.6177    6.1716  -14.1332 H   0  0  0  0  0  0  0  0  0  0  0  0
    7.0768    5.8060  -13.4440 H   0  0  0  0  0  0  0  0  0  0  0  0
    9.6308    4.8821  -12.0327 H   0  0  0  0  0  0  0  0  0  0  0  0
    9.9143    7.2942  -12.5085 H   0  0  0  0  0  0  0  0  0  0  0  0
    8.3285    7.6284  -11.8583 H   0  0  0  0  0  0  0  0  0  0  0  0
   10.0192    8.1418  -10.1641 H   0  0  0  0  0  0  0  0  0  0  0  0
   10.7477    6.5568  -10.3268 H   0  0  0  0  0  0  0  0  0  0  0  0
    9.0621    5.8993   -7.3187 H   0  0  0  0  0  0  0  0  0  0  0  0
   10.5345    6.5464   -7.9819 H   0  0  0  0  0  0  0  0  0  0  0  0
    8.4886    8.6527   -7.9213 H   0  0  0  0  0  0  0  0  0  0  0  0
    8.4721    7.8553   -6.3794 H   0  0  0  0  0  0  0  0  0  0  0  0
   10.6258    6.3243   -5.7034 H   0  0  0  0  0  0  0  0  0  0  0  0
   11.7797    5.9602   -3.5873 H   0  0  0  0  0  0  0  0  0  0  0  0
   12.7062    7.8803   -2.3070 H   0  0  0  0  0  0  0  0  0  0  0  0
   12.4971   10.1723   -3.1947 H   0  0  0  0  0  0  0  0  0  0  0  0
   11.3568   10.5793   -5.3770 H   0  0  0  0  0  0  0  0  0  0  0  0
    7.6940    4.8977   -8.8401 H   0  0  0  0  0  0  0  0  0  0  0  0
    9.2724    4.4947   -9.5125 H   0  0  0  0  0  0  0  0  0  0  0  0
    6.8827    5.7016  -11.0221 H   0  0  0  0  0  0  0  0  0  0  0  0
    7.4435    4.0565  -11.1117 H   0  0  0  0  0  0  0  0  0  0  0  0
    9.7979    3.2216  -13.4146 H   0  0  0  0  0  0  0  0  0  0  0  0
    8.4859    3.2966  -16.9724 H   0  0  0  0  0  0  0  0  0  0  0  0
    8.5865    1.3208  -18.4598 H   0  0  0  0  0  0  0  0  0  0  0  0
   10.4984   -0.9350  -15.3400 H   0  0  0  0  0  0  0  0  0  0  0  0
   10.4471    1.0552  -13.8498 H   0  0  0  0  0  0  0  0  0  0  0  0
   11.6799    4.6414  -13.0516 H   0  0  0  0  0  0  0  0  0  0  0  0
   13.2798    6.3519  -13.9449 H   0  0  0  0  0  0  0  0  0  0  0  0
   13.0249    7.1457  -16.3008 H   0  0  0  0  0  0  0  0  0  0  0  0
   11.1391    6.2316  -17.6751 H   0  0  0  0  0  0  0  0  0  0  0  0
    8.0255    7.1208   -9.3583 H   0  0  0  0  0  0  0  0  0  0  0  0
  2  1  1  0
  3  2  1  0
  4  3  1  0
  5  4  1  0
  6  5  1  0
  7  6  1  0
  8  7  1  0
  9  8  1  0
 10  9  1  0
 11 10  1  0
 12 11  2  0
 13 12  1  0
 14 13  2  0
 15 14  1  0
 16 11  1  0
 16 15  2  0
 17  7  1  0
 18  4  1  0
 18 17  1  0
 19  2  1  0
 20 19  1  0
 21 20  1  0
 22 21  2  0
 23 22  1  0
 24 23  1  0
 25 23  2  0
 26 20  2  0
 26 25  1  0
 27 19  1  0
 28 27  2  0
 29 28  1  0
 30 29  2  0
 31 30  1  0
 32 27  1  0
 32 31  2  0
 33  1  1  0
 34  1  1  0
 35  1  1  0
 36  3  1  0
 37  3  1  0
  4 38  1  6
 39  5  1  0
 40  5  1  0
 41  6  1  0
 42  6  1  0
 43  8  1  0
 44  8  1  0
 45  9  1  0
 46  9  1  0
 47 12  1  0
 48 13  1  0
 49 14  1  0
 50 15  1  0
 51 16  1  0
 52 17  1  0
 53 17  1  0
 54 18  1  0
 55 18  1  0
 19 56  1  1
 57 21  1  0
 58 22  1  0
 59 25  1  0
 60 26  1  0
 61 28  1  0
 62 29  1  0
 63 30  1  0
 64 31  1  0
  7 65  1  1
M  CHG  1   7   1
M  END
>  <b_m_subgroup_collapsed>  (151) 
0

>  <r_i_docking_score>  (151) 
-8.7709331693515296

>  <s_m_subgroup_title>  (151) 
glide-dock_SP_D22_pv

>  <s_m_subgroupid>  (151) 
glide-dock_SP_D22_pv

>  <Molecule ChEMBL ID>  (151) 
CHEMBL5830831

>  <Standard Type>  (151) 
Ki

>  <Standard Value>  (151) 
55.0

>  <label>  (151) 
1

$$$$
CHEMBL3818478
     RDKit          3D

 61 65  0  0  1  0  0  0  0  0999 V2000
   11.3321    6.5716  -12.7567 O   0  0  0  0  0  0  0  0  0  0  0  0
   10.5639    5.7723  -13.2915 C   0  0  0  0  0  0  0  0  0  0  0  0
   10.8241    5.1269  -14.4164 N   0  0  0  0  0  0  0  0  0  0  0  0
    9.7617    4.2348  -14.8059 C   0  0  0  0  0  0  0  0  0  0  0  0
    8.6827    4.5109  -13.8517 N   0  0  0  0  0  0  0  0  0  0  0  0
    7.6080    3.5837  -13.7653 C   0  0  0  0  0  0  0  0  0  0  0  0
    7.5675    2.4361  -14.6070 C   0  0  0  0  0  0  0  0  0  0  0  0
    6.5908    1.4349  -14.4444 C   0  0  0  0  0  0  0  0  0  0  0  0
    5.6130    1.5644  -13.4467 C   0  0  0  0  0  0  0  0  0  0  0  0
    5.5994    2.7173  -12.6467 C   0  0  0  0  0  0  0  0  0  0  0  0
    6.5597    3.7266  -12.8225 C   0  0  0  0  0  0  0  0  0  0  0  0
    9.1643    5.4022  -12.7732 C   0  0  1  0  0  0  0  0  0  0  0  0
    9.3153    4.6918  -11.4063 C   0  0  0  0  0  0  0  0  0  0  0  0
    9.6915    5.6343  -10.2424 C   0  0  0  0  0  0  0  0  0  0  0  0
    8.8860    6.8808  -10.1741 N   0  0  1  0  0  0  0  0  0  0  0  0
    9.2526    7.7878   -9.0620 C   0  0  0  0  0  0  0  0  0  0  0  0
    8.9370    7.2028   -7.6695 C   0  0  0  0  0  0  0  0  0  0  0  0
   10.0070    6.3397   -6.9973 C   0  0  0  0  0  0  0  0  0  0  0  0
   11.4004    6.9330   -6.9783 C   0  0  0  0  0  0  0  0  0  0  0  0
   11.4077    8.1306   -6.1083 C   0  0  0  0  0  0  0  0  0  0  0  0
   11.1886    9.4328   -6.4650 C   0  0  0  0  0  0  0  0  0  0  0  0
   11.3387   10.2215   -5.3417 N   0  0  0  0  0  0  0  0  0  0  0  0
   11.7027    9.4518   -4.2545 C   0  0  0  0  0  0  0  0  0  0  0  0
   12.0637    9.7723   -2.9411 C   0  0  0  0  0  0  0  0  0  0  0  0
   12.4040    8.7470   -2.0421 C   0  0  0  0  0  0  0  0  0  0  0  0
   12.3401    7.4032   -2.4533 C   0  0  0  0  0  0  0  0  0  0  0  0
   11.9849    7.0901   -3.7764 C   0  0  0  0  0  0  0  0  0  0  0  0
   11.6861    8.1101   -4.7086 C   0  0  0  0  0  0  0  0  0  0  0  0
    8.8101    7.5990  -11.4682 C   0  0  0  0  0  0  0  0  0  0  0  0
    8.2668    6.6558  -12.5490 C   0  0  0  0  0  0  0  0  0  0  0  0
   11.6821    5.2261  -14.9390 H   0  0  0  0  0  0  0  0  0  0  0  0
   10.1392    3.2141  -14.7265 H   0  0  0  0  0  0  0  0  0  0  0  0
    9.4475    4.4335  -15.8312 H   0  0  0  0  0  0  0  0  0  0  0  0
    8.3005    2.2670  -15.3795 H   0  0  0  0  0  0  0  0  0  0  0  0
    6.6021    0.5592  -15.0774 H   0  0  0  0  0  0  0  0  0  0  0  0
    4.8754    0.7888  -13.3019 H   0  0  0  0  0  0  0  0  0  0  0  0
    4.8860    2.8183  -11.8504 H   0  0  0  0  0  0  0  0  0  0  0  0
    6.4919    4.5550  -12.1445 H   0  0  0  0  0  0  0  0  0  0  0  0
    8.3928    4.1967  -11.1166 H   0  0  0  0  0  0  0  0  0  0  0  0
   10.0534    3.8892  -11.4738 H   0  0  0  0  0  0  0  0  0  0  0  0
    9.5238    5.0409   -9.3535 H   0  0  0  0  0  0  0  0  0  0  0  0
   10.7391    5.9222  -10.2468 H   0  0  0  0  0  0  0  0  0  0  0  0
   10.2779    8.1354   -9.1671 H   0  0  0  0  0  0  0  0  0  0  0  0
    8.6397    8.6847   -9.1642 H   0  0  0  0  0  0  0  0  0  0  0  0
    8.6731    8.0211   -6.9978 H   0  0  0  0  0  0  0  0  0  0  0  0
    8.0641    6.5708   -7.7300 H   0  0  0  0  0  0  0  0  0  0  0  0
    9.6895    6.1723   -5.9674 H   0  0  0  0  0  0  0  0  0  0  0  0
   10.0623    5.3611   -7.4457 H   0  0  0  0  0  0  0  0  0  0  0  0
   12.0860    6.1829   -6.5823 H   0  0  0  0  0  0  0  0  0  0  0  0
   11.7732    7.1591   -7.9752 H   0  0  0  0  0  0  0  0  0  0  0  0
   10.9541    9.8545   -7.4303 H   0  0  0  0  0  0  0  0  0  0  0  0
   11.2677   11.2287   -5.3583 H   0  0  0  0  0  0  0  0  0  0  0  0
   12.0856   10.8061   -2.6329 H   0  0  0  0  0  0  0  0  0  0  0  0
   12.6991    8.9997   -1.0379 H   0  0  0  0  0  0  0  0  0  0  0  0
   12.5830    6.6074   -1.7655 H   0  0  0  0  0  0  0  0  0  0  0  0
   11.9659    6.0573   -4.0917 H   0  0  0  0  0  0  0  0  0  0  0  0
    8.1268    8.4474  -11.4018 H   0  0  0  0  0  0  0  0  0  0  0  0
    9.7689    8.0441  -11.7229 H   0  0  0  0  0  0  0  0  0  0  0  0
    8.0860    7.2214  -13.4471 H   0  0  0  0  0  0  0  0  0  0  0  0
    7.2647    6.3869  -12.2365 H   0  0  0  0  0  0  0  0  0  0  0  0
    7.9146    6.6425   -9.9911 H   0  0  0  0  0  0  0  0  0  0  0  0
  2  1  2  0
  3  2  1  0
  4  3  1  0
  5  4  1  0
  6  5  1  0
  7  6  2  0
  8  7  1  0
  9  8  2  0
 10  9  1  0
 11  6  1  0
 11 10  2  0
 12  2  1  0
 12  5  1  6
 13 12  1  0
 14 13  1  0
 15 14  1  0
 16 15  1  0
 17 16  1  0
 18 17  1  0
 19 18  1  0
 20 19  1  0
 21 20  2  0
 22 21  1  0
 23 22  1  0
 24 23  2  0
 25 24  1  0
 26 25  2  0
 27 26  1  0
 28 20  1  0
 28 23  1  0
 28 27  2  0
 29 15  1  0
 30 12  1  0
 30 29  1  0
 31  3  1  0
 32  4  1  0
 33  4  1  0
 34  7  1  0
 35  8  1  0
 36  9  1  0
 37 10  1  0
 38 11  1  0
 39 13  1  0
 40 13  1  0
 41 14  1  0
 42 14  1  0
 43 16  1  0
 44 16  1  0
 45 17  1  0
 46 17  1  0
 47 18  1  0
 48 18  1  0
 49 19  1  0
 50 19  1  0
 51 21  1  0
 52 22  1  0
 53 24  1  0
 54 25  1  0
 55 26  1  0
 56 27  1  0
 57 29  1  0
 58 29  1  0
 59 30  1  0
 60 30  1  0
 15 61  1  1
M  CHG  1  15   1
M  END
>  <b_m_subgroup_collapsed>  (152) 
0

>  <r_i_docking_score>  (152) 
-8.7698252330939308

>  <s_m_subgroup_title>  (152) 
glide-dock_SP_D22_pv

>  <s_m_subgroupid>  (152) 
glide-dock_SP_D22_pv

>  <Molecule ChEMBL ID>  (152) 
CHEMBL3818478

>  <Standard Type>  (152) 
Ki

>  <Standard Value>  (152) 
22.39

>  <label>  (152) 
1

$$$$
CHEMBL5273758
     RDKit          3D

 43 46  0  0  1  0  0  0  0  0999 V2000
    8.2520    4.4565   -8.5543 C   0  0  0  0  0  0  0  0  0  0  0  0
    8.4859    5.7315   -9.2558 N   0  0  2  0  0  0  0  0  0  0  0  0
    9.0419    5.4887  -10.6168 C   0  0  0  0  0  0  0  0  0  0  0  0
    9.3007    6.7945  -11.3959 C   0  0  0  0  0  0  0  0  0  0  0  0
   10.0967    7.8557  -10.6072 C   0  0  2  0  0  0  0  0  0  0  0  0
   11.6077    7.7726  -10.6909 C   0  0  0  0  0  0  0  0  0  0  0  0
   12.4034    8.1721   -9.6813 C   0  0  0  0  0  0  0  0  0  0  0  0
   13.7254    8.1672   -9.8467 O   0  0  0  0  0  0  0  0  0  0  0  0
   11.8699    8.6062   -8.4014 C   0  0  0  0  0  0  0  0  0  0  0  0
   12.7259    8.9713   -7.4466 O   0  0  0  0  0  0  0  0  0  0  0  0
   10.5565    8.4732   -8.1419 C   0  0  0  0  0  0  0  0  0  0  0  0
    9.8691    8.2984   -6.7942 C   0  0  2  0  0  0  0  0  0  0  0  0
   10.7358    8.2894   -5.5323 C   0  0  0  0  0  0  0  0  0  0  0  0
   11.3152    7.1021   -5.0294 C   0  0  0  0  0  0  0  0  0  0  0  0
   12.0578    7.1231   -3.8316 C   0  0  0  0  0  0  0  0  0  0  0  0
   12.2373    8.3306   -3.1323 C   0  0  0  0  0  0  0  0  0  0  0  0
   11.6863    9.5210   -3.6393 C   0  0  0  0  0  0  0  0  0  0  0  0
   10.9453    9.5032   -4.8377 C   0  0  0  0  0  0  0  0  0  0  0  0
    9.0254    7.0077   -7.0420 C   0  0  0  0  0  0  0  0  0  0  0  0
    9.4008    6.5902   -8.4861 C   0  0  2  0  0  0  0  0  0  0  0  0
    9.6007    7.9283   -9.1566 C   0  0  2  0  0  0  0  0  0  0  0  0
    9.1874    3.9627   -8.2898 H   0  0  0  0  0  0  0  0  0  0  0  0
    7.6857    3.7721   -9.1816 H   0  0  0  0  0  0  0  0  0  0  0  0
    7.6858    4.6409   -7.6443 H   0  0  0  0  0  0  0  0  0  0  0  0
    9.9715    4.9234  -10.5338 H   0  0  0  0  0  0  0  0  0  0  0  0
    8.3493    4.8655  -11.1845 H   0  0  0  0  0  0  0  0  0  0  0  0
    9.7872    6.5791  -12.3478 H   0  0  0  0  0  0  0  0  0  0  0  0
    8.3310    7.2237  -11.6533 H   0  0  0  0  0  0  0  0  0  0  0  0
    9.8752    8.8159  -11.0753 H   0  0  0  0  0  0  0  0  0  0  0  0
   12.0360    7.4645  -11.6343 H   0  0  0  0  0  0  0  0  0  0  0  0
   13.9965    9.0917   -9.8468 H   0  0  0  0  0  0  0  0  0  0  0  0
   13.5991    8.8877   -7.7985 H   0  0  0  0  0  0  0  0  0  0  0  0
    9.1650    9.1222   -6.7019 H   0  0  0  0  0  0  0  0  0  0  0  0
   11.2040    6.1650   -5.5511 H   0  0  0  0  0  0  0  0  0  0  0  0
   12.4846    6.2085   -3.4467 H   0  0  0  0  0  0  0  0  0  0  0  0
   12.8006    8.3469   -2.2109 H   0  0  0  0  0  0  0  0  0  0  0  0
   11.8215   10.4464   -3.0978 H   0  0  0  0  0  0  0  0  0  0  0  0
   10.5189   10.4229   -5.2111 H   0  0  0  0  0  0  0  0  0  0  0  0
    9.1983    6.2010   -6.3326 H   0  0  0  0  0  0  0  0  0  0  0  0
    7.9725    7.2574   -6.9606 H   0  0  0  0  0  0  0  0  0  0  0  0
   10.3569    6.0586   -8.4398 H   0  0  0  0  0  0  0  0  0  0  0  0
    8.6722    8.5037   -9.1322 H   0  0  0  0  0  0  0  0  0  0  0  0
    7.6087    6.2357   -9.3602 H   0  0  0  0  0  0  0  0  0  0  0  0
  2  1  1  0
  3  2  1  0
  4  3  1  0
  5  4  1  0
  6  5  1  0
  7  6  2  0
  8  7  1  0
  9  7  1  0
 10  9  1  0
 11  9  2  0
 12 11  1  0
 13 12  1  0
 14 13  2  0
 15 14  1  0
 16 15  2  0
 17 16  1  0
 18 13  1  0
 18 17  2  0
 19 12  1  0
 20  2  1  0
 20 19  1  0
 21  5  1  0
 21 11  1  0
 21 20  1  0
 22  1  1  0
 23  1  1  0
 24  1  1  0
 25  3  1  0
 26  3  1  0
 27  4  1  0
 28  4  1  0
  5 29  1  6
 30  6  1  0
 31  8  1  0
 32 10  1  0
 12 33  1  1
 34 14  1  0
 35 15  1  0
 36 16  1  0
 37 17  1  0
 38 18  1  0
 39 19  1  0
 40 19  1  0
 20 41  1  1
 21 42  1  6
  2 43  1  6
M  CHG  1   2   1
M  END
>  <b_m_subgroup_collapsed>  (153) 
0

>  <r_i_docking_score>  (153) 
-8.7686674838218099

>  <s_m_subgroup_title>  (153) 
glide-dock_SP_D22_pv

>  <s_m_subgroupid>  (153) 
glide-dock_SP_D22_pv

>  <Molecule ChEMBL ID>  (153) 
CHEMBL5273758

>  <Standard Type>  (153) 
Ki

>  <Standard Value>  (153) 
12.88

>  <label>  (153) 
1

$$$$
CHEMBL2386617
     RDKit          3D

 70 74  0  0  1  0  0  0  0  0999 V2000
   11.9042   10.9658   -6.1943 C   0  0  0  0  0  0  0  0  0  0  0  0
   11.0592   10.6037   -5.1094 O   0  0  0  0  0  0  0  0  0  0  0  0
   11.3552    9.3874   -4.5503 C   0  0  0  0  0  0  0  0  0  0  0  0
   11.7515    9.3729   -3.1995 C   0  0  0  0  0  0  0  0  0  0  0  0
   12.1103    8.1690   -2.5693 C   0  0  0  0  0  0  0  0  0  0  0  0
   12.0859    6.9681   -3.2982 C   0  0  0  0  0  0  0  0  0  0  0  0
   11.6815    6.9719   -4.6472 C   0  0  0  0  0  0  0  0  0  0  0  0
   11.2897    8.1723   -5.2790 C   0  0  0  0  0  0  0  0  0  0  0  0
   10.8690    8.1528   -6.6173 N   0  0  0  0  0  0  0  0  0  0  0  0
   11.9056    7.9816   -7.6223 C   0  0  0  0  0  0  0  0  0  0  0  0
   11.4093    8.3039   -9.0319 C   0  0  0  0  0  0  0  0  0  0  0  0
   10.6771    7.1161   -9.6648 C   0  0  0  0  0  0  0  0  0  0  0  0
    9.2817    6.8875   -9.1906 N   0  0  1  0  0  0  0  0  0  0  0  0
    8.6705    5.7197   -9.8786 C   0  0  0  0  0  0  0  0  0  0  0  0
    8.4960    5.8657  -11.4038 C   0  0  0  0  0  0  0  0  0  0  0  0
    7.9225    4.5729  -11.9915 C   0  0  0  0  0  0  0  0  0  0  0  0
    7.7284    4.5813  -13.5149 C   0  0  0  0  0  0  0  0  0  0  0  0
    8.9679    4.8116  -14.2519 N   0  0  0  0  0  0  0  0  0  0  0  0
    9.9608    3.9188  -14.3859 C   0  0  0  0  0  0  0  0  0  0  0  0
    9.9587    2.8164  -13.8468 O   0  0  0  0  0  0  0  0  0  0  0  0
   11.1065    4.3572  -15.2475 C   0  0  0  0  0  0  0  0  0  0  0  0
   11.7093    5.6160  -14.9955 C   0  0  0  0  0  0  0  0  0  0  0  0
   12.8311    6.0543  -15.7321 C   0  0  0  0  0  0  0  0  0  0  0  0
   13.3821    5.2379  -16.7378 C   0  0  0  0  0  0  0  0  0  0  0  0
   12.7802    3.9929  -16.9869 C   0  0  0  0  0  0  0  0  0  0  0  0
   11.6558    3.5402  -16.2744 C   0  0  0  0  0  0  0  0  0  0  0  0
   11.2987    2.2155  -16.8247 C   0  0  0  0  0  0  0  0  0  0  0  0
   10.2492    1.3136  -16.5410 C   0  0  0  0  0  0  0  0  0  0  0  0
   10.1798    0.0899  -17.2439 C   0  0  0  0  0  0  0  0  0  0  0  0
   11.1354   -0.2282  -18.2354 C   0  0  0  0  0  0  0  0  0  0  0  0
   12.1712    0.6788  -18.5400 C   0  0  0  0  0  0  0  0  0  0  0  0
   12.2269    1.8890  -17.8247 C   0  0  0  0  0  0  0  0  0  0  0  0
   13.2029    2.9806  -17.9715 C   0  0  0  0  0  0  0  0  0  0  0  0
   14.1693    3.0285  -18.7326 O   0  0  0  0  0  0  0  0  0  0  0  0
    9.1381    6.7198   -7.7128 C   0  0  0  0  0  0  0  0  0  0  0  0
    9.4466    7.9884   -6.8996 C   0  0  0  0  0  0  0  0  0  0  0  0
   12.0860   12.0380   -6.2468 H   0  0  0  0  0  0  0  0  0  0  0  0
   12.8856   10.4923   -6.1312 H   0  0  0  0  0  0  0  0  0  0  0  0
   11.4228   10.6628   -7.1149 H   0  0  0  0  0  0  0  0  0  0  0  0
   11.7933   10.3005   -2.6480 H   0  0  0  0  0  0  0  0  0  0  0  0
   12.4129    8.1720   -1.5323 H   0  0  0  0  0  0  0  0  0  0  0  0
   12.3662    6.0401   -2.8210 H   0  0  0  0  0  0  0  0  0  0  0  0
   11.6525    6.0410   -5.1942 H   0  0  0  0  0  0  0  0  0  0  0  0
   12.7382    8.6461   -7.3957 H   0  0  0  0  0  0  0  0  0  0  0  0
   12.3059    6.9722   -7.5666 H   0  0  0  0  0  0  0  0  0  0  0  0
   10.8101    9.2152   -9.0603 H   0  0  0  0  0  0  0  0  0  0  0  0
   12.2870    8.5146   -9.6449 H   0  0  0  0  0  0  0  0  0  0  0  0
   10.6659    7.3148  -10.7342 H   0  0  0  0  0  0  0  0  0  0  0  0
   11.2611    6.2062   -9.5224 H   0  0  0  0  0  0  0  0  0  0  0  0
    9.2595    4.8282   -9.6544 H   0  0  0  0  0  0  0  0  0  0  0  0
    7.6860    5.5458   -9.4535 H   0  0  0  0  0  0  0  0  0  0  0  0
    7.8394    6.7032  -11.6374 H   0  0  0  0  0  0  0  0  0  0  0  0
    9.4457    6.0589  -11.8975 H   0  0  0  0  0  0  0  0  0  0  0  0
    8.6017    3.7687  -11.7277 H   0  0  0  0  0  0  0  0  0  0  0  0
    6.9698    4.3431  -11.5121 H   0  0  0  0  0  0  0  0  0  0  0  0
    7.2874    3.6366  -13.8379 H   0  0  0  0  0  0  0  0  0  0  0  0
    7.0153    5.3575  -13.7775 H   0  0  0  0  0  0  0  0  0  0  0  0
    9.0610    5.6905  -14.7394 H   0  0  0  0  0  0  0  0  0  0  0  0
   11.3255    6.2542  -14.2126 H   0  0  0  0  0  0  0  0  0  0  0  0
   13.2777    7.0136  -15.5143 H   0  0  0  0  0  0  0  0  0  0  0  0
   14.2479    5.5583  -17.2992 H   0  0  0  0  0  0  0  0  0  0  0  0
    9.4911    1.5301  -15.8075 H   0  0  0  0  0  0  0  0  0  0  0  0
    9.3837   -0.6072  -17.0244 H   0  0  0  0  0  0  0  0  0  0  0  0
   11.0677   -1.1663  -18.7663 H   0  0  0  0  0  0  0  0  0  0  0  0
   12.9039    0.4503  -19.3005 H   0  0  0  0  0  0  0  0  0  0  0  0
    8.0936    6.4717   -7.5012 H   0  0  0  0  0  0  0  0  0  0  0  0
    9.7281    5.8729   -7.3583 H   0  0  0  0  0  0  0  0  0  0  0  0
    8.9165    7.9197   -5.9492 H   0  0  0  0  0  0  0  0  0  0  0  0
    9.0547    8.8774   -7.3955 H   0  0  0  0  0  0  0  0  0  0  0  0
    8.7109    7.6848   -9.4465 H   0  0  0  0  0  0  0  0  0  0  0  0
  2  1  1  0
  3  2  1  0
  4  3  2  0
  5  4  1  0
  6  5  2  0
  7  6  1  0
  8  3  1  0
  8  7  2  0
  9  8  1  0
 10  9  1  0
 11 10  1  0
 12 11  1  0
 13 12  1  0
 14 13  1  0
 15 14  1  0
 16 15  1  0
 17 16  1  0
 18 17  1  0
 19 18  1  0
 20 19  2  0
 21 19  1  0
 22 21  2  0
 23 22  1  0
 24 23  2  0
 25 24  1  0
 26 21  1  0
 26 25  2  0
 27 26  1  0
 28 27  2  0
 29 28  1  0
 30 29  2  0
 31 30  1  0
 32 27  1  0
 32 31  2  0
 33 25  1  0
 33 32  1  0
 34 33  2  0
 35 13  1  0
 36  9  1  0
 36 35  1  0
 37  1  1  0
 38  1  1  0
 39  1  1  0
 40  4  1  0
 41  5  1  0
 42  6  1  0
 43  7  1  0
 44 10  1  0
 45 10  1  0
 46 11  1  0
 47 11  1  0
 48 12  1  0
 49 12  1  0
 50 14  1  0
 51 14  1  0
 52 15  1  0
 53 15  1  0
 54 16  1  0
 55 16  1  0
 56 17  1  0
 57 17  1  0
 58 18  1  0
 59 22  1  0
 60 23  1  0
 61 24  1  0
 62 28  1  0
 63 29  1  0
 64 30  1  0
 65 31  1  0
 66 35  1  0
 67 35  1  0
 68 36  1  0
 69 36  1  0
 13 70  1  6
M  CHG  1  13   1
M  END
>  <b_m_subgroup_collapsed>  (154) 
0

>  <r_i_docking_score>  (154) 
-8.7682935085092506

>  <s_m_subgroup_title>  (154) 
glide-dock_SP_D22_pv

>  <s_m_subgroupid>  (154) 
glide-dock_SP_D22_pv

>  <Molecule ChEMBL ID>  (154) 
CHEMBL2386617

>  <Standard Type>  (154) 
Ki

>  <Standard Value>  (154) 
100.0

>  <label>  (154) 
1

$$$$
CHEMBL246856
     RDKit          3D

 46 49  0  0  1  0  0  0  0  0999 V2000
    9.3603    8.9723   -7.4923 O   0  0  0  0  0  0  0  0  0  0  0  0
   10.4273    8.0521   -7.3380 C   0  0  1  0  0  0  0  0  0  0  0  0
   10.9604    8.1316   -5.9075 C   0  0  0  0  0  0  0  0  0  0  0  0
   11.2862    6.9835   -5.1475 C   0  0  0  0  0  0  0  0  0  0  0  0
   11.7754    7.1152   -3.8326 C   0  0  0  0  0  0  0  0  0  0  0  0
   11.9306    8.3939   -3.2647 C   0  0  0  0  0  0  0  0  0  0  0  0
   12.4865    8.5723   -1.6495 Cl  0  0  0  0  0  0  0  0  0  0  0  0
   11.6011    9.5388   -4.0060 C   0  0  0  0  0  0  0  0  0  0  0  0
   11.1345    9.4090   -5.3245 C   0  0  0  0  0  0  0  0  0  0  0  0
    9.8949    6.6703   -7.7637 C   0  0  0  0  0  0  0  0  0  0  0  0
    9.3496    6.7024   -9.2034 C   0  0  0  0  0  0  0  0  0  0  0  0
   10.3182    7.2174  -10.2128 N   0  0  1  0  0  0  0  0  0  0  0  0
    9.6886    7.4298  -11.5440 C   0  0  0  0  0  0  0  0  0  0  0  0
    9.0200    6.2259  -12.1264 C   0  0  0  0  0  0  0  0  0  0  0  0
    9.5103    5.3058  -13.0175 C   0  0  0  0  0  0  0  0  0  0  0  0
    8.4349    4.4032  -13.3209 C   0  0  0  0  0  0  0  0  0  0  0  0
    8.2852    3.2842  -14.1746 C   0  0  0  0  0  0  0  0  0  0  0  0
    7.0656    2.5789  -14.2461 C   0  0  0  0  0  0  0  0  0  0  0  0
    5.9734    2.9731  -13.4466 C   0  0  0  0  0  0  0  0  0  0  0  0
    6.0870    4.0921  -12.6023 C   0  0  0  0  0  0  0  0  0  0  0  0
    7.3010    4.7959  -12.5499 C   0  0  0  0  0  0  0  0  0  0  0  0
    7.6972    5.9161  -11.8475 N   0  0  0  0  0  0  0  0  0  0  0  0
   11.0159    8.4641   -9.7863 C   0  0  0  0  0  0  0  0  0  0  0  0
   11.5384    8.4113   -8.3400 C   0  0  0  0  0  0  0  0  0  0  0  0
    8.6235    8.6738   -6.9764 H   0  0  0  0  0  0  0  0  0  0  0  0
   11.1731    5.9902   -5.5513 H   0  0  0  0  0  0  0  0  0  0  0  0
   12.0184    6.2332   -3.2575 H   0  0  0  0  0  0  0  0  0  0  0  0
   11.6863   10.5168   -3.5551 H   0  0  0  0  0  0  0  0  0  0  0  0
   10.8904   10.3013   -5.8833 H   0  0  0  0  0  0  0  0  0  0  0  0
   10.6831    5.9185   -7.7091 H   0  0  0  0  0  0  0  0  0  0  0  0
    9.1044    6.3427   -7.0861 H   0  0  0  0  0  0  0  0  0  0  0  0
    9.0099    5.7025   -9.4750 H   0  0  0  0  0  0  0  0  0  0  0  0
    8.4856    7.3530   -9.2326 H   0  0  0  0  0  0  0  0  0  0  0  0
    8.9604    8.2406  -11.4744 H   0  0  0  0  0  0  0  0  0  0  0  0
   10.4533    7.7728  -12.2421 H   0  0  0  0  0  0  0  0  0  0  0  0
   10.5022    5.2715  -13.4443 H   0  0  0  0  0  0  0  0  0  0  0  0
    9.1218    2.9620  -14.7766 H   0  0  0  0  0  0  0  0  0  0  0  0
    6.9740    1.7222  -14.8981 H   0  0  0  0  0  0  0  0  0  0  0  0
    5.0463    2.4201  -13.4836 H   0  0  0  0  0  0  0  0  0  0  0  0
    5.2571    4.4063  -11.9876 H   0  0  0  0  0  0  0  0  0  0  0  0
    7.1082    6.4804  -11.2296 H   0  0  0  0  0  0  0  0  0  0  0  0
   11.8471    8.6628  -10.4646 H   0  0  0  0  0  0  0  0  0  0  0  0
   10.3370    9.3139   -9.8840 H   0  0  0  0  0  0  0  0  0  0  0  0
   11.9781    9.3726   -8.0844 H   0  0  0  0  0  0  0  0  0  0  0  0
   12.3526    7.6895   -8.2661 H   0  0  0  0  0  0  0  0  0  0  0  0
   11.0206    6.5017  -10.3246 H   0  0  0  0  0  0  0  0  0  0  0  0
  2  1  1  1
  3  2  1  0
  4  3  2  0
  5  4  1  0
  6  5  2  0
  7  6  1  0
  8  6  1  0
  9  3  1  0
  9  8  2  0
 10  2  1  0
 11 10  1  0
 12 11  1  0
 13 12  1  0
 14 13  1  0
 15 14  2  0
 16 15  1  0
 17 16  2  0
 18 17  1  0
 19 18  2  0
 20 19  1  0
 21 16  1  0
 21 20  2  0
 22 14  1  0
 22 21  1  0
 23 12  1  0
 24  2  1  0
 24 23  1  0
 25  1  1  0
 26  4  1  0
 27  5  1  0
 28  8  1  0
 29  9  1  0
 30 10  1  0
 31 10  1  0
 32 11  1  0
 33 11  1  0
 34 13  1  0
 35 13  1  0
 36 15  1  0
 37 17  1  0
 38 18  1  0
 39 19  1  0
 40 20  1  0
 41 22  1  0
 42 23  1  0
 43 23  1  0
 44 24  1  0
 45 24  1  0
 12 46  1  6
M  CHG  1  12   1
M  END
>  <b_m_subgroup_collapsed>  (155) 
0

>  <r_i_docking_score>  (155) 
-8.7654402651574497

>  <s_m_subgroup_title>  (155) 
glide-dock_SP_D22_pv

>  <s_m_subgroupid>  (155) 
glide-dock_SP_D22_pv

>  <Molecule ChEMBL ID>  (155) 
CHEMBL246856

>  <Standard Type>  (155) 
Ki

>  <Standard Value>  (155) 
10000.0

>  <label>  (155) 
0

$$$$
CHEMBL2094011
     RDKit          3D

 62 67  0  0  1  0  0  0  0  0999 V2000
    3.8686   -0.7817  -13.8559 O   0  0  0  0  0  0  0  0  0  0  0  0
    4.8472   -0.2918  -14.4166 C   0  0  0  0  0  0  0  0  0  0  0  0
    5.5725    0.9427  -13.8847 C   0  0  0  0  0  0  0  0  0  0  0  0
    6.6167    1.1467  -14.9645 C   0  0  0  0  0  0  0  0  0  0  0  0
    6.4755    0.1335  -15.9098 C   0  0  0  0  0  0  0  0  0  0  0  0
    7.2924    0.0493  -17.0450 C   0  0  0  0  0  0  0  0  0  0  0  0
    8.2823    1.0380  -17.2112 C   0  0  0  0  0  0  0  0  0  0  0  0
    8.4355    2.0743  -16.2612 C   0  0  0  0  0  0  0  0  0  0  0  0
    7.6018    2.1635  -15.1138 C   0  0  0  0  0  0  0  0  0  0  0  0
    7.8038    3.2407  -14.2186 N   0  0  0  0  0  0  0  0  0  0  0  0
    9.1359    3.2564  -13.6053 C   0  0  0  0  0  0  0  0  0  0  0  0
    9.3746    4.4833  -12.6953 C   0  0  0  0  0  0  0  0  0  0  0  0
    8.2236    4.7229  -11.7864 N   0  0  0  0  0  0  0  0  0  0  0  0
    8.3961    5.8310  -10.8172 C   0  0  0  0  0  0  0  0  0  0  0  0
    9.5234    5.6313   -9.7904 C   0  0  0  0  0  0  0  0  0  0  0  0
    9.6303    6.8193   -8.8121 C   0  0  2  0  0  0  0  0  0  0  0  0
   10.2526    8.0651   -9.4956 C   0  0  0  0  0  0  0  0  0  0  0  0
   10.3110    9.2941   -8.5759 C   0  0  0  0  0  0  0  0  0  0  0  0
   10.7003    8.9165   -7.1872 C   0  0  0  0  0  0  0  0  0  0  0  0
   11.0141    9.8047   -6.1736 N   0  0  0  0  0  0  0  0  0  0  0  0
   11.3499    9.1157   -5.0217 C   0  0  0  0  0  0  0  0  0  0  0  0
   11.7182    9.5313   -3.7277 C   0  0  0  0  0  0  0  0  0  0  0  0
   12.0974    8.5752   -2.7690 C   0  0  0  0  0  0  0  0  0  0  0  0
   12.0856    7.2095   -3.1060 C   0  0  0  0  0  0  0  0  0  0  0  0
   12.4852    6.2838   -2.2061 F   0  0  0  0  0  0  0  0  0  0  0  0
   11.6532    6.8053   -4.3806 C   0  0  0  0  0  0  0  0  0  0  0  0
   11.2647    7.7350   -5.3658 C   0  0  0  0  0  0  0  0  0  0  0  0
   10.7730    7.6392   -6.7103 C   0  0  0  0  0  0  0  0  0  0  0  0
   10.3963    6.4342   -7.5185 C   0  0  0  0  0  0  0  0  0  0  0  0
    6.9844    4.9080  -12.5695 C   0  0  0  0  0  0  0  0  0  0  0  0
    6.6855    3.6420  -13.3654 C   0  0  0  0  0  0  0  0  0  0  0  0
    5.4199   -0.7118  -15.5495 N   0  0  0  0  0  0  0  0  0  0  0  0
    6.0160    0.7387  -12.9116 H   0  0  0  0  0  0  0  0  0  0  0  0
    4.8675    1.7672  -13.8362 H   0  0  0  0  0  0  0  0  0  0  0  0
    7.1678   -0.7450  -17.7697 H   0  0  0  0  0  0  0  0  0  0  0  0
    8.9320    1.0042  -18.0753 H   0  0  0  0  0  0  0  0  0  0  0  0
    9.1938    2.8225  -16.4368 H   0  0  0  0  0  0  0  0  0  0  0  0
    9.2855    2.3337  -13.0471 H   0  0  0  0  0  0  0  0  0  0  0  0
    9.9043    3.2583  -14.3800 H   0  0  0  0  0  0  0  0  0  0  0  0
   10.2889    4.3129  -12.1324 H   0  0  0  0  0  0  0  0  0  0  0  0
    9.5404    5.3736  -13.3027 H   0  0  0  0  0  0  0  0  0  0  0  0
    8.4984    6.7683  -11.3598 H   0  0  0  0  0  0  0  0  0  0  0  0
    7.4722    5.8819  -10.2460 H   0  0  0  0  0  0  0  0  0  0  0  0
    9.3355    4.7126   -9.2318 H   0  0  0  0  0  0  0  0  0  0  0  0
   10.4855    5.5070  -10.2791 H   0  0  0  0  0  0  0  0  0  0  0  0
    8.6217    7.0976   -8.4990 H   0  0  0  0  0  0  0  0  0  0  0  0
   11.2711    7.8139   -9.7980 H   0  0  0  0  0  0  0  0  0  0  0  0
    9.7231    8.3377  -10.4070 H   0  0  0  0  0  0  0  0  0  0  0  0
    9.3313    9.7723   -8.5514 H   0  0  0  0  0  0  0  0  0  0  0  0
   11.0219   10.0045   -9.0002 H   0  0  0  0  0  0  0  0  0  0  0  0
   11.0073   10.8083   -6.2882 H   0  0  0  0  0  0  0  0  0  0  0  0
   11.7232   10.5738   -3.4631 H   0  0  0  0  0  0  0  0  0  0  0  0
   12.4022    8.8886   -1.7811 H   0  0  0  0  0  0  0  0  0  0  0  0
   11.6255    5.7616   -4.6239 H   0  0  0  0  0  0  0  0  0  0  0  0
    9.7714    5.7722   -6.9193 H   0  0  0  0  0  0  0  0  0  0  0  0
   11.2864    5.8638   -7.7724 H   0  0  0  0  0  0  0  0  0  0  0  0
    6.1403    5.1238  -11.9120 H   0  0  0  0  0  0  0  0  0  0  0  0
    7.0919    5.7632  -13.2349 H   0  0  0  0  0  0  0  0  0  0  0  0
    5.7915    3.7917  -13.9705 H   0  0  0  0  0  0  0  0  0  0  0  0
    6.4851    2.8612  -12.6388 H   0  0  0  0  0  0  0  0  0  0  0  0
    5.1353   -1.5161  -16.0910 H   0  0  0  0  0  0  0  0  0  0  0  0
    8.0955    3.8848  -11.2412 H   0  0  0  0  0  0  0  0  0  0  0  0
  2  1  2  0
  3  2  1  0
  4  3  1  0
  5  4  2  0
  6  5  1  0
  7  6  2  0
  8  7  1  0
  9  4  1  0
  9  8  2  0
 10  9  1  0
 11 10  1  0
 12 11  1  0
 13 12  1  0
 14 13  1  0
 15 14  1  0
 16 15  1  0
 17 16  1  0
 18 17  1  0
 19 18  1  0
 20 19  1  0
 21 20  1  0
 22 21  2  0
 23 22  1  0
 24 23  2  0
 25 24  1  0
 26 24  1  0
 27 21  1  0
 27 26  2  0
 28 19  2  0
 28 27  1  0
 29 16  1  0
 29 28  1  0
 30 13  1  0
 31 10  1  0
 31 30  1  0
 32  2  1  0
 32  5  1  0
 33  3  1  0
 34  3  1  0
 35  6  1  0
 36  7  1  0
 37  8  1  0
 38 11  1  0
 39 11  1  0
 40 12  1  0
 41 12  1  0
 42 14  1  0
 43 14  1  0
 44 15  1  0
 45 15  1  0
 16 46  1  1
 47 17  1  0
 48 17  1  0
 49 18  1  0
 50 18  1  0
 51 20  1  0
 52 22  1  0
 53 23  1  0
 54 26  1  0
 55 29  1  0
 56 29  1  0
 57 30  1  0
 58 30  1  0
 59 31  1  0
 60 31  1  0
 61 32  1  0
 62 13  1  0
M  CHG  1  13   1
M  END
>  <b_m_subgroup_collapsed>  (156) 
0

>  <r_i_docking_score>  (156) 
-8.7619978224385502

>  <s_m_subgroup_title>  (156) 
glide-dock_SP_D22_pv

>  <s_m_subgroupid>  (156) 
glide-dock_SP_D22_pv

>  <Molecule ChEMBL ID>  (156) 
CHEMBL2094011

>  <Standard Type>  (156) 
Ki

>  <Standard Value>  (156) 
15.0

>  <label>  (156) 
1

$$$$
CHEMBL2112210
     RDKit          3D

 66 70  0  0  1  0  0  0  0  0999 V2000
    3.2860   -1.0275  -13.8472 N   0  0  0  0  0  0  0  0  0  0  0  0
    4.0017   -0.7895  -14.7233 C   0  0  0  0  0  0  0  0  0  0  0  0
    4.9086   -0.4674  -15.8085 C   0  0  0  0  0  0  0  0  0  0  0  0
    4.5244   -0.6308  -17.1558 C   0  0  0  0  0  0  0  0  0  0  0  0
    5.3566   -0.1399  -18.1861 C   0  0  0  0  0  0  0  0  0  0  0  0
    6.5745    0.5056  -17.8819 C   0  0  0  0  0  0  0  0  0  0  0  0
    6.9850    0.5812  -16.5259 C   0  0  0  0  0  0  0  0  0  0  0  0
    6.1548    0.1042  -15.4957 C   0  0  0  0  0  0  0  0  0  0  0  0
    8.2720    1.2925  -16.2107 C   0  0  1  0  0  0  0  0  0  0  0  0
    9.2084    0.7743  -15.1226 C   0  0  0  0  0  0  0  0  0  0  0  0
   10.4607    1.5390  -15.3827 N   0  0  2  0  0  0  0  0  0  0  0  0
   10.7924    2.5657  -14.3601 C   0  0  0  0  0  0  0  0  0  0  0  0
    9.6648    3.5911  -14.0728 C   0  0  0  0  0  0  0  0  0  0  0  0
    9.9469    4.4332  -12.8230 C   0  0  0  0  0  0  0  0  0  0  0  0
    8.7537    5.3106  -12.4052 C   0  0  0  0  0  0  0  0  0  0  0  0
    9.0129    5.9265  -11.1118 N   0  0  0  0  0  0  0  0  0  0  0  0
    9.6912    7.0673  -10.9225 C   0  0  0  0  0  0  0  0  0  0  0  0
   10.0864    7.7725  -11.8497 O   0  0  0  0  0  0  0  0  0  0  0  0
   10.0718    7.3675   -9.4999 C   0  0  0  0  0  0  0  0  0  0  0  0
   11.2322    8.1246   -9.2254 C   0  0  0  0  0  0  0  0  0  0  0  0
   11.6223    8.3776   -7.8965 C   0  0  0  0  0  0  0  0  0  0  0  0
   10.8630    7.8760   -6.8180 C   0  0  0  0  0  0  0  0  0  0  0  0
   11.2849    8.1070   -5.4327 C   0  0  0  0  0  0  0  0  0  0  0  0
   11.2998    9.4126   -4.8988 C   0  0  0  0  0  0  0  0  0  0  0  0
   11.6879    9.6311   -3.5652 C   0  0  0  0  0  0  0  0  0  0  0  0
   12.0878    8.5509   -2.7596 C   0  0  0  0  0  0  0  0  0  0  0  0
   12.4868    8.7863   -1.4493 N   0  0  0  0  0  0  0  0  0  0  0  0
   12.0853    7.2439   -3.2822 C   0  0  0  0  0  0  0  0  0  0  0  0
   11.6765    7.0260   -4.6120 C   0  0  0  0  0  0  0  0  0  0  0  0
    9.6856    7.1505   -7.0913 C   0  0  0  0  0  0  0  0  0  0  0  0
    9.2865    6.9060   -8.4183 C   0  0  0  0  0  0  0  0  0  0  0  0
   10.4039    2.0333  -16.7903 C   0  0  0  0  0  0  0  0  0  0  0  0
    9.1968    1.3105  -17.3986 C   0  0  2  0  0  0  0  0  0  0  0  0
    8.4398    1.8919  -18.5955 C   0  0  0  0  0  0  0  0  0  0  0  0
    7.3250    1.0438  -18.9182 O   0  0  0  0  0  0  0  0  0  0  0  0
    3.5710   -1.0795  -17.4017 H   0  0  0  0  0  0  0  0  0  0  0  0
    5.0357   -0.2276  -19.2139 H   0  0  0  0  0  0  0  0  0  0  0  0
    6.4495    0.2272  -14.4633 H   0  0  0  0  0  0  0  0  0  0  0  0
    7.9758    2.3160  -15.9718 H   0  0  0  0  0  0  0  0  0  0  0  0
    8.8162    0.8870  -14.1114 H   0  0  0  0  0  0  0  0  0  0  0  0
    9.4080   -0.2882  -15.2690 H   0  0  0  0  0  0  0  0  0  0  0  0
   11.0318    2.0247  -13.4469 H   0  0  0  0  0  0  0  0  0  0  0  0
   11.7079    3.0836  -14.6521 H   0  0  0  0  0  0  0  0  0  0  0  0
    9.5153    4.2493  -14.9302 H   0  0  0  0  0  0  0  0  0  0  0  0
    8.7136    3.0867  -13.9035 H   0  0  0  0  0  0  0  0  0  0  0  0
   10.1849    3.7667  -11.9938 H   0  0  0  0  0  0  0  0  0  0  0  0
   10.8296    5.0527  -12.9915 H   0  0  0  0  0  0  0  0  0  0  0  0
    8.5426    6.0675  -13.1630 H   0  0  0  0  0  0  0  0  0  0  0  0
    7.8517    4.7053  -12.3067 H   0  0  0  0  0  0  0  0  0  0  0  0
    8.6970    5.4311  -10.2901 H   0  0  0  0  0  0  0  0  0  0  0  0
   11.8422    8.5048  -10.0338 H   0  0  0  0  0  0  0  0  0  0  0  0
   12.5213    8.9461   -7.7049 H   0  0  0  0  0  0  0  0  0  0  0  0
   10.9997   10.2510   -5.5120 H   0  0  0  0  0  0  0  0  0  0  0  0
   11.6840   10.6293   -3.1556 H   0  0  0  0  0  0  0  0  0  0  0  0
   12.9573    8.0506   -0.9466 H   0  0  0  0  0  0  0  0  0  0  0  0
   12.7887    9.7200   -1.2001 H   0  0  0  0  0  0  0  0  0  0  0  0
   12.3814    6.4045   -2.6693 H   0  0  0  0  0  0  0  0  0  0  0  0
   11.6670    6.0199   -5.0073 H   0  0  0  0  0  0  0  0  0  0  0  0
    9.0768    6.7812   -6.2780 H   0  0  0  0  0  0  0  0  0  0  0  0
    8.3669    6.3630   -8.5891 H   0  0  0  0  0  0  0  0  0  0  0  0
   10.2552    3.1137  -16.8226 H   0  0  0  0  0  0  0  0  0  0  0  0
   11.3289    1.8128  -17.3241 H   0  0  0  0  0  0  0  0  0  0  0  0
    9.4919    0.2875  -17.6507 H   0  0  0  0  0  0  0  0  0  0  0  0
    8.0879    2.9019  -18.3810 H   0  0  0  0  0  0  0  0  0  0  0  0
    9.0938    1.9568  -19.4638 H   0  0  0  0  0  0  0  0  0  0  0  0
   11.2136    0.8664  -15.3477 H   0  0  0  0  0  0  0  0  0  0  0  0
  2  1  3  0
  3  2  1  0
  4  3  1  0
  5  4  2  0
  6  5  1  0
  7  6  2  0
  8  3  2  0
  8  7  1  0
  9  7  1  0
 10  9  1  0
 11 10  1  0
 12 11  1  0
 13 12  1  0
 14 13  1  0
 15 14  1  0
 16 15  1  0
 17 16  1  0
 18 17  2  0
 19 17  1  0
 20 19  1  0
 21 20  2  0
 22 21  1  0
 23 22  1  0
 24 23  1  0
 25 24  2  0
 26 25  1  0
 27 26  1  0
 28 26  2  0
 29 23  2  0
 29 28  1  0
 30 22  2  0
 31 19  2  0
 31 30  1  0
 32 11  1  0
 33  9  1  0
 33 32  1  0
 34 33  1  0
 35  6  1  0
 35 34  1  0
 36  4  1  0
 37  5  1  0
 38  8  1  0
  9 39  1  1
 40 10  1  0
 41 10  1  0
 42 12  1  0
 43 12  1  0
 44 13  1  0
 45 13  1  0
 46 14  1  0
 47 14  1  0
 48 15  1  0
 49 15  1  0
 50 16  1  0
 51 20  1  0
 52 21  1  0
 53 24  1  0
 54 25  1  0
 55 27  1  0
 56 27  1  0
 57 28  1  0
 58 29  1  0
 59 30  1  0
 60 31  1  0
 61 32  1  0
 62 32  1  0
 33 63  1  6
 64 34  1  0
 65 34  1  0
 11 66  1  6
M  CHG  1  11   1
M  END
>  <b_m_subgroup_collapsed>  (157) 
0

>  <r_i_docking_score>  (157) 
-8.75969625543466

>  <s_m_subgroup_title>  (157) 
glide-dock_SP_D22_pv

>  <s_m_subgroupid>  (157) 
glide-dock_SP_D22_pv

>  <Molecule ChEMBL ID>  (157) 
CHEMBL2112210

>  <Standard Type>  (157) 
Ki

>  <Standard Value>  (157) 
19.95

>  <label>  (157) 
1

$$$$
CHEMBL5417227
     RDKit          3D

 53 56  0  0  1  0  0  0  0  0999 V2000
    3.2647   -0.6281  -15.4486 C   0  0  0  0  0  0  0  0  0  0  0  0
    3.8199   -0.8176  -14.0337 C   0  0  0  0  0  0  0  0  0  0  0  0
    4.4855    0.3515  -13.5606 O   0  0  0  0  0  0  0  0  0  0  0  0
    5.7222    0.6720  -14.0843 C   0  0  0  0  0  0  0  0  0  0  0  0
    6.5028   -0.2019  -14.8807 C   0  0  0  0  0  0  0  0  0  0  0  0
    7.7489    0.2163  -15.3877 C   0  0  0  0  0  0  0  0  0  0  0  0
    8.2418    1.5063  -15.1128 C   0  0  0  0  0  0  0  0  0  0  0  0
    7.4987    2.4022  -14.3150 C   0  0  0  0  0  0  0  0  0  0  0  0
    7.6763    3.7359  -13.8242 C   0  0  0  0  0  0  0  0  0  0  0  0
    6.5724    4.0114  -13.0485 C   0  0  0  0  0  0  0  0  0  0  0  0
    6.1842    5.2227  -12.2496 C   0  0  0  0  0  0  0  0  0  0  0  0
    7.3000    5.7723  -11.4474 N   0  0  0  0  0  0  0  0  0  0  0  0
    8.2050    6.7014  -12.1611 C   0  0  0  0  0  0  0  0  0  0  0  0
    9.5106    6.9778  -11.3897 C   0  0  0  0  0  0  0  0  0  0  0  0
    9.3499    7.8241  -10.1106 C   0  0  0  0  0  0  0  0  0  0  0  0
   10.6979    8.3685   -9.6017 C   0  0  0  0  0  0  0  0  0  0  0  0
   10.5358    9.1483   -8.4188 O   0  0  0  0  0  0  0  0  0  0  0  0
   10.8334    8.5923   -7.1929 C   0  0  0  0  0  0  0  0  0  0  0  0
   10.9130    7.2008   -6.9612 C   0  0  0  0  0  0  0  0  0  0  0  0
   11.2860    6.7197   -5.6956 C   0  0  0  0  0  0  0  0  0  0  0  0
   11.5671    7.6066   -4.6492 C   0  0  0  0  0  0  0  0  0  0  0  0
   12.0862    7.2417   -3.0039 S   0  0  0  0  0  0  0  0  0  0  0  0
   12.0860    8.9749   -2.6955 C   0  0  0  0  0  0  0  0  0  0  0  0
   11.7167    9.7725   -3.7021 N   0  0  0  0  0  0  0  0  0  0  0  0
   11.4476    9.0117   -4.8335 C   0  0  0  0  0  0  0  0  0  0  0  0
   11.0768    9.4765   -6.1180 C   0  0  0  0  0  0  0  0  0  0  0  0
    5.6877    2.9585  -13.0470 O   0  0  0  0  0  0  0  0  0  0  0  0
    6.2483    1.9540  -13.8187 C   0  0  0  0  0  0  0  0  0  0  0  0
    2.8273   -1.5540  -15.8220 H   0  0  0  0  0  0  0  0  0  0  0  0
    2.4871    0.1336  -15.4458 H   0  0  0  0  0  0  0  0  0  0  0  0
    4.0340   -0.3249  -16.1584 H   0  0  0  0  0  0  0  0  0  0  0  0
    4.4629   -1.6936  -13.9745 H   0  0  0  0  0  0  0  0  0  0  0  0
    2.9857   -1.0205  -13.3615 H   0  0  0  0  0  0  0  0  0  0  0  0
    6.1784   -1.2018  -15.1255 H   0  0  0  0  0  0  0  0  0  0  0  0
    8.3295   -0.4647  -15.9937 H   0  0  0  0  0  0  0  0  0  0  0  0
    9.2019    1.8079  -15.5047 H   0  0  0  0  0  0  0  0  0  0  0  0
    8.5343    4.3553  -14.0319 H   0  0  0  0  0  0  0  0  0  0  0  0
    5.3870    4.9534  -11.5550 H   0  0  0  0  0  0  0  0  0  0  0  0
    5.7700    5.9944  -12.8996 H   0  0  0  0  0  0  0  0  0  0  0  0
    7.8086    5.0186  -11.0106 H   0  0  0  0  0  0  0  0  0  0  0  0
    7.6755    7.6366  -12.3491 H   0  0  0  0  0  0  0  0  0  0  0  0
    8.4611    6.3009  -13.1385 H   0  0  0  0  0  0  0  0  0  0  0  0
   10.1792    7.5118  -12.0660 H   0  0  0  0  0  0  0  0  0  0  0  0
   10.0156    6.0395  -11.1544 H   0  0  0  0  0  0  0  0  0  0  0  0
    8.8623    7.2357   -9.3327 H   0  0  0  0  0  0  0  0  0  0  0  0
    8.6934    8.6722  -10.3100 H   0  0  0  0  0  0  0  0  0  0  0  0
   11.1127    9.0362  -10.3579 H   0  0  0  0  0  0  0  0  0  0  0  0
   11.4406    7.5772   -9.4907 H   0  0  0  0  0  0  0  0  0  0  0  0
   10.7018    6.4842   -7.7404 H   0  0  0  0  0  0  0  0  0  0  0  0
   11.3880    5.6697   -5.5195 H   0  0  0  0  0  0  0  0  0  0  0  0
   12.3471    9.4162   -1.7440 H   0  0  0  0  0  0  0  0  0  0  0  0
   11.0011   10.5405   -6.2829 H   0  0  0  0  0  0  0  0  0  0  0  0
    6.8858    6.3685  -10.7216 H   0  0  0  0  0  0  0  0  0  0  0  0
  2  1  1  0
  3  2  1  0
  4  3  1  0
  5  4  1  0
  6  5  2  0
  7  6  1  0
  8  7  2  0
  9  8  1  0
 10  9  2  0
 11 10  1  0
 12 11  1  0
 13 12  1  0
 14 13  1  0
 15 14  1  0
 16 15  1  0
 17 16  1  0
 18 17  1  0
 19 18  2  0
 20 19  1  0
 21 20  2  0
 22 21  1  0
 23 22  1  0
 24 23  2  0
 25 21  1  0
 25 24  1  0
 26 18  1  0
 26 25  2  0
 27 10  1  0
 28  4  2  0
 28  8  1  0
 28 27  1  0
 29  1  1  0
 30  1  1  0
 31  1  1  0
 32  2  1  0
 33  2  1  0
 34  5  1  0
 35  6  1  0
 36  7  1  0
 37  9  1  0
 38 11  1  0
 39 11  1  0
 40 12  1  0
 41 13  1  0
 42 13  1  0
 43 14  1  0
 44 14  1  0
 45 15  1  0
 46 15  1  0
 47 16  1  0
 48 16  1  0
 49 19  1  0
 50 20  1  0
 51 23  1  0
 52 26  1  0
 53 12  1  0
M  CHG  1  12   1
M  END
>  <b_m_subgroup_collapsed>  (158) 
0

>  <r_i_docking_score>  (158) 
-8.7584683284850993

>  <s_m_subgroup_title>  (158) 
glide-dock_SP_D22_pv

>  <s_m_subgroupid>  (158) 
glide-dock_SP_D22_pv

>  <Molecule ChEMBL ID>  (158) 
CHEMBL5417227

>  <Standard Type>  (158) 
Ki

>  <Standard Value>  (158) 
30.2

>  <label>  (158) 
1

$$$$
CHEMBL3485708
     RDKit          3D

 47 49  0  0  1  0  0  0  0  0999 V2000
    6.8594    1.7204  -14.8936 C   0  0  0  0  0  0  0  0  0  0  0  0
    7.1710    2.9729  -14.1011 C   0  0  0  0  0  0  0  0  0  0  0  0
    6.1509    3.6471  -13.3964 C   0  0  0  0  0  0  0  0  0  0  0  0
    6.4524    4.8007  -12.6459 C   0  0  0  0  0  0  0  0  0  0  0  0
    7.7731    5.2880  -12.6013 C   0  0  0  0  0  0  0  0  0  0  0  0
    8.0860    6.4249  -11.8470 N   0  0  0  0  0  0  0  0  0  0  0  0
    9.3842    6.9077  -11.7414 C   0  0  0  0  0  0  0  0  0  0  0  0
    9.5888    8.0693  -10.7795 C   0  0  0  0  0  0  0  0  0  0  0  0
    8.8860    7.8638   -9.4930 N   0  0  0  0  0  0  0  0  0  0  0  0
    9.2917    6.6734   -8.7092 C   0  0  0  0  0  0  0  0  0  0  0  0
   10.3931    7.0081   -7.6928 C   0  0  0  0  0  0  0  0  0  0  0  0
    9.8219    7.5429   -6.3699 C   0  0  0  0  0  0  0  0  0  0  0  0
   10.8862    7.9415   -5.4556 N   0  0  0  0  0  0  0  0  0  0  0  0
   11.4693    6.9768   -4.5374 C   0  0  0  0  0  0  0  0  0  0  0  0
   12.3118    7.8183   -3.5678 C   0  0  0  0  0  0  0  0  0  0  0  0
   12.4256    9.2090   -4.2056 C   0  0  0  0  0  0  0  0  0  0  0  0
   11.3848    9.1751   -5.3098 C   0  0  0  0  0  0  0  0  0  0  0  0
   11.0594   10.1713   -5.9532 O   0  0  0  0  0  0  0  0  0  0  0  0
   10.4085    6.3295  -12.4013 C   0  0  0  0  0  0  0  0  0  0  0  0
   10.1967    5.1390  -13.2515 C   0  0  0  0  0  0  0  0  0  0  0  0
   11.1326    4.6094  -13.8504 O   0  0  0  0  0  0  0  0  0  0  0  0
    8.7997    4.6217  -13.3146 C   0  0  0  0  0  0  0  0  0  0  0  0
    8.4919    3.4641  -14.0625 C   0  0  0  0  0  0  0  0  0  0  0  0
    7.7025    1.0288  -14.8739 H   0  0  0  0  0  0  0  0  0  0  0  0
    5.9954    1.2014  -14.4783 H   0  0  0  0  0  0  0  0  0  0  0  0
    6.6447    1.9752  -15.9318 H   0  0  0  0  0  0  0  0  0  0  0  0
    5.1365    3.2779  -13.4239 H   0  0  0  0  0  0  0  0  0  0  0  0
    5.6703    5.3035  -12.0963 H   0  0  0  0  0  0  0  0  0  0  0  0
   10.6518    8.2244  -10.5887 H   0  0  0  0  0  0  0  0  0  0  0  0
    9.2097    8.9744  -11.2515 H   0  0  0  0  0  0  0  0  0  0  0  0
    8.9834    8.6842   -8.9143 H   0  0  0  0  0  0  0  0  0  0  0  0
    8.4143    6.2857   -8.1890 H   0  0  0  0  0  0  0  0  0  0  0  0
    9.6219    5.8671   -9.3643 H   0  0  0  0  0  0  0  0  0  0  0  0
   10.9563    6.0980   -7.4766 H   0  0  0  0  0  0  0  0  0  0  0  0
   11.1115    7.7088   -8.1208 H   0  0  0  0  0  0  0  0  0  0  0  0
    9.1537    8.3868   -6.5533 H   0  0  0  0  0  0  0  0  0  0  0  0
    9.2138    6.7736   -5.8930 H   0  0  0  0  0  0  0  0  0  0  0  0
   10.7124    6.3907   -4.0166 H   0  0  0  0  0  0  0  0  0  0  0  0
   12.0860    6.2784   -5.1026 H   0  0  0  0  0  0  0  0  0  0  0  0
   13.2874    7.3692   -3.3892 H   0  0  0  0  0  0  0  0  0  0  0  0
   11.8066    7.8956   -2.6041 H   0  0  0  0  0  0  0  0  0  0  0  0
   13.4066    9.3748   -4.6497 H   0  0  0  0  0  0  0  0  0  0  0  0
   12.2205   10.0059   -3.4895 H   0  0  0  0  0  0  0  0  0  0  0  0
   11.4169    6.7031  -12.3013 H   0  0  0  0  0  0  0  0  0  0  0  0
    9.2713    2.9429  -14.5993 H   0  0  0  0  0  0  0  0  0  0  0  0
    7.3299    6.8766  -11.3235 H   0  0  0  0  0  0  0  0  0  0  0  0
    7.8858    7.7726   -9.7258 H   0  0  0  0  0  0  0  0  0  0  0  0
  2  1  1  0
  3  2  2  0
  4  3  1  0
  5  4  2  0
  6  5  1  0
  7  6  1  0
  8  7  1  0
  9  8  1  0
 10  9  1  0
 11 10  1  0
 12 11  1  0
 13 12  1  0
 14 13  1  0
 15 14  1  0
 16 15  1  0
 17 13  1  0
 17 16  1  0
 18 17  2  0
 19  7  2  0
 20 19  1  0
 21 20  2  0
 22  5  1  0
 22 20  1  0
 23  2  1  0
 23 22  2  0
 24  1  1  0
 25  1  1  0
 26  1  1  0
 27  3  1  0
 28  4  1  0
 29  8  1  0
 30  8  1  0
 31  9  1  0
 32 10  1  0
 33 10  1  0
 34 11  1  0
 35 11  1  0
 36 12  1  0
 37 12  1  0
 38 14  1  0
 39 14  1  0
 40 15  1  0
 41 15  1  0
 42 16  1  0
 43 16  1  0
 44 19  1  0
 45 23  1  0
 46  6  1  0
 47  9  1  0
M  CHG  1   9   1
M  END
>  <b_m_subgroup_collapsed>  (159) 
0

>  <r_i_docking_score>  (159) 
-8.7520580448893401

>  <s_m_subgroup_title>  (159) 
glide-dock_SP_D22_pv

>  <s_m_subgroupid>  (159) 
glide-dock_SP_D22_pv

>  <Molecule ChEMBL ID>  (159) 
CHEMBL3485708

>  <Standard Type>  (159) 
Ki

>  <Standard Value>  (159) 
10000.0

>  <label>  (159) 
0

$$$$
CHEMBL370128
     RDKit          3D

 62 65  0  0  1  0  0  0  0  0999 V2000
    7.5834    2.2332  -15.0381 C   0  0  0  0  0  0  0  0  0  0  0  0
    8.6668    3.1538  -15.0466 O   0  0  0  0  0  0  0  0  0  0  0  0
    8.7969    4.0277  -13.9839 C   0  0  0  0  0  0  0  0  0  0  0  0
    7.7990    4.1725  -12.9855 C   0  0  0  0  0  0  0  0  0  0  0  0
    7.9554    5.0915  -11.9333 C   0  0  0  0  0  0  0  0  0  0  0  0
    9.1127    5.8837  -11.8467 C   0  0  0  0  0  0  0  0  0  0  0  0
    9.2008    6.7898  -10.7532 N   0  0  0  0  0  0  0  0  0  0  0  0
   10.2965    7.3442  -10.2026 C   0  0  0  0  0  0  0  0  0  0  0  0
   11.3936    7.3960  -10.7638 O   0  0  0  0  0  0  0  0  0  0  0  0
   10.0633    7.9593   -9.0233 N   0  0  0  0  0  0  0  0  0  0  0  0
   11.0152    8.9447   -8.5032 C   0  0  0  0  0  0  0  0  0  0  0  0
   11.9132    8.2675   -7.4608 C   0  0  0  0  0  0  0  0  0  0  0  0
   11.0665    7.7193   -6.4065 N   0  0  0  0  0  0  0  0  0  0  0  0
   11.4415    7.8858   -5.0608 C   0  0  0  0  0  0  0  0  0  0  0  0
   11.6839    6.7637   -4.2436 C   0  0  0  0  0  0  0  0  0  0  0  0
   12.0863    6.9224   -2.9035 C   0  0  0  0  0  0  0  0  0  0  0  0
   12.2670    8.2104   -2.3700 C   0  0  0  0  0  0  0  0  0  0  0  0
   12.0271    9.3383   -3.1753 C   0  0  0  0  0  0  0  0  0  0  0  0
   11.6075    9.1773   -4.5100 C   0  0  0  0  0  0  0  0  0  0  0  0
   11.2351   10.5723   -5.4470 Cl  0  0  0  0  0  0  0  0  0  0  0  0
    9.9898    6.8187   -6.8055 C   0  0  0  0  0  0  0  0  0  0  0  0
    9.1707    7.4396   -7.9660 C   0  0  0  0  0  0  0  0  0  0  0  0
   10.1020    5.7576  -12.8502 C   0  0  0  0  0  0  0  0  0  0  0  0
    9.9633    4.8382  -13.9169 C   0  0  0  0  0  0  0  0  0  0  0  0
   10.9713    4.7338  -14.9049 N   0  0  0  0  0  0  0  0  0  0  0  0
   11.6427    3.4413  -15.0142 C   0  0  0  0  0  0  0  0  0  0  0  0
   12.3204    3.3086  -16.3900 C   0  0  0  0  0  0  0  0  0  0  0  0
   13.2368    4.4508  -16.6468 N   0  0  0  0  0  0  0  0  0  0  0  0
   13.9673    4.3150  -17.9248 C   0  0  0  0  0  0  0  0  0  0  0  0
   12.5474    5.7585  -16.5131 C   0  0  0  0  0  0  0  0  0  0  0  0
   11.8485    5.8800  -15.1475 C   0  0  0  0  0  0  0  0  0  0  0  0
    7.6599    1.5832  -15.9098 H   0  0  0  0  0  0  0  0  0  0  0  0
    7.6031    1.5987  -14.1507 H   0  0  0  0  0  0  0  0  0  0  0  0
    6.6230    2.7455  -15.0932 H   0  0  0  0  0  0  0  0  0  0  0  0
    6.8898    3.5905  -13.0006 H   0  0  0  0  0  0  0  0  0  0  0  0
    7.1815    5.1832  -11.1826 H   0  0  0  0  0  0  0  0  0  0  0  0
    8.3332    6.9465  -10.2508 H   0  0  0  0  0  0  0  0  0  0  0  0
   10.4598    9.7593   -8.0440 H   0  0  0  0  0  0  0  0  0  0  0  0
   11.6199    9.3960   -9.2920 H   0  0  0  0  0  0  0  0  0  0  0  0
   12.6458    8.9747   -7.0735 H   0  0  0  0  0  0  0  0  0  0  0  0
   12.4791    7.4562   -7.9182 H   0  0  0  0  0  0  0  0  0  0  0  0
   11.5603    5.7746   -4.6507 H   0  0  0  0  0  0  0  0  0  0  0  0
   12.2646    6.0515   -2.2891 H   0  0  0  0  0  0  0  0  0  0  0  0
   12.5759    8.3386   -1.3432 H   0  0  0  0  0  0  0  0  0  0  0  0
   12.1420   10.3274   -2.7580 H   0  0  0  0  0  0  0  0  0  0  0  0
   10.4287    5.8724   -7.1231 H   0  0  0  0  0  0  0  0  0  0  0  0
    9.3359    6.6017   -5.9596 H   0  0  0  0  0  0  0  0  0  0  0  0
    8.5649    8.2637   -7.5888 H   0  0  0  0  0  0  0  0  0  0  0  0
    8.4643    6.6955   -8.3351 H   0  0  0  0  0  0  0  0  0  0  0  0
   10.9815    6.3742  -12.8124 H   0  0  0  0  0  0  0  0  0  0  0  0
   12.3890    3.3792  -14.2230 H   0  0  0  0  0  0  0  0  0  0  0  0
   10.9624    2.6060  -14.8555 H   0  0  0  0  0  0  0  0  0  0  0  0
   12.8693    2.3675  -16.4385 H   0  0  0  0  0  0  0  0  0  0  0  0
   11.5579    3.2680  -17.1695 H   0  0  0  0  0  0  0  0  0  0  0  0
   13.2842    4.3478  -18.7758 H   0  0  0  0  0  0  0  0  0  0  0  0
   14.6958    5.1193  -18.0367 H   0  0  0  0  0  0  0  0  0  0  0  0
   14.5114    3.3701  -17.9584 H   0  0  0  0  0  0  0  0  0  0  0  0
   13.2667    6.5701  -16.6317 H   0  0  0  0  0  0  0  0  0  0  0  0
   11.8121    5.8658  -17.3141 H   0  0  0  0  0  0  0  0  0  0  0  0
   11.2862    6.8123  -15.1162 H   0  0  0  0  0  0  0  0  0  0  0  0
   12.5982    5.9306  -14.3546 H   0  0  0  0  0  0  0  0  0  0  0  0
   13.9332    4.4154  -15.9154 H   0  0  0  0  0  0  0  0  0  0  0  0
  2  1  1  0
  3  2  1  0
  4  3  1  0
  5  4  2  0
  6  5  1  0
  7  6  1  0
  8  7  1  0
  9  8  2  0
 10  8  1  0
 11 10  1  0
 12 11  1  0
 13 12  1  0
 14 13  1  0
 15 14  2  0
 16 15  1  0
 17 16  2  0
 18 17  1  0
 19 14  1  0
 19 18  2  0
 20 19  1  0
 21 13  1  0
 22 10  1  0
 22 21  1  0
 23  6  2  0
 24  3  2  0
 24 23  1  0
 25 24  1  0
 26 25  1  0
 27 26  1  0
 28 27  1  0
 29 28  1  0
 30 28  1  0
 31 25  1  0
 31 30  1  0
 32  1  1  0
 33  1  1  0
 34  1  1  0
 35  4  1  0
 36  5  1  0
 37  7  1  0
 38 11  1  0
 39 11  1  0
 40 12  1  0
 41 12  1  0
 42 15  1  0
 43 16  1  0
 44 17  1  0
 45 18  1  0
 46 21  1  0
 47 21  1  0
 48 22  1  0
 49 22  1  0
 50 23  1  0
 51 26  1  0
 52 26  1  0
 53 27  1  0
 54 27  1  0
 55 29  1  0
 56 29  1  0
 57 29  1  0
 58 30  1  0
 59 30  1  0
 60 31  1  0
 61 31  1  0
 62 28  1  0
M  CHG  1  28   1
M  END
>  <b_m_subgroup_collapsed>  (160) 
0

>  <r_i_docking_score>  (160) 
-8.7510853582038308

>  <s_m_subgroup_title>  (160) 
glide-dock_SP_D22_pv

>  <s_m_subgroupid>  (160) 
glide-dock_SP_D22_pv

>  <Molecule ChEMBL ID>  (160) 
CHEMBL370128

>  <Standard Type>  (160) 
Ki

>  <Standard Value>  (160) 
10000.0

>  <label>  (160) 
0

$$$$
CHEMBL5422870
     RDKit          3D

 84 87  0  0  1  0  0  0  0  0999 V2000
   17.6074    1.1596  -20.7799 C   0  0  0  0  0  0  0  0  0  0  0  0
   16.4397    1.2618  -19.9790 O   0  0  0  0  0  0  0  0  0  0  0  0
   15.9001    0.0114  -19.5817 C   0  0  0  0  0  0  0  0  0  0  0  0
   14.9413   -0.5546  -20.6465 C   0  0  0  0  0  0  0  0  0  0  0  0
   13.6837    0.1088  -20.6264 O   0  0  0  0  0  0  0  0  0  0  0  0
   12.7814   -0.3191  -19.6110 C   0  0  0  0  0  0  0  0  0  0  0  0
   12.4596    0.8369  -18.6557 C   0  0  0  0  0  0  0  0  0  0  0  0
   11.2438    0.5464  -17.9739 O   0  0  0  0  0  0  0  0  0  0  0  0
   10.8338    1.4009  -16.9702 C   0  0  0  0  0  0  0  0  0  0  0  0
   11.5767    2.5171  -16.5214 C   0  0  0  0  0  0  0  0  0  0  0  0
   11.1037    3.3014  -15.4560 C   0  0  0  0  0  0  0  0  0  0  0  0
    9.8761    2.9948  -14.8240 C   0  0  0  0  0  0  0  0  0  0  0  0
    9.3912    3.7269  -13.7075 N   0  0  0  0  0  0  0  0  0  0  0  0
    9.6321    4.9957  -13.3627 C   0  0  0  0  0  0  0  0  0  0  0  0
   10.7126    5.5714  -13.4815 O   0  0  0  0  0  0  0  0  0  0  0  0
    8.5515    5.5560  -12.8017 N   0  0  0  0  0  0  0  0  0  0  0  0
    8.5462    6.8581  -12.1538 C   0  0  0  0  0  0  0  0  0  0  0  0
    8.9541    6.6860  -10.6903 C   0  0  0  0  0  0  0  0  0  0  0  0
    9.3436    8.0051  -10.0117 C   0  0  0  0  0  0  0  0  0  0  0  0
   10.1067    7.7080   -8.7846 N   0  0  0  0  0  0  0  0  0  0  0  0
   11.1224    8.7276   -8.4305 C   0  0  0  0  0  0  0  0  0  0  0  0
   12.0574    8.1660   -7.3500 C   0  0  0  0  0  0  0  0  0  0  0  0
   11.2848    7.6040   -6.2353 N   0  0  0  0  0  0  0  0  0  0  0  0
   11.6595    7.7983   -4.8903 C   0  0  0  0  0  0  0  0  0  0  0  0
   11.6861    6.7122   -3.9941 C   0  0  0  0  0  0  0  0  0  0  0  0
   12.0541    6.8863   -2.6463 C   0  0  0  0  0  0  0  0  0  0  0  0
   12.3615    8.1702   -2.1644 C   0  0  0  0  0  0  0  0  0  0  0  0
   12.2975    9.2690   -3.0366 C   0  0  0  0  0  0  0  0  0  0  0  0
   11.9606    9.0831   -4.3891 C   0  0  0  0  0  0  0  0  0  0  0  0
   11.8719   10.1723   -5.1968 O   0  0  0  0  0  0  0  0  0  0  0  0
   10.5376   10.5840   -5.3975 C   0  0  0  0  0  0  0  0  0  0  0  0
   10.1587    6.7248   -6.5278 C   0  0  0  0  0  0  0  0  0  0  0  0
    9.2659    7.3243   -7.6240 C   0  0  0  0  0  0  0  0  0  0  0  0
    9.0969    1.8968  -15.2791 C   0  0  0  0  0  0  0  0  0  0  0  0
    7.8229    1.5012  -14.6238 C   0  0  0  0  0  0  0  0  0  0  0  0
    7.6017    0.1453  -14.3108 C   0  0  0  0  0  0  0  0  0  0  0  0
    6.4562   -0.2756  -13.6112 C   0  0  0  0  0  0  0  0  0  0  0  0
    5.5024    0.6697  -13.1942 C   0  0  0  0  0  0  0  0  0  0  0  0
    5.6881    2.0267  -13.5084 C   0  0  0  0  0  0  0  0  0  0  0  0
    6.8210    2.4300  -14.2453 C   0  0  0  0  0  0  0  0  0  0  0  0
    9.5994    1.1194  -16.3502 C   0  0  0  0  0  0  0  0  0  0  0  0
   17.9610    2.1594  -21.0331 H   0  0  0  0  0  0  0  0  0  0  0  0
   18.4113    0.6478  -20.2455 H   0  0  0  0  0  0  0  0  0  0  0  0
   17.4141    0.6302  -21.7126 H   0  0  0  0  0  0  0  0  0  0  0  0
   15.3717    0.1717  -18.6469 H   0  0  0  0  0  0  0  0  0  0  0  0
   16.6989   -0.7008  -19.3658 H   0  0  0  0  0  0  0  0  0  0  0  0
   14.7977   -1.6258  -20.5086 H   0  0  0  0  0  0  0  0  0  0  0  0
   15.3757   -0.4440  -21.6384 H   0  0  0  0  0  0  0  0  0  0  0  0
   13.1372   -1.1867  -19.0538 H   0  0  0  0  0  0  0  0  0  0  0  0
   11.8688   -0.6305  -20.1186 H   0  0  0  0  0  0  0  0  0  0  0  0
   12.3349    1.7626  -19.2212 H   0  0  0  0  0  0  0  0  0  0  0  0
   13.2868    0.9720  -17.9596 H   0  0  0  0  0  0  0  0  0  0  0  0
   12.5259    2.7841  -16.9602 H   0  0  0  0  0  0  0  0  0  0  0  0
   11.7185    4.1249  -15.1272 H   0  0  0  0  0  0  0  0  0  0  0  0
    8.5412    3.3395  -13.3294 H   0  0  0  0  0  0  0  0  0  0  0  0
    7.6994    5.0205  -12.7350 H   0  0  0  0  0  0  0  0  0  0  0  0
    9.2380    7.5392  -12.6468 H   0  0  0  0  0  0  0  0  0  0  0  0
    7.5539    7.3010  -12.2464 H   0  0  0  0  0  0  0  0  0  0  0  0
    8.1562    6.1779  -10.1437 H   0  0  0  0  0  0  0  0  0  0  0  0
    9.8161    6.0180  -10.6482 H   0  0  0  0  0  0  0  0  0  0  0  0
    9.9786    8.5701  -10.6944 H   0  0  0  0  0  0  0  0  0  0  0  0
    8.4861    8.6401   -9.7960 H   0  0  0  0  0  0  0  0  0  0  0  0
   11.7153    9.0053   -9.3032 H   0  0  0  0  0  0  0  0  0  0  0  0
   10.6288    9.6322   -8.0791 H   0  0  0  0  0  0  0  0  0  0  0  0
   12.6522    7.3721   -7.7977 H   0  0  0  0  0  0  0  0  0  0  0  0
   12.7599    8.9365   -7.0331 H   0  0  0  0  0  0  0  0  0  0  0  0
   11.4337    5.7310   -4.3486 H   0  0  0  0  0  0  0  0  0  0  0  0
   12.0821    6.0343   -1.9821 H   0  0  0  0  0  0  0  0  0  0  0  0
   12.6234    8.3184   -1.1279 H   0  0  0  0  0  0  0  0  0  0  0  0
   12.4863   10.2613   -2.6601 H   0  0  0  0  0  0  0  0  0  0  0  0
   10.5488   11.3698   -6.1472 H   0  0  0  0  0  0  0  0  0  0  0  0
    9.9117    9.7721   -5.7622 H   0  0  0  0  0  0  0  0  0  0  0  0
   10.0898   10.9710   -4.4819 H   0  0  0  0  0  0  0  0  0  0  0  0
   10.5605    5.7719   -6.8601 H   0  0  0  0  0  0  0  0  0  0  0  0
    9.5616    6.5395   -5.6349 H   0  0  0  0  0  0  0  0  0  0  0  0
    8.7261    8.1965   -7.2510 H   0  0  0  0  0  0  0  0  0  0  0  0
    8.5093    6.5923   -7.9108 H   0  0  0  0  0  0  0  0  0  0  0  0
    8.3237   -0.5975  -14.6203 H   0  0  0  0  0  0  0  0  0  0  0  0
    6.3199   -1.3238  -13.3915 H   0  0  0  0  0  0  0  0  0  0  0  0
    4.6289    0.3542  -12.6471 H   0  0  0  0  0  0  0  0  0  0  0  0
    4.9509    2.7545  -13.2059 H   0  0  0  0  0  0  0  0  0  0  0  0
    6.9226    3.4738  -14.5025 H   0  0  0  0  0  0  0  0  0  0  0  0
    9.0335    0.2682  -16.6998 H   0  0  0  0  0  0  0  0  0  0  0  0
   10.6424    6.8825   -9.0077 H   0  0  0  0  0  0  0  0  0  0  0  0
  2  1  1  0
  3  2  1  0
  4  3  1  0
  5  4  1  0
  6  5  1  0
  7  6  1  0
  8  7  1  0
  9  8  1  0
 10  9  1  0
 11 10  2  0
 12 11  1  0
 13 12  1  0
 14 13  1  0
 15 14  2  0
 16 14  1  0
 17 16  1  0
 18 17  1  0
 19 18  1  0
 20 19  1  0
 21 20  1  0
 22 21  1  0
 23 22  1  0
 24 23  1  0
 25 24  2  0
 26 25  1  0
 27 26  2  0
 28 27  1  0
 29 24  1  0
 29 28  2  0
 30 29  1  0
 31 30  1  0
 32 23  1  0
 33 20  1  0
 33 32  1  0
 34 12  2  0
 35 34  1  0
 36 35  2  0
 37 36  1  0
 38 37  2  0
 39 38  1  0
 40 35  1  0
 40 39  2  0
 41  9  2  0
 41 34  1  0
 42  1  1  0
 43  1  1  0
 44  1  1  0
 45  3  1  0
 46  3  1  0
 47  4  1  0
 48  4  1  0
 49  6  1  0
 50  6  1  0
 51  7  1  0
 52  7  1  0
 53 10  1  0
 54 11  1  0
 55 13  1  0
 56 16  1  0
 57 17  1  0
 58 17  1  0
 59 18  1  0
 60 18  1  0
 61 19  1  0
 62 19  1  0
 63 21  1  0
 64 21  1  0
 65 22  1  0
 66 22  1  0
 67 25  1  0
 68 26  1  0
 69 27  1  0
 70 28  1  0
 71 31  1  0
 72 31  1  0
 73 31  1  0
 74 32  1  0
 75 32  1  0
 76 33  1  0
 77 33  1  0
 78 36  1  0
 79 37  1  0
 80 38  1  0
 81 39  1  0
 82 40  1  0
 83 41  1  0
 84 20  1  0
M  CHG  1  20   1
M  END
>  <b_m_subgroup_collapsed>  (161) 
0

>  <r_i_docking_score>  (161) 
-8.7491258776201093

>  <s_m_subgroup_title>  (161) 
glide-dock_SP_D22_pv

>  <s_m_subgroupid>  (161) 
glide-dock_SP_D22_pv

>  <Molecule ChEMBL ID>  (161) 
CHEMBL5422870

>  <Standard Type>  (161) 
Ki

>  <Standard Value>  (161) 
74.0

>  <label>  (161) 
1

$$$$
CHEMBL78058
     RDKit          3D

 49 52  0  0  1  0  0  0  0  0999 V2000
   10.9042    8.9723   -8.4912 O   0  0  0  0  0  0  0  0  0  0  0  0
   10.5485    8.1042   -7.6946 C   0  0  0  0  0  0  0  0  0  0  0  0
    9.6944    7.1171   -8.0048 N   0  0  0  0  0  0  0  0  0  0  0  0
    9.0111    6.9516   -9.2844 C   0  0  0  0  0  0  0  0  0  0  0  0
    9.8648    6.1968  -10.3261 C   0  0  0  0  0  0  0  0  0  0  0  0
    9.0573    5.8420  -11.4950 N   0  0  0  0  0  0  0  0  0  0  0  0
    8.3325    4.5901  -11.2536 C   0  0  0  0  0  0  0  0  0  0  0  0
    7.3742    4.2840  -12.4225 C   0  0  0  0  0  0  0  0  0  0  0  0
    8.1108    4.1974  -13.6857 N   0  0  0  0  0  0  0  0  0  0  0  0
    8.4911    2.9355  -14.1950 C   0  0  0  0  0  0  0  0  0  0  0  0
    9.8097    2.6663  -14.6595 C   0  0  0  0  0  0  0  0  0  0  0  0
   10.1871    1.3796  -15.1206 C   0  0  0  0  0  0  0  0  0  0  0  0
    9.2631    0.3145  -15.1220 C   0  0  0  0  0  0  0  0  0  0  0  0
    7.9683    0.6022  -14.6662 C   0  0  0  0  0  0  0  0  0  0  0  0
    6.8762   -0.2280  -14.4757 N   0  0  0  0  0  0  0  0  0  0  0  0
    5.8433    0.4947  -13.8922 C   0  0  0  0  0  0  0  0  0  0  0  0
    4.7692    0.0794  -13.4609 O   0  0  0  0  0  0  0  0  0  0  0  0
    6.2697    1.7919  -13.8424 O   0  0  0  0  0  0  0  0  0  0  0  0
    7.5777    1.8560  -14.2469 C   0  0  0  0  0  0  0  0  0  0  0  0
    8.9469    5.3721  -13.9042 C   0  0  0  0  0  0  0  0  0  0  0  0
    9.8746    5.6414  -12.6945 C   0  0  0  0  0  0  0  0  0  0  0  0
   11.0043    8.1361   -6.2619 C   0  0  0  0  0  0  0  0  0  0  0  0
   11.2428    6.9370   -5.5519 C   0  0  0  0  0  0  0  0  0  0  0  0
   11.6917    6.9699   -4.2179 C   0  0  0  0  0  0  0  0  0  0  0  0
   11.9228    8.1991   -3.5784 C   0  0  0  0  0  0  0  0  0  0  0  0
   12.3593    8.2287   -2.2967 F   0  0  0  0  0  0  0  0  0  0  0  0
   11.6829    9.3980   -4.2726 C   0  0  0  0  0  0  0  0  0  0  0  0
   11.2411    9.3703   -5.6123 C   0  0  0  0  0  0  0  0  0  0  0  0
    9.4214    6.4862   -7.2666 H   0  0  0  0  0  0  0  0  0  0  0  0
    8.0865    6.4155   -9.0759 H   0  0  0  0  0  0  0  0  0  0  0  0
    8.7227    7.9263   -9.6794 H   0  0  0  0  0  0  0  0  0  0  0  0
   10.6862    6.8479  -10.6276 H   0  0  0  0  0  0  0  0  0  0  0  0
   10.3121    5.3058   -9.8879 H   0  0  0  0  0  0  0  0  0  0  0  0
    9.0529    3.7807  -11.1372 H   0  0  0  0  0  0  0  0  0  0  0  0
    7.7571    4.6471  -10.3299 H   0  0  0  0  0  0  0  0  0  0  0  0
    6.8272    3.3728  -12.1896 H   0  0  0  0  0  0  0  0  0  0  0  0
    6.6270    5.0749  -12.5037 H   0  0  0  0  0  0  0  0  0  0  0  0
   10.5704    3.4310  -14.6419 H   0  0  0  0  0  0  0  0  0  0  0  0
   11.2014    1.2060  -15.4512 H   0  0  0  0  0  0  0  0  0  0  0  0
    9.5445   -0.6780  -15.4377 H   0  0  0  0  0  0  0  0  0  0  0  0
    9.5093    5.3055  -14.8354 H   0  0  0  0  0  0  0  0  0  0  0  0
    8.2602    6.2023  -14.0295 H   0  0  0  0  0  0  0  0  0  0  0  0
   10.4666    6.5377  -12.8822 H   0  0  0  0  0  0  0  0  0  0  0  0
   10.5714    4.8144  -12.5538 H   0  0  0  0  0  0  0  0  0  0  0  0
   11.0947    5.9787   -6.0278 H   0  0  0  0  0  0  0  0  0  0  0  0
   11.8682    6.0461   -3.6864 H   0  0  0  0  0  0  0  0  0  0  0  0
   11.8267   10.3368   -3.7635 H   0  0  0  0  0  0  0  0  0  0  0  0
   11.0711   10.2993   -6.1374 H   0  0  0  0  0  0  0  0  0  0  0  0
    6.8463   -1.2263  -14.6383 H   0  0  0  0  0  0  0  0  0  0  0  0
  2  1  2  0
  3  2  1  0
  4  3  1  0
  5  4  1  0
  6  5  1  0
  7  6  1  0
  8  7  1  0
  9  8  1  0
 10  9  1  0
 11 10  1  0
 12 11  2  0
 13 12  1  0
 14 13  2  0
 15 14  1  0
 16 15  1  0
 17 16  2  0
 18 16  1  0
 19 10  2  0
 19 14  1  0
 19 18  1  0
 20  9  1  0
 21  6  1  0
 21 20  1  0
 22  2  1  0
 23 22  1  0
 24 23  2  0
 25 24  1  0
 26 25  1  0
 27 25  2  0
 28 22  2  0
 28 27  1  0
 29  3  1  0
 30  4  1  0
 31  4  1  0
 32  5  1  0
 33  5  1  0
 34  7  1  0
 35  7  1  0
 36  8  1  0
 37  8  1  0
 38 11  1  0
 39 12  1  0
 40 13  1  0
 41 20  1  0
 42 20  1  0
 43 21  1  0
 44 21  1  0
 45 23  1  0
 46 24  1  0
 47 27  1  0
 48 28  1  0
 49 15  1  0
M  END
>  <b_m_subgroup_collapsed>  (162) 
0

>  <r_i_docking_score>  (162) 
-8.7329861573628005

>  <s_m_subgroup_title>  (162) 
glide-dock_SP_D22_pv

>  <s_m_subgroupid>  (162) 
glide-dock_SP_D22_pv

>  <Molecule ChEMBL ID>  (162) 
CHEMBL78058

>  <Standard Type>  (162) 
Ki

>  <Standard Value>  (162) 
4.6

>  <label>  (162) 
1

$$$$
CHEMBL1237021
     RDKit          3D

 72 78  0  0  1  0  0  0  0  0999 V2000
   10.0650    3.9277  -16.5632 O   0  0  0  0  0  0  0  0  0  0  0  0
   10.6524    4.8171  -15.9466 C   0  0  0  0  0  0  0  0  0  0  0  0
   11.3495    5.9708  -16.6586 C   0  0  2  0  0  0  0  0  0  0  0  0
   12.5546    5.5518  -17.5330 C   0  0  1  0  0  0  0  0  0  0  0  0
   13.1096    6.8117  -18.2262 C   0  0  0  0  0  0  0  0  0  0  0  0
   13.7816    7.5669  -17.0607 C   0  0  0  0  0  0  0  0  0  0  0  0
   13.5194    6.6399  -15.8595 C   0  0  2  0  0  0  0  0  0  0  0  0
   13.6565    5.2650  -16.5095 C   0  0  0  0  0  0  0  0  0  0  0  0
   12.0148    6.7343  -15.5055 C   0  0  2  0  0  0  0  0  0  0  0  0
   11.5736    5.9468  -14.2721 C   0  0  0  0  0  0  0  0  0  0  0  0
   11.8861    6.2786  -13.1299 O   0  0  0  0  0  0  0  0  0  0  0  0
   10.7977    4.9052  -14.6132 N   0  0  0  0  0  0  0  0  0  0  0  0
   10.3580    3.8651  -13.6717 C   0  0  0  0  0  0  0  0  0  0  0  0
    8.8997    3.9354  -13.1345 C   0  0  2  0  0  0  0  0  0  0  0  0
    7.8540    3.9687  -14.2480 C   0  0  0  0  0  0  0  0  0  0  0  0
    6.4278    3.7141  -13.7501 C   0  0  0  0  0  0  0  0  0  0  0  0
    6.0416    4.7950  -12.7447 C   0  0  0  0  0  0  0  0  0  0  0  0
    7.0776    4.8904  -11.6217 C   0  0  0  0  0  0  0  0  0  0  0  0
    8.5461    5.0414  -12.0947 C   0  0  1  0  0  0  0  0  0  0  0  0
    9.4757    4.9858  -10.8698 C   0  0  0  0  0  0  0  0  0  0  0  0
    9.1337    5.9778   -9.8153 N   0  0  0  0  0  0  0  0  0  0  0  0
    9.7896    7.2828  -10.0775 C   0  0  0  0  0  0  0  0  0  0  0  0
    9.5490    8.2870   -8.9495 C   0  0  0  0  0  0  0  0  0  0  0  0
    9.9567    7.7155   -7.6593 N   0  0  0  0  0  0  0  0  0  0  0  0
   10.6928    8.4932   -6.7164 C   0  0  0  0  0  0  0  0  0  0  0  0
   10.9055    9.7472   -7.0428 N   0  0  0  0  0  0  0  0  0  0  0  0
   11.6860   10.5679   -5.8467 S   0  0  0  0  0  0  0  0  0  0  0  0
   11.8264    9.2054   -4.7765 C   0  0  0  0  0  0  0  0  0  0  0  0
   12.3857    9.1604   -3.4855 C   0  0  0  0  0  0  0  0  0  0  0  0
   12.4022    7.9498   -2.7793 C   0  0  0  0  0  0  0  0  0  0  0  0
   11.8846    6.7965   -3.3862 C   0  0  0  0  0  0  0  0  0  0  0  0
   11.3263    6.8568   -4.6805 C   0  0  0  0  0  0  0  0  0  0  0  0
   11.2530    8.0655   -5.4236 C   0  0  0  0  0  0  0  0  0  0  0  0
    9.1828    6.5197   -7.3504 C   0  0  0  0  0  0  0  0  0  0  0  0
    9.3986    5.4542   -8.4430 C   0  0  0  0  0  0  0  0  0  0  0  0
   10.6112    6.5558  -17.2091 H   0  0  0  0  0  0  0  0  0  0  0  0
   12.3446    4.7282  -18.2186 H   0  0  0  0  0  0  0  0  0  0  0  0
   12.3306    7.4032  -18.7089 H   0  0  0  0  0  0  0  0  0  0  0  0
   13.8453    6.5474  -18.9865 H   0  0  0  0  0  0  0  0  0  0  0  0
   13.3680    8.5658  -16.9151 H   0  0  0  0  0  0  0  0  0  0  0  0
   14.8516    7.6723  -17.2440 H   0  0  0  0  0  0  0  0  0  0  0  0
   14.1949    6.8198  -15.0260 H   0  0  0  0  0  0  0  0  0  0  0  0
   14.6350    5.0965  -16.9661 H   0  0  0  0  0  0  0  0  0  0  0  0
   13.4394    4.4325  -15.8408 H   0  0  0  0  0  0  0  0  0  0  0  0
   11.6863    7.7669  -15.4199 H   0  0  0  0  0  0  0  0  0  0  0  0
   11.0501    3.8014  -12.8414 H   0  0  0  0  0  0  0  0  0  0  0  0
   10.4834    2.8986  -14.1662 H   0  0  0  0  0  0  0  0  0  0  0  0
    8.8111    2.9732  -12.6465 H   0  0  0  0  0  0  0  0  0  0  0  0
    8.0880    3.2531  -15.0375 H   0  0  0  0  0  0  0  0  0  0  0  0
    7.9009    4.9740  -14.6544 H   0  0  0  0  0  0  0  0  0  0  0  0
    6.3639    2.7254  -13.2915 H   0  0  0  0  0  0  0  0  0  0  0  0
    5.7119    3.7213  -14.5760 H   0  0  0  0  0  0  0  0  0  0  0  0
    5.0646    4.5598  -12.3193 H   0  0  0  0  0  0  0  0  0  0  0  0
    5.9451    5.7580  -13.2487 H   0  0  0  0  0  0  0  0  0  0  0  0
    6.9910    3.9937  -11.0091 H   0  0  0  0  0  0  0  0  0  0  0  0
    6.7946    5.7398  -10.9996 H   0  0  0  0  0  0  0  0  0  0  0  0
    8.6486    6.0134  -12.5793 H   0  0  0  0  0  0  0  0  0  0  0  0
   10.4856    5.1819  -11.2060 H   0  0  0  0  0  0  0  0  0  0  0  0
    9.4889    3.9718  -10.4623 H   0  0  0  0  0  0  0  0  0  0  0  0
    9.4280    7.6943  -11.0209 H   0  0  0  0  0  0  0  0  0  0  0  0
   10.8663    7.1400  -10.1857 H   0  0  0  0  0  0  0  0  0  0  0  0
    8.4899    8.5471   -8.9000 H   0  0  0  0  0  0  0  0  0  0  0  0
   10.0780    9.2046   -9.2067 H   0  0  0  0  0  0  0  0  0  0  0  0
   12.7938   10.0524   -3.0355 H   0  0  0  0  0  0  0  0  0  0  0  0
   12.8118    7.9112   -1.7821 H   0  0  0  0  0  0  0  0  0  0  0  0
   11.9021    5.8566   -2.8532 H   0  0  0  0  0  0  0  0  0  0  0  0
   10.9448    5.9450   -5.0905 H   0  0  0  0  0  0  0  0  0  0  0  0
    9.4189    6.1188   -6.3736 H   0  0  0  0  0  0  0  0  0  0  0  0
    8.1253    6.7890   -7.3096 H   0  0  0  0  0  0  0  0  0  0  0  0
    8.7527    4.5943   -8.2511 H   0  0  0  0  0  0  0  0  0  0  0  0
   10.4266    5.0939   -8.3949 H   0  0  0  0  0  0  0  0  0  0  0  0
    8.1363    6.1506   -9.8625 H   0  0  0  0  0  0  0  0  0  0  0  0
  2  1  2  0
  3  2  1  0
  4  3  1  0
  5  4  1  0
  6  5  1  0
  7  6  1  0
  8  4  1  0
  8  7  1  0
  9  3  1  0
  9  7  1  0
 10  9  1  0
 11 10  2  0
 12  2  1  0
 12 10  1  0
 13 12  1  0
 14 13  1  0
 15 14  1  0
 16 15  1  0
 17 16  1  0
 18 17  1  0
 19 14  1  0
 19 18  1  0
 20 19  1  0
 21 20  1  0
 22 21  1  0
 23 22  1  0
 24 23  1  0
 25 24  1  0
 26 25  2  0
 27 26  1  0
 28 27  1  0
 29 28  2  0
 30 29  1  0
 31 30  2  0
 32 31  1  0
 33 25  1  0
 33 28  1  0
 33 32  2  0
 34 24  1  0
 35 21  1  0
 35 34  1  0
  3 36  1  6
  4 37  1  6
 38  5  1  0
 39  5  1  0
 40  6  1  0
 41  6  1  0
  7 42  1  1
 43  8  1  0
 44  8  1  0
  9 45  1  1
 46 13  1  0
 47 13  1  0
 14 48  1  1
 49 15  1  0
 50 15  1  0
 51 16  1  0
 52 16  1  0
 53 17  1  0
 54 17  1  0
 55 18  1  0
 56 18  1  0
 19 57  1  6
 58 20  1  0
 59 20  1  0
 60 22  1  0
 61 22  1  0
 62 23  1  0
 63 23  1  0
 64 29  1  0
 65 30  1  0
 66 31  1  0
 67 32  1  0
 68 34  1  0
 69 34  1  0
 70 35  1  0
 71 35  1  0
 72 21  1  0
M  CHG  1  21   1
M  END
>  <b_m_subgroup_collapsed>  (163) 
0

>  <r_i_docking_score>  (163) 
-8.7310536808296995

>  <s_m_subgroup_title>  (163) 
glide-dock_SP_D22_pv

>  <s_m_subgroupid>  (163) 
glide-dock_SP_D22_pv

>  <Molecule ChEMBL ID>  (163) 
CHEMBL1237021

>  <Standard Type>  (163) 
Ki

>  <Standard Value>  (163) 
1.7

>  <label>  (163) 
1

$$$$
CHEMBL254203
     RDKit          3D

 72 75  0  0  1  0  0  0  0  0999 V2000
   10.5756    5.7603  -17.4195 C   0  0  0  0  0  0  0  0  0  0  0  0
   10.6366    5.4505  -15.9182 C   0  0  0  0  0  0  0  0  0  0  0  0
    9.2860    4.9797  -15.3433 C   0  0  0  0  0  0  0  0  0  0  0  0
    9.3957    4.3642  -14.0016 N   0  0  1  0  0  0  0  0  0  0  0  0
    9.9638    5.2242  -12.9105 C   0  0  0  0  0  0  0  0  0  0  0  0
    9.0011    6.2647  -12.2883 C   0  0  0  0  0  0  0  0  0  0  0  0
    9.6011    7.1086  -11.1519 C   0  0  0  0  0  0  0  0  0  0  0  0
    9.6725    6.3040   -9.8445 C   0  0  0  0  0  0  0  0  0  0  0  0
    9.7827    7.1347   -8.6495 N   0  0  0  0  0  0  0  0  0  0  0  0
    9.5638    6.2406   -7.5058 C   0  0  0  0  0  0  0  0  0  0  0  0
    9.7012    6.9900   -6.1772 C   0  0  0  0  0  0  0  0  0  0  0  0
   11.0059    7.6308   -6.1031 N   0  0  0  0  0  0  0  0  0  0  0  0
   11.4627    7.9457   -4.8133 C   0  0  0  0  0  0  0  0  0  0  0  0
   11.6862    6.8890   -3.9044 C   0  0  0  0  0  0  0  0  0  0  0  0
   12.0854    7.1464   -2.5818 C   0  0  0  0  0  0  0  0  0  0  0  0
   12.2732    8.4735   -2.1555 C   0  0  0  0  0  0  0  0  0  0  0  0
   12.0789    9.5339   -3.0582 C   0  0  0  0  0  0  0  0  0  0  0  0
   11.6824    9.2753   -4.3866 C   0  0  0  0  0  0  0  0  0  0  0  0
   11.2553    8.5322   -7.2221 C   0  0  0  0  0  0  0  0  0  0  0  0
   11.1114    7.7501   -8.5442 C   0  0  0  0  0  0  0  0  0  0  0  0
    8.2128    3.5446  -13.6152 C   0  0  1  0  0  0  0  0  0  0  0  0
    6.8187    4.2129  -13.6415 C   0  0  0  0  0  0  0  0  0  0  0  0
    5.8140    3.3385  -12.8958 C   0  0  0  0  0  0  0  0  0  0  0  0
    5.7688    1.9385  -13.4843 C   0  0  0  0  0  0  0  0  0  0  0  0
    4.5624    1.2180  -13.4466 C   0  0  0  0  0  0  0  0  0  0  0  0
    4.4729   -0.0702  -13.9986 C   0  0  0  0  0  0  0  0  0  0  0  0
    3.2865   -0.7462  -13.9398 O   0  0  0  0  0  0  0  0  0  0  0  0
    5.6121   -0.6464  -14.5997 C   0  0  0  0  0  0  0  0  0  0  0  0
    5.5486   -1.8917  -15.1463 O   0  0  0  0  0  0  0  0  0  0  0  0
    6.8188    0.0749  -14.6625 C   0  0  0  0  0  0  0  0  0  0  0  0
    6.9007    1.3733  -14.1245 C   0  0  0  0  0  0  0  0  0  0  0  0
    8.2051    2.1493  -14.2830 C   0  0  0  0  0  0  0  0  0  0  0  0
   11.5519    6.0836  -17.7847 H   0  0  0  0  0  0  0  0  0  0  0  0
   10.2843    4.8808  -17.9938 H   0  0  0  0  0  0  0  0  0  0  0  0
    9.8641    6.5542  -17.6453 H   0  0  0  0  0  0  0  0  0  0  0  0
   10.9924    6.3382  -15.3937 H   0  0  0  0  0  0  0  0  0  0  0  0
   11.3898    4.6745  -15.7608 H   0  0  0  0  0  0  0  0  0  0  0  0
    8.8869    4.2396  -16.0334 H   0  0  0  0  0  0  0  0  0  0  0  0
    8.5472    5.7721  -15.2891 H   0  0  0  0  0  0  0  0  0  0  0  0
   10.3003    4.5537  -12.1210 H   0  0  0  0  0  0  0  0  0  0  0  0
   10.8675    5.7229  -13.2540 H   0  0  0  0  0  0  0  0  0  0  0  0
    8.6036    6.9349  -13.0463 H   0  0  0  0  0  0  0  0  0  0  0  0
    8.1453    5.7639  -11.8472 H   0  0  0  0  0  0  0  0  0  0  0  0
   10.5769    7.5053  -11.4337 H   0  0  0  0  0  0  0  0  0  0  0  0
    8.9468    7.9684  -10.9907 H   0  0  0  0  0  0  0  0  0  0  0  0
    8.7447    5.7346   -9.7565 H   0  0  0  0  0  0  0  0  0  0  0  0
   10.4856    5.5768   -9.8772 H   0  0  0  0  0  0  0  0  0  0  0  0
    8.5646    5.8050   -7.5631 H   0  0  0  0  0  0  0  0  0  0  0  0
   10.2767    5.4148   -7.5355 H   0  0  0  0  0  0  0  0  0  0  0  0
    8.9194    7.7450   -6.0736 H   0  0  0  0  0  0  0  0  0  0  0  0
    9.5587    6.2886   -5.3564 H   0  0  0  0  0  0  0  0  0  0  0  0
   11.5393    5.8665   -4.2199 H   0  0  0  0  0  0  0  0  0  0  0  0
   12.2367    6.3253   -1.8964 H   0  0  0  0  0  0  0  0  0  0  0  0
   12.5652    8.6805   -1.1369 H   0  0  0  0  0  0  0  0  0  0  0  0
   12.1928   10.5556   -2.7276 H   0  0  0  0  0  0  0  0  0  0  0  0
   11.5117   10.1061   -5.0557 H   0  0  0  0  0  0  0  0  0  0  0  0
   10.5485    9.3640   -7.1923 H   0  0  0  0  0  0  0  0  0  0  0  0
   12.2605    8.9496   -7.1484 H   0  0  0  0  0  0  0  0  0  0  0  0
   11.8699    6.9735   -8.5874 H   0  0  0  0  0  0  0  0  0  0  0  0
   11.2819    8.4173   -9.3874 H   0  0  0  0  0  0  0  0  0  0  0  0
    8.4027    3.3728  -12.5826 H   0  0  0  0  0  0  0  0  0  0  0  0
    6.7820    5.2236  -13.2519 H   0  0  0  0  0  0  0  0  0  0  0  0
    6.4538    4.2935  -14.6465 H   0  0  0  0  0  0  0  0  0  0  0  0
    4.8229    3.7943  -12.9408 H   0  0  0  0  0  0  0  0  0  0  0  0
    6.0860    3.2704  -11.8417 H   0  0  0  0  0  0  0  0  0  0  0  0
    3.6816    1.6930  -13.0468 H   0  0  0  0  0  0  0  0  0  0  0  0
    2.5350   -0.2132  -13.7220 H   0  0  0  0  0  0  0  0  0  0  0  0
    6.3890   -2.2271  -15.4469 H   0  0  0  0  0  0  0  0  0  0  0  0
    7.6826   -0.3636  -15.1437 H   0  0  0  0  0  0  0  0  0  0  0  0
    9.0223    1.5464  -13.8863 H   0  0  0  0  0  0  0  0  0  0  0  0
    8.3790    2.2311  -15.3545 H   0  0  0  0  0  0  0  0  0  0  0  0
   10.1185    3.6687  -14.1252 H   0  0  0  0  0  0  0  0  0  0  0  0
  2  1  1  0
  3  2  1  0
  4  3  1  0
  5  4  1  0
  6  5  1  0
  7  6  1  0
  8  7  1  0
  9  8  1  0
 10  9  1  0
 11 10  1  0
 12 11  1  0
 13 12  1  0
 14 13  2  0
 15 14  1  0
 16 15  2  0
 17 16  1  0
 18 13  1  0
 18 17  2  0
 19 12  1  0
 20  9  1  0
 20 19  1  0
 21  4  1  0
 22 21  1  0
 23 22  1  0
 24 23  1  0
 25 24  1  0
 26 25  2  0
 27 26  1  0
 28 26  1  0
 29 28  1  0
 30 28  2  0
 31 24  2  0
 31 30  1  0
 32 21  1  0
 32 31  1  0
 33  1  1  0
 34  1  1  0
 35  1  1  0
 36  2  1  0
 37  2  1  0
 38  3  1  0
 39  3  1  0
 40  5  1  0
 41  5  1  0
 42  6  1  0
 43  6  1  0
 44  7  1  0
 45  7  1  0
 46  8  1  0
 47  8  1  0
 48 10  1  0
 49 10  1  0
 50 11  1  0
 51 11  1  0
 52 14  1  0
 53 15  1  0
 54 16  1  0
 55 17  1  0
 56 18  1  0
 57 19  1  0
 58 19  1  0
 59 20  1  0
 60 20  1  0
 21 61  1  1
 62 22  1  0
 63 22  1  0
 64 23  1  0
 65 23  1  0
 66 25  1  0
 67 27  1  0
 68 29  1  0
 69 30  1  0
 70 32  1  0
 71 32  1  0
  4 72  1  6
M  CHG  1   4   1
M  END
>  <b_m_subgroup_collapsed>  (164) 
0

>  <r_i_docking_score>  (164) 
-8.7299658293483002

>  <s_m_subgroup_title>  (164) 
glide-dock_SP_D22_pv

>  <s_m_subgroupid>  (164) 
glide-dock_SP_D22_pv

>  <Molecule ChEMBL ID>  (164) 
CHEMBL254203

>  <Standard Type>  (164) 
Ki

>  <Standard Value>  (164) 
21.7

>  <label>  (164) 
1

$$$$
CHEMBL196169
     RDKit          3D

 62 65  0  0  1  0  0  0  0  0999 V2000
    7.4955    2.2913  -15.0014 C   0  0  0  0  0  0  0  0  0  0  0  0
    8.6090    3.1733  -15.0267 O   0  0  0  0  0  0  0  0  0  0  0  0
    8.7677    4.0629  -13.9801 C   0  0  0  0  0  0  0  0  0  0  0  0
    7.7843    4.2501  -12.9747 C   0  0  0  0  0  0  0  0  0  0  0  0
    7.9782    5.1723  -11.9321 C   0  0  0  0  0  0  0  0  0  0  0  0
    9.1601    5.9321  -11.8637 C   0  0  0  0  0  0  0  0  0  0  0  0
    9.2858    6.8364  -10.7690 N   0  0  0  0  0  0  0  0  0  0  0  0
   10.4083    7.3728  -10.2507 C   0  0  0  0  0  0  0  0  0  0  0  0
   11.4914    7.3738  -10.8393 O   0  0  0  0  0  0  0  0  0  0  0  0
   10.2369    8.0156   -9.0720 N   0  0  0  0  0  0  0  0  0  0  0  0
   11.2829    8.9557   -8.6257 C   0  0  0  0  0  0  0  0  0  0  0  0
   11.1559    9.3710   -7.1538 C   0  0  0  0  0  0  0  0  0  0  0  0
   10.8814    8.2165   -6.3085 N   0  0  0  0  0  0  0  0  0  0  0  0
   11.3495    8.1947   -4.9800 C   0  0  0  0  0  0  0  0  0  0  0  0
   11.6860    6.9651   -4.3706 C   0  0  0  0  0  0  0  0  0  0  0  0
   12.1985    6.9254   -3.0586 C   0  0  0  0  0  0  0  0  0  0  0  0
   12.4019    8.1173   -2.3418 C   0  0  0  0  0  0  0  0  0  0  0  0
   12.0565    9.3440   -2.9303 C   0  0  0  0  0  0  0  0  0  0  0  0
   11.5081    9.3828   -4.2260 C   0  0  0  0  0  0  0  0  0  0  0  0
   11.0876   10.5725   -4.7144 F   0  0  0  0  0  0  0  0  0  0  0  0
    9.8406    7.2761   -6.7227 C   0  0  0  0  0  0  0  0  0  0  0  0
    9.2029    7.6818   -8.0700 C   0  0  0  0  0  0  0  0  0  0  0  0
   10.1313    5.7722  -12.8817 C   0  0  0  0  0  0  0  0  0  0  0  0
    9.9556    4.8401  -13.9334 C   0  0  0  0  0  0  0  0  0  0  0  0
   10.9490    4.6848  -14.9262 N   0  0  0  0  0  0  0  0  0  0  0  0
   11.6079    3.3834  -14.9536 C   0  0  0  0  0  0  0  0  0  0  0  0
   12.2793    3.1561  -16.3190 C   0  0  0  0  0  0  0  0  0  0  0  0
   13.2096    4.2672  -16.6469 N   0  0  0  0  0  0  0  0  0  0  0  0
   13.9263    4.0501  -17.9214 C   0  0  0  0  0  0  0  0  0  0  0  0
   12.5420    5.5936  -16.5820 C   0  0  0  0  0  0  0  0  0  0  0  0
   11.8406    5.8045  -15.2272 C   0  0  0  0  0  0  0  0  0  0  0  0
    7.5395    1.6303  -15.8675 H   0  0  0  0  0  0  0  0  0  0  0  0
    7.5062    1.6653  -14.1079 H   0  0  0  0  0  0  0  0  0  0  0  0
    6.5506    2.8357  -15.0511 H   0  0  0  0  0  0  0  0  0  0  0  0
    6.8625    3.6913  -12.9749 H   0  0  0  0  0  0  0  0  0  0  0  0
    7.2130    5.2900  -11.1777 H   0  0  0  0  0  0  0  0  0  0  0  0
    8.4304    7.0016  -10.2473 H   0  0  0  0  0  0  0  0  0  0  0  0
   11.2858    9.8343   -9.2719 H   0  0  0  0  0  0  0  0  0  0  0  0
   12.2624    8.4875   -8.7400 H   0  0  0  0  0  0  0  0  0  0  0  0
   10.3442   10.0874   -7.0366 H   0  0  0  0  0  0  0  0  0  0  0  0
   12.0768    9.8679   -6.8440 H   0  0  0  0  0  0  0  0  0  0  0  0
   11.5650    6.0400   -4.9121 H   0  0  0  0  0  0  0  0  0  0  0  0
   12.4474    5.9744   -2.6081 H   0  0  0  0  0  0  0  0  0  0  0  0
   12.8021    8.0934   -1.3396 H   0  0  0  0  0  0  0  0  0  0  0  0
   12.1677   10.2592   -2.3682 H   0  0  0  0  0  0  0  0  0  0  0  0
   10.2858    6.2849   -6.8204 H   0  0  0  0  0  0  0  0  0  0  0  0
    9.0730    7.2074   -5.9501 H   0  0  0  0  0  0  0  0  0  0  0  0
    8.5710    8.5605   -7.9285 H   0  0  0  0  0  0  0  0  0  0  0  0
    8.5227    6.8881   -8.3857 H   0  0  0  0  0  0  0  0  0  0  0  0
   11.0293    6.3642  -12.8687 H   0  0  0  0  0  0  0  0  0  0  0  0
   12.3562    3.3717  -14.1608 H   0  0  0  0  0  0  0  0  0  0  0  0
   10.9176    2.5662  -14.7403 H   0  0  0  0  0  0  0  0  0  0  0  0
   12.8192    2.2092  -16.3115 H   0  0  0  0  0  0  0  0  0  0  0  0
   11.5166    3.0776  -17.0958 H   0  0  0  0  0  0  0  0  0  0  0  0
   13.2345    4.0279  -18.7653 H   0  0  0  0  0  0  0  0  0  0  0  0
   14.6526    4.8450  -18.0955 H   0  0  0  0  0  0  0  0  0  0  0  0
   14.4688    3.1043  -17.9001 H   0  0  0  0  0  0  0  0  0  0  0  0
   13.2736    6.3869  -16.7456 H   0  0  0  0  0  0  0  0  0  0  0  0
   11.8094    5.6685  -17.3876 H   0  0  0  0  0  0  0  0  0  0  0  0
   11.2860    6.7425  -15.2496 H   0  0  0  0  0  0  0  0  0  0  0  0
   12.5888    5.8943  -14.4363 H   0  0  0  0  0  0  0  0  0  0  0  0
   13.9142    4.2633  -15.9228 H   0  0  0  0  0  0  0  0  0  0  0  0
  2  1  1  0
  3  2  1  0
  4  3  1  0
  5  4  2  0
  6  5  1  0
  7  6  1  0
  8  7  1  0
  9  8  2  0
 10  8  1  0
 11 10  1  0
 12 11  1  0
 13 12  1  0
 14 13  1  0
 15 14  2  0
 16 15  1  0
 17 16  2  0
 18 17  1  0
 19 14  1  0
 19 18  2  0
 20 19  1  0
 21 13  1  0
 22 10  1  0
 22 21  1  0
 23  6  2  0
 24  3  2  0
 24 23  1  0
 25 24  1  0
 26 25  1  0
 27 26  1  0
 28 27  1  0
 29 28  1  0
 30 28  1  0
 31 25  1  0
 31 30  1  0
 32  1  1  0
 33  1  1  0
 34  1  1  0
 35  4  1  0
 36  5  1  0
 37  7  1  0
 38 11  1  0
 39 11  1  0
 40 12  1  0
 41 12  1  0
 42 15  1  0
 43 16  1  0
 44 17  1  0
 45 18  1  0
 46 21  1  0
 47 21  1  0
 48 22  1  0
 49 22  1  0
 50 23  1  0
 51 26  1  0
 52 26  1  0
 53 27  1  0
 54 27  1  0
 55 29  1  0
 56 29  1  0
 57 29  1  0
 58 30  1  0
 59 30  1  0
 60 31  1  0
 61 31  1  0
 62 28  1  0
M  CHG  1  28   1
M  END
>  <b_m_subgroup_collapsed>  (165) 
0

>  <r_i_docking_score>  (165) 
-8.7137416455915808

>  <s_m_subgroup_title>  (165) 
glide-dock_SP_D22_pv

>  <s_m_subgroupid>  (165) 
glide-dock_SP_D22_pv

>  <Molecule ChEMBL ID>  (165) 
CHEMBL196169

>  <Standard Type>  (165) 
Ki

>  <Standard Value>  (165) 
10000.0

>  <label>  (165) 
0

$$$$
CHEMBL4846472
     RDKit          3D

 55 58  0  0  1  0  0  0  0  0999 V2000
   12.3295    2.8617  -16.7838 C   0  0  0  0  0  0  0  0  0  0  0  0
   11.3660    3.3347  -15.8548 O   0  0  0  0  0  0  0  0  0  0  0  0
   10.3580    2.4764  -15.4678 C   0  0  0  0  0  0  0  0  0  0  0  0
   10.3363    1.0968  -15.7971 C   0  0  0  0  0  0  0  0  0  0  0  0
    9.2708    0.2779  -15.3806 C   0  0  0  0  0  0  0  0  0  0  0  0
    8.2046    0.8274  -14.6468 C   0  0  0  0  0  0  0  0  0  0  0  0
    6.8861   -0.1627  -14.1339 Cl  0  0  0  0  0  0  0  0  0  0  0  0
    8.2197    2.1935  -14.3173 C   0  0  0  0  0  0  0  0  0  0  0  0
    9.2974    3.0172  -14.7018 C   0  0  0  0  0  0  0  0  0  0  0  0
    9.2814    4.4608  -14.3016 C   0  0  2  0  0  0  0  0  0  0  0  0
   10.4275    5.1248  -13.5765 C   0  0  0  0  0  0  0  0  0  0  0  0
    9.1334    4.8439  -12.8437 C   0  0  1  0  0  0  0  0  0  0  0  0
    8.1501    5.9344  -12.4625 C   0  0  0  0  0  0  0  0  0  0  0  0
    8.4860    6.5723  -11.1741 N   0  0  0  0  0  0  0  0  0  0  0  0
    9.6620    7.4636  -11.2219 C   0  0  0  0  0  0  0  0  0  0  0  0
    9.7370    8.3648   -9.9850 C   0  0  0  0  0  0  0  0  0  0  0  0
   11.1752    8.8572   -9.7243 C   0  0  0  0  0  0  0  0  0  0  0  0
   11.2860    9.5307   -8.4766 O   0  0  0  0  0  0  0  0  0  0  0  0
   11.3388    8.8014   -7.3115 C   0  0  0  0  0  0  0  0  0  0  0  0
   11.2064    7.3942   -7.2874 C   0  0  0  0  0  0  0  0  0  0  0  0
   11.2860    6.7004   -6.0799 C   0  0  0  0  0  0  0  0  0  0  0  0
   11.5423    7.3856   -4.8885 C   0  0  0  0  0  0  0  0  0  0  0  0
   11.7586    6.6776   -3.6413 C   0  0  0  0  0  0  0  0  0  0  0  0
   12.0860    7.3209   -2.5138 C   0  0  0  0  0  0  0  0  0  0  0  0
   12.2014    8.7719   -2.4735 C   0  0  0  0  0  0  0  0  0  0  0  0
   12.4860    9.3723   -1.4469 O   0  0  0  0  0  0  0  0  0  0  0  0
   11.9768    9.4185   -3.6432 N   0  0  0  0  0  0  0  0  0  0  0  0
   11.6800    8.7832   -4.8824 C   0  0  0  0  0  0  0  0  0  0  0  0
   11.5594    9.4969   -6.0960 C   0  0  0  0  0  0  0  0  0  0  0  0
   13.0459    3.6546  -16.9980 H   0  0  0  0  0  0  0  0  0  0  0  0
   12.8860    2.0147  -16.3864 H   0  0  0  0  0  0  0  0  0  0  0  0
   11.8615    2.5710  -17.7251 H   0  0  0  0  0  0  0  0  0  0  0  0
   11.1297    0.6372  -16.3659 H   0  0  0  0  0  0  0  0  0  0  0  0
    9.2759   -0.7715  -15.6302 H   0  0  0  0  0  0  0  0  0  0  0  0
    7.3995    2.6096  -13.7512 H   0  0  0  0  0  0  0  0  0  0  0  0
    8.7596    5.0577  -15.0469 H   0  0  0  0  0  0  0  0  0  0  0  0
   11.2900    4.5113  -13.3227 H   0  0  0  0  0  0  0  0  0  0  0  0
   10.6507    6.1598  -13.8260 H   0  0  0  0  0  0  0  0  0  0  0  0
    9.1815    4.0283  -12.1233 H   0  0  0  0  0  0  0  0  0  0  0  0
    8.0860    6.6836  -13.2522 H   0  0  0  0  0  0  0  0  0  0  0  0
    7.1598    5.4863  -12.3726 H   0  0  0  0  0  0  0  0  0  0  0  0
    7.6626    7.1205  -10.8791 H   0  0  0  0  0  0  0  0  0  0  0  0
   10.5520    6.8371  -11.2890 H   0  0  0  0  0  0  0  0  0  0  0  0
    9.6389    8.0840  -12.1192 H   0  0  0  0  0  0  0  0  0  0  0  0
    9.0640    9.2157  -10.1001 H   0  0  0  0  0  0  0  0  0  0  0  0
    9.3559    7.8201   -9.1227 H   0  0  0  0  0  0  0  0  0  0  0  0
   11.9046    8.0482   -9.7857 H   0  0  0  0  0  0  0  0  0  0  0  0
   11.4686    9.5568  -10.5051 H   0  0  0  0  0  0  0  0  0  0  0  0
   11.0636    6.8056   -8.1790 H   0  0  0  0  0  0  0  0  0  0  0  0
   11.2400    5.6336   -6.0919 H   0  0  0  0  0  0  0  0  0  0  0  0
   11.6861    5.6113   -3.6527 H   0  0  0  0  0  0  0  0  0  0  0  0
   12.2764    6.7483   -1.6209 H   0  0  0  0  0  0  0  0  0  0  0  0
   12.0519   10.4243   -3.6339 H   0  0  0  0  0  0  0  0  0  0  0  0
   11.6726   10.5711   -6.1089 H   0  0  0  0  0  0  0  0  0  0  0  0
    8.6216    5.8619  -10.4700 H   0  0  0  0  0  0  0  0  0  0  0  0
  2  1  1  0
  3  2  1  0
  4  3  1  0
  5  4  2  0
  6  5  1  0
  7  6  1  0
  8  6  2  0
  9  3  2  0
  9  8  1  0
 10  9  1  0
 11 10  1  0
 12 10  1  0
 12 11  1  0
 13 12  1  0
 14 13  1  0
 15 14  1  0
 16 15  1  0
 17 16  1  0
 18 17  1  0
 19 18  1  0
 20 19  2  0
 21 20  1  0
 22 21  2  0
 23 22  1  0
 24 23  2  0
 25 24  1  0
 26 25  2  0
 27 25  1  0
 28 22  1  0
 28 27  1  0
 29 19  1  0
 29 28  2  0
 30  1  1  0
 31  1  1  0
 32  1  1  0
 33  4  1  0
 34  5  1  0
 35  8  1  0
 10 36  1  6
 37 11  1  0
 38 11  1  0
 12 39  1  1
 40 13  1  0
 41 13  1  0
 42 14  1  0
 43 15  1  0
 44 15  1  0
 45 16  1  0
 46 16  1  0
 47 17  1  0
 48 17  1  0
 49 20  1  0
 50 21  1  0
 51 23  1  0
 52 24  1  0
 53 27  1  0
 54 29  1  0
 55 14  1  0
M  CHG  1  14   1
M  END
>  <b_m_subgroup_collapsed>  (166) 
0

>  <r_i_docking_score>  (166) 
-8.7127465959664505

>  <s_m_subgroup_title>  (166) 
glide-dock_SP_D22_pv

>  <s_m_subgroupid>  (166) 
glide-dock_SP_D22_pv

>  <Molecule ChEMBL ID>  (166) 
CHEMBL4846472

>  <Standard Type>  (166) 
Ki

>  <Standard Value>  (166) 
32.9

>  <label>  (166) 
1

$$$$
CHEMBL5434856
     RDKit          3D

 52 55  0  0  1  0  0  0  0  0999 V2000
   13.8631    5.1545  -16.6470 C   0  0  0  0  0  0  0  0  0  0  0  0
   12.8860    4.1723  -16.3286 O   0  0  0  0  0  0  0  0  0  0  0  0
   12.0101    4.4479  -15.3019 C   0  0  0  0  0  0  0  0  0  0  0  0
   12.1038    5.5712  -14.4484 C   0  0  0  0  0  0  0  0  0  0  0  0
   11.1348    5.7555  -13.4469 C   0  0  0  0  0  0  0  0  0  0  0  0
   10.0870    4.8162  -13.3251 C   0  0  0  0  0  0  0  0  0  0  0  0
    8.9358    4.9825  -12.3291 C   0  0  1  0  0  0  0  0  0  0  0  0
    9.3303    4.9786  -10.8412 C   0  0  0  0  0  0  0  0  0  0  0  0
    9.8166    6.3447  -10.3205 C   0  0  0  0  0  0  0  0  0  0  0  0
    8.8860    7.4536  -10.6739 N   0  0  1  0  0  0  0  0  0  0  0  0
    9.2851    8.7872  -10.1657 C   0  0  0  0  0  0  0  0  0  0  0  0
    9.4435    8.8488   -8.6391 C   0  0  0  0  0  0  0  0  0  0  0  0
   10.9265    8.8607   -8.2567 C   0  0  0  0  0  0  0  0  0  0  0  0
   11.1538    8.7739   -6.7953 C   0  0  0  0  0  0  0  0  0  0  0  0
   11.1743    7.5992   -6.1636 N   0  0  0  0  0  0  0  0  0  0  0  0
   11.5093    7.7952   -4.8315 C   0  0  0  0  0  0  0  0  0  0  0  0
   11.6860    6.7917   -3.8638 C   0  0  0  0  0  0  0  0  0  0  0  0
   12.0860    7.0964   -2.5528 C   0  0  0  0  0  0  0  0  0  0  0  0
   12.2914    8.4360   -2.1747 C   0  0  0  0  0  0  0  0  0  0  0  0
   12.0859    9.4659   -3.1098 C   0  0  0  0  0  0  0  0  0  0  0  0
   11.7054    9.1452   -4.4266 C   0  0  0  0  0  0  0  0  0  0  0  0
   11.3988   10.2046   -5.7959 S   0  0  0  0  0  0  0  0  0  0  0  0
    8.5720    7.5144  -12.1191 C   0  0  0  0  0  0  0  0  0  0  0  0
    8.0258    6.1776  -12.6469 C   0  0  0  0  0  0  0  0  0  0  0  0
    9.9997    3.7352  -14.1295 N   0  0  0  0  0  0  0  0  0  0  0  0
   10.9411    3.5569  -15.0802 C   0  0  0  0  0  0  0  0  0  0  0  0
   14.4770    4.7954  -17.4728 H   0  0  0  0  0  0  0  0  0  0  0  0
   13.3942    6.0872  -16.9636 H   0  0  0  0  0  0  0  0  0  0  0  0
   14.5298    5.3599  -15.8085 H   0  0  0  0  0  0  0  0  0  0  0  0
   12.8961    6.2983  -14.5426 H   0  0  0  0  0  0  0  0  0  0  0  0
   11.2161    6.6184  -12.8110 H   0  0  0  0  0  0  0  0  0  0  0  0
    8.3135    4.0951  -12.4630 H   0  0  0  0  0  0  0  0  0  0  0  0
    8.4465    4.7064  -10.2610 H   0  0  0  0  0  0  0  0  0  0  0  0
   10.0650    4.1978  -10.6412 H   0  0  0  0  0  0  0  0  0  0  0  0
   10.8136    6.5723  -10.6931 H   0  0  0  0  0  0  0  0  0  0  0  0
    9.9134    6.2675   -9.2378 H   0  0  0  0  0  0  0  0  0  0  0  0
   10.2033    9.1002  -10.6633 H   0  0  0  0  0  0  0  0  0  0  0  0
    8.5107    9.5010  -10.4532 H   0  0  0  0  0  0  0  0  0  0  0  0
    8.9702    9.7521   -8.2530 H   0  0  0  0  0  0  0  0  0  0  0  0
    8.9146    8.0251   -8.1565 H   0  0  0  0  0  0  0  0  0  0  0  0
   11.4588    8.0351   -8.7293 H   0  0  0  0  0  0  0  0  0  0  0  0
   11.3915    9.7723   -8.6282 H   0  0  0  0  0  0  0  0  0  0  0  0
   11.5237    5.7722   -4.1566 H   0  0  0  0  0  0  0  0  0  0  0  0
   12.2310    6.2932   -1.8468 H   0  0  0  0  0  0  0  0  0  0  0  0
   12.5889    8.6786   -1.1646 H   0  0  0  0  0  0  0  0  0  0  0  0
   12.2181   10.4965   -2.8138 H   0  0  0  0  0  0  0  0  0  0  0  0
    9.4634    7.8365  -12.6469 H   0  0  0  0  0  0  0  0  0  0  0  0
    7.8201    8.2863  -12.2922 H   0  0  0  0  0  0  0  0  0  0  0  0
    7.8517    6.2290  -13.7195 H   0  0  0  0  0  0  0  0  0  0  0  0
    7.0513    6.0088  -12.1850 H   0  0  0  0  0  0  0  0  0  0  0  0
   10.8269    2.6799  -15.7003 H   0  0  0  0  0  0  0  0  0  0  0  0
    7.9657    7.2949  -10.2469 H   0  0  0  0  0  0  0  0  0  0  0  0
  2  1  1  0
  3  2  1  0
  4  3  2  0
  5  4  1  0
  6  5  2  0
  7  6  1  0
  8  7  1  0
  9  8  1  0
 10  9  1  0
 11 10  1  0
 12 11  1  0
 13 12  1  0
 14 13  1  0
 15 14  2  0
 16 15  1  0
 17 16  2  0
 18 17  1  0
 19 18  2  0
 20 19  1  0
 21 16  1  0
 21 20  2  0
 22 14  1  0
 22 21  1  0
 23 10  1  0
 24  7  1  0
 24 23  1  0
 25  6  1  0
 26  3  1  0
 26 25  2  0
 27  1  1  0
 28  1  1  0
 29  1  1  0
 30  4  1  0
 31  5  1  0
  7 32  1  1
 33  8  1  0
 34  8  1  0
 35  9  1  0
 36  9  1  0
 37 11  1  0
 38 11  1  0
 39 12  1  0
 40 12  1  0
 41 13  1  0
 42 13  1  0
 43 17  1  0
 44 18  1  0
 45 19  1  0
 46 20  1  0
 47 23  1  0
 48 23  1  0
 49 24  1  0
 50 24  1  0
 51 26  1  0
 10 52  1  1
M  CHG  1  10   1
M  END
>  <b_m_subgroup_collapsed>  (167) 
0

>  <r_i_docking_score>  (167) 
-8.7064076723462005

>  <s_m_subgroup_title>  (167) 
glide-dock_SP_D22_pv

>  <s_m_subgroupid>  (167) 
glide-dock_SP_D22_pv

>  <Molecule ChEMBL ID>  (167) 
CHEMBL5434856

>  <Standard Type>  (167) 
Ki

>  <Standard Value>  (167) 
17400.0

>  <label>  (167) 
0

$$$$
CHEMBL2387229
     RDKit          3D

 61 65  0  0  1  0  0  0  0  0999 V2000
   10.3922   -1.2302  -17.9691 C   0  0  0  0  0  0  0  0  0  0  0  0
   11.1749    0.0643  -17.8468 C   0  0  0  0  0  0  0  0  0  0  0  0
   12.1463    0.3898  -18.7226 C   0  0  0  0  0  0  0  0  0  0  0  0
   12.8833    1.6719  -18.6455 C   0  0  0  0  0  0  0  0  0  0  0  0
   13.7952    1.9507  -19.4208 O   0  0  0  0  0  0  0  0  0  0  0  0
   12.4931    2.5272  -17.6472 O   0  0  0  0  0  0  0  0  0  0  0  0
   11.5027    2.2299  -16.7326 C   0  0  0  0  0  0  0  0  0  0  0  0
   11.1588    3.1931  -15.7593 C   0  0  0  0  0  0  0  0  0  0  0  0
   11.9768    4.7168  -15.7223 Cl  0  0  0  0  0  0  0  0  0  0  0  0
   10.1258    2.9392  -14.8303 C   0  0  0  0  0  0  0  0  0  0  0  0
    9.7580    3.9569  -13.9777 O   0  0  0  0  0  0  0  0  0  0  0  0
    8.4237    3.9351  -13.4818 C   0  0  0  0  0  0  0  0  0  0  0  0
    7.9345    5.3717  -13.2866 C   0  0  0  0  0  0  0  0  0  0  0  0
    8.6545    6.1426  -12.1748 C   0  0  0  0  0  0  0  0  0  0  0  0
    8.4206    5.5596  -10.7668 C   0  0  0  0  0  0  0  0  0  0  0  0
    8.8862    6.4582   -9.6777 N   0  0  2  0  0  0  0  0  0  0  0  0
   10.3437    6.7443   -9.7537 C   0  0  0  0  0  0  0  0  0  0  0  0
   10.7922    7.7366   -8.6777 C   0  0  0  0  0  0  0  0  0  0  0  0
   10.3948    7.2671   -7.2667 C   0  0  1  0  0  0  0  0  0  0  0  0
   10.7813    8.2825   -6.2248 C   0  0  0  0  0  0  0  0  0  0  0  0
   10.5565    9.5743   -6.4317 N   0  0  0  0  0  0  0  0  0  0  0  0
   11.0027   10.2824   -5.2835 O   0  0  0  0  0  0  0  0  0  0  0  0
   11.4822    9.3822   -4.3489 C   0  0  0  0  0  0  0  0  0  0  0  0
   12.0002    9.5678   -3.0643 C   0  0  0  0  0  0  0  0  0  0  0  0
   12.3799    8.4221   -2.3391 C   0  0  0  0  0  0  0  0  0  0  0  0
   12.8854    8.5688   -1.0951 F   0  0  0  0  0  0  0  0  0  0  0  0
   12.2137    7.1327   -2.8998 C   0  0  0  0  0  0  0  0  0  0  0  0
   11.6867    6.9741   -4.2045 C   0  0  0  0  0  0  0  0  0  0  0  0
   11.3302    8.1266   -4.9373 C   0  0  0  0  0  0  0  0  0  0  0  0
    8.8946    6.9499   -7.2290 C   0  0  0  0  0  0  0  0  0  0  0  0
    8.5251    5.9455   -8.3314 C   0  0  0  0  0  0  0  0  0  0  0  0
    9.5037    1.6689  -14.8286 C   0  0  0  0  0  0  0  0  0  0  0  0
    9.8442    0.7049  -15.7918 C   0  0  0  0  0  0  0  0  0  0  0  0
   10.8216    0.9940  -16.7683 C   0  0  0  0  0  0  0  0  0  0  0  0
   10.4860   -1.8263  -17.0628 H   0  0  0  0  0  0  0  0  0  0  0  0
    9.3345   -1.0286  -18.1409 H   0  0  0  0  0  0  0  0  0  0  0  0
   10.7565   -1.8205  -18.8092 H   0  0  0  0  0  0  0  0  0  0  0  0
   12.4095   -0.2844  -19.5250 H   0  0  0  0  0  0  0  0  0  0  0  0
    7.7336    3.4498  -14.1743 H   0  0  0  0  0  0  0  0  0  0  0  0
    8.3935    3.3768  -12.5482 H   0  0  0  0  0  0  0  0  0  0  0  0
    8.0868    5.9003  -14.2270 H   0  0  0  0  0  0  0  0  0  0  0  0
    6.8594    5.3735  -13.0928 H   0  0  0  0  0  0  0  0  0  0  0  0
    9.7162    6.1690  -12.4183 H   0  0  0  0  0  0  0  0  0  0  0  0
    8.3063    7.1740  -12.1998 H   0  0  0  0  0  0  0  0  0  0  0  0
    7.3528    5.3815  -10.6445 H   0  0  0  0  0  0  0  0  0  0  0  0
    8.9138    4.5950  -10.6650 H   0  0  0  0  0  0  0  0  0  0  0  0
   10.8858    5.8096   -9.6315 H   0  0  0  0  0  0  0  0  0  0  0  0
   10.6190    7.1631  -10.7187 H   0  0  0  0  0  0  0  0  0  0  0  0
   11.8731    7.8788   -8.7355 H   0  0  0  0  0  0  0  0  0  0  0  0
   10.3457    8.7065   -8.8999 H   0  0  0  0  0  0  0  0  0  0  0  0
   10.9361    6.3438   -7.0606 H   0  0  0  0  0  0  0  0  0  0  0  0
   12.0885   10.5561   -2.6444 H   0  0  0  0  0  0  0  0  0  0  0  0
   12.4925    6.2591   -2.3286 H   0  0  0  0  0  0  0  0  0  0  0  0
   11.5625    5.9887   -4.6286 H   0  0  0  0  0  0  0  0  0  0  0  0
    8.6272    6.5402   -6.2551 H   0  0  0  0  0  0  0  0  0  0  0  0
    8.3140    7.8643   -7.3450 H   0  0  0  0  0  0  0  0  0  0  0  0
    7.4611    5.7461   -8.2795 H   0  0  0  0  0  0  0  0  0  0  0  0
    9.0225    4.9928   -8.1578 H   0  0  0  0  0  0  0  0  0  0  0  0
    8.7463    1.4185  -14.1003 H   0  0  0  0  0  0  0  0  0  0  0  0
    9.3263   -0.2427  -15.7804 H   0  0  0  0  0  0  0  0  0  0  0  0
    8.3477    7.3105   -9.8041 H   0  0  0  0  0  0  0  0  0  0  0  0
  2  1  1  0
  3  2  2  0
  4  3  1  0
  5  4  2  0
  6  4  1  0
  7  6  1  0
  8  7  2  0
  9  8  1  0
 10  8  1  0
 11 10  1  0
 12 11  1  0
 13 12  1  0
 14 13  1  0
 15 14  1  0
 16 15  1  0
 17 16  1  0
 18 17  1  0
 19 18  1  0
 20 19  1  0
 21 20  2  0
 22 21  1  0
 23 22  1  0
 24 23  2  0
 25 24  1  0
 26 25  1  0
 27 25  2  0
 28 27  1  0
 29 20  1  0
 29 23  1  0
 29 28  2  0
 30 19  1  0
 31 16  1  0
 31 30  1  0
 32 10  2  0
 33 32  1  0
 34  2  1  0
 34  7  1  0
 34 33  2  0
 35  1  1  0
 36  1  1  0
 37  1  1  0
 38  3  1  0
 39 12  1  0
 40 12  1  0
 41 13  1  0
 42 13  1  0
 43 14  1  0
 44 14  1  0
 45 15  1  0
 46 15  1  0
 47 17  1  0
 48 17  1  0
 49 18  1  0
 50 18  1  0
 19 51  1  1
 52 24  1  0
 53 27  1  0
 54 28  1  0
 55 30  1  0
 56 30  1  0
 57 31  1  0
 58 31  1  0
 59 32  1  0
 60 33  1  0
 16 61  1  6
M  CHG  1  16   1
M  END
>  <b_m_subgroup_collapsed>  (168) 
0

>  <r_i_docking_score>  (168) 
-8.7051691037756296

>  <s_m_subgroup_title>  (168) 
glide-dock_SP_D22_pv

>  <s_m_subgroupid>  (168) 
glide-dock_SP_D22_pv

>  <Molecule ChEMBL ID>  (168) 
CHEMBL2387229

>  <Standard Type>  (168) 
Ki

>  <Standard Value>  (168) 
2.6

>  <label>  (168) 
1

$$$$
CHEMBL4071189
     RDKit          3D

 67 71  0  0  1  0  0  0  0  0999 V2000
   11.8256   10.7238   -6.2213 C   0  0  0  0  0  0  0  0  0  0  0  0
   11.1623   10.4675   -4.9894 O   0  0  0  0  0  0  0  0  0  0  0  0
   11.5224    9.2944   -4.3672 C   0  0  0  0  0  0  0  0  0  0  0  0
   12.0855    9.3831   -3.0805 C   0  0  0  0  0  0  0  0  0  0  0  0
   12.4581    8.2275   -2.3786 C   0  0  0  0  0  0  0  0  0  0  0  0
   12.2586    6.9711   -2.9723 C   0  0  0  0  0  0  0  0  0  0  0  0
   11.6863    6.8832   -4.2550 C   0  0  0  0  0  0  0  0  0  0  0  0
   11.2861    8.0342   -4.9751 C   0  0  0  0  0  0  0  0  0  0  0  0
   10.6265    8.0084   -6.2222 N   0  0  0  0  0  0  0  0  0  0  0  0
    9.3223    7.3825   -6.2781 C   0  0  0  0  0  0  0  0  0  0  0  0
    9.6395    7.1987   -7.7666 C   0  0  0  0  0  0  0  0  0  0  0  0
    9.0912    5.9418   -8.4316 C   0  0  0  0  0  0  0  0  0  0  0  0
    9.6580    5.7846   -9.8398 C   0  0  0  0  0  0  0  0  0  0  0  0
    9.2768    6.9203  -10.7138 N   0  0  0  0  0  0  0  0  0  0  0  0
    9.7659    6.7860  -12.1143 C   0  0  0  0  0  0  0  0  0  0  0  0
    9.2733    5.5311  -12.8700 C   0  0  0  0  0  0  0  0  0  0  0  0
   10.1917    4.2878  -12.7751 C   0  0  0  0  0  0  0  0  0  0  0  0
   10.2178    3.2359  -14.2639 S   0  0  0  0  0  0  0  0  0  0  0  0
    8.5802    2.5789  -14.2507 C   0  0  0  0  0  0  0  0  0  0  0  0
    7.5127    3.2632  -13.8469 N   0  0  0  0  0  0  0  0  0  0  0  0
    6.4479    2.4353  -14.0570 N   0  0  0  0  0  0  0  0  0  0  0  0
    6.9385    1.3182  -14.6035 C   0  0  0  0  0  0  0  0  0  0  0  0
    6.0322    0.2686  -15.0617 C   0  0  0  0  0  0  0  0  0  0  0  0
    6.1375   -0.2507  -16.3700 C   0  0  0  0  0  0  0  0  0  0  0  0
    5.1736   -1.1578  -16.8536 C   0  0  0  0  0  0  0  0  0  0  0  0
    4.0915   -1.5369  -16.0367 C   0  0  0  0  0  0  0  0  0  0  0  0
    3.9807   -1.0240  -14.7309 C   0  0  0  0  0  0  0  0  0  0  0  0
    4.9512   -0.1283  -14.2434 C   0  0  0  0  0  0  0  0  0  0  0  0
    8.2892    1.3421  -14.7052 N   0  0  0  0  0  0  0  0  0  0  0  0
    9.2142    0.3285  -15.1850 C   0  0  0  0  0  0  0  0  0  0  0  0
    9.7072    8.2135  -10.1258 C   0  0  0  0  0  0  0  0  0  0  0  0
    9.2259    8.3746   -8.6757 C   0  0  0  0  0  0  0  0  0  0  0  0
   11.1051    7.1531   -7.2873 C   0  0  0  0  0  0  0  0  0  0  0  0
   11.7348   11.7734   -6.4565 H   0  0  0  0  0  0  0  0  0  0  0  0
   12.8856   10.4733   -6.1705 H   0  0  0  0  0  0  0  0  0  0  0  0
   11.3813   10.2054   -7.0666 H   0  0  0  0  0  0  0  0  0  0  0  0
   12.2294   10.3561   -2.6310 H   0  0  0  0  0  0  0  0  0  0  0  0
   12.8865    8.3038   -1.3910 H   0  0  0  0  0  0  0  0  0  0  0  0
   12.5313    6.0707   -2.4414 H   0  0  0  0  0  0  0  0  0  0  0  0
   11.5140    5.9039   -4.6752 H   0  0  0  0  0  0  0  0  0  0  0  0
    8.4868    8.0555   -6.0888 H   0  0  0  0  0  0  0  0  0  0  0  0
    9.2694    6.4504   -5.7122 H   0  0  0  0  0  0  0  0  0  0  0  0
    8.0025    5.9684   -8.4719 H   0  0  0  0  0  0  0  0  0  0  0  0
    9.3460    5.0577   -7.8455 H   0  0  0  0  0  0  0  0  0  0  0  0
    9.2945    4.8427  -10.2390 H   0  0  0  0  0  0  0  0  0  0  0  0
   10.7436    5.7561   -9.7879 H   0  0  0  0  0  0  0  0  0  0  0  0
   10.8543    6.8540  -12.1513 H   0  0  0  0  0  0  0  0  0  0  0  0
    9.3959    7.6632  -12.6467 H   0  0  0  0  0  0  0  0  0  0  0  0
    9.1928    5.7755  -13.9294 H   0  0  0  0  0  0  0  0  0  0  0  0
    8.2580    5.3013  -12.5481 H   0  0  0  0  0  0  0  0  0  0  0  0
    9.9504    3.6607  -11.9190 H   0  0  0  0  0  0  0  0  0  0  0  0
   11.2238    4.6121  -12.6510 H   0  0  0  0  0  0  0  0  0  0  0  0
    6.9389    0.0621  -17.0219 H   0  0  0  0  0  0  0  0  0  0  0  0
    5.2547   -1.5506  -17.8569 H   0  0  0  0  0  0  0  0  0  0  0  0
    3.3482   -2.2265  -16.4117 H   0  0  0  0  0  0  0  0  0  0  0  0
    3.1441   -1.3120  -14.1131 H   0  0  0  0  0  0  0  0  0  0  0  0
    4.8444    0.2891  -13.2516 H   0  0  0  0  0  0  0  0  0  0  0  0
    9.6933    0.6651  -16.1075 H   0  0  0  0  0  0  0  0  0  0  0  0
    9.9822    0.1502  -14.4274 H   0  0  0  0  0  0  0  0  0  0  0  0
    8.6991   -0.6138  -15.3705 H   0  0  0  0  0  0  0  0  0  0  0  0
   10.7964    8.2913  -10.1608 H   0  0  0  0  0  0  0  0  0  0  0  0
    9.3109    9.0314  -10.7280 H   0  0  0  0  0  0  0  0  0  0  0  0
    8.1459    8.5014   -8.6477 H   0  0  0  0  0  0  0  0  0  0  0  0
    9.6077    9.3183   -8.2902 H   0  0  0  0  0  0  0  0  0  0  0  0
   11.4332    6.1680   -6.9512 H   0  0  0  0  0  0  0  0  0  0  0  0
   11.8248    7.6299   -7.9539 H   0  0  0  0  0  0  0  0  0  0  0  0
    8.2606    6.9582  -10.7294 H   0  0  0  0  0  0  0  0  0  0  0  0
  2  1  1  0
  3  2  1  0
  4  3  2  0
  5  4  1  0
  6  5  2  0
  7  6  1  0
  8  3  1  0
  8  7  2  0
  9  8  1  0
 10  9  1  0
 11 10  1  0
 12 11  1  0
 13 12  1  0
 14 13  1  0
 15 14  1  0
 16 15  1  0
 17 16  1  0
 18 17  1  0
 19 18  1  0
 20 19  2  0
 21 20  1  0
 22 21  2  0
 23 22  1  0
 24 23  2  0
 25 24  1  0
 26 25  2  0
 27 26  1  0
 28 23  1  0
 28 27  2  0
 29 19  1  0
 29 22  1  0
 30 29  1  0
 31 14  1  0
 32 11  1  0
 32 31  1  0
 33  9  1  0
 33 11  1  0
 34  1  1  0
 35  1  1  0
 36  1  1  0
 37  4  1  0
 38  5  1  0
 39  6  1  0
 40  7  1  0
 41 10  1  0
 42 10  1  0
 43 12  1  0
 44 12  1  0
 45 13  1  0
 46 13  1  0
 47 15  1  0
 48 15  1  0
 49 16  1  0
 50 16  1  0
 51 17  1  0
 52 17  1  0
 53 24  1  0
 54 25  1  0
 55 26  1  0
 56 27  1  0
 57 28  1  0
 58 30  1  0
 59 30  1  0
 60 30  1  0
 61 31  1  0
 62 31  1  0
 63 32  1  0
 64 32  1  0
 65 33  1  0
 66 33  1  0
 67 14  1  0
M  CHG  1  14   1
M  END
>  <b_m_subgroup_collapsed>  (169) 
0

>  <r_i_docking_score>  (169) 
-8.6988418529891298

>  <s_m_subgroup_title>  (169) 
glide-dock_SP_D22_pv

>  <s_m_subgroupid>  (169) 
glide-dock_SP_D22_pv

>  <Molecule ChEMBL ID>  (169) 
CHEMBL4071189

>  <Standard Type>  (169) 
Ki

>  <Standard Value>  (169) 
37579.0

>  <label>  (169) 
0

$$$$
CHEMBL77744
     RDKit          3D

 57 60  0  0  1  0  0  0  0  0999 V2000
   11.9099    8.4225   -3.0092 C   0  0  0  0  0  0  0  0  0  0  0  0
   11.6869    9.6773   -3.6068 C   0  0  0  0  0  0  0  0  0  0  0  0
   11.2861    9.7649   -4.9549 C   0  0  0  0  0  0  0  0  0  0  0  0
   11.0882    8.5857   -5.7012 C   0  0  0  0  0  0  0  0  0  0  0  0
   10.7154    8.6335   -7.1692 C   0  0  0  0  0  0  0  0  0  0  0  0
    9.2091    8.3851   -7.4266 C   0  0  0  0  0  0  0  0  0  0  0  0
    8.9376    7.6847   -8.7054 N   0  0  2  0  0  0  0  0  0  0  0  0
    9.3014    6.2462   -8.6313 C   0  0  0  0  0  0  0  0  0  0  0  0
    8.8860    5.5171   -9.9025 C   0  0  0  0  0  0  0  0  0  0  0  0
    9.5169    6.1617  -11.1455 C   0  0  1  0  0  0  0  0  0  0  0  0
    9.1676    5.3557  -12.3511 C   0  0  0  0  0  0  0  0  0  0  0  0
    9.9266    4.5196  -13.1181 C   0  0  0  0  0  0  0  0  0  0  0  0
    8.9864    3.8727  -13.9778 C   0  0  0  0  0  0  0  0  0  0  0  0
    9.2280    2.7647  -14.9791 C   0  0  0  0  0  0  0  0  0  0  0  0
   10.7353    2.5181  -15.2140 C   0  0  0  0  0  0  0  0  0  0  0  0
   10.9836    1.3731  -16.2072 C   0  0  0  0  0  0  0  0  0  0  0  0
   10.3194    0.0799  -15.7144 C   0  0  0  0  0  0  0  0  0  0  0  0
    8.8145    0.2873  -15.4924 C   0  0  0  0  0  0  0  0  0  0  0  0
    8.5424    1.4556  -14.5266 C   0  0  0  0  0  0  0  0  0  0  0  0
    7.7566    4.3383  -13.8052 N   0  0  0  0  0  0  0  0  0  0  0  0
    7.8778    5.2354  -12.8118 N   0  0  0  0  0  0  0  0  0  0  0  0
    9.1429    7.6474  -11.2257 C   0  0  0  0  0  0  0  0  0  0  0  0
    9.4879    8.3746   -9.9089 C   0  0  0  0  0  0  0  0  0  0  0  0
   11.2864    7.3287   -5.0914 C   0  0  0  0  0  0  0  0  0  0  0  0
   11.6994    7.2453   -3.7493 C   0  0  0  0  0  0  0  0  0  0  0  0
   12.2266    8.3659   -1.9774 H   0  0  0  0  0  0  0  0  0  0  0  0
   11.8415   10.5730   -3.0260 H   0  0  0  0  0  0  0  0  0  0  0  0
   11.1365   10.7338   -5.4096 H   0  0  0  0  0  0  0  0  0  0  0  0
   11.0072    9.5996   -7.5839 H   0  0  0  0  0  0  0  0  0  0  0  0
   11.3452    7.9014   -7.6727 H   0  0  0  0  0  0  0  0  0  0  0  0
    8.7703    7.7991   -6.6177 H   0  0  0  0  0  0  0  0  0  0  0  0
    8.6742    9.3339   -7.4406 H   0  0  0  0  0  0  0  0  0  0  0  0
   10.3721    6.1163   -8.4737 H   0  0  0  0  0  0  0  0  0  0  0  0
    8.7984    5.7854   -7.7792 H   0  0  0  0  0  0  0  0  0  0  0  0
    9.1843    4.4704   -9.8289 H   0  0  0  0  0  0  0  0  0  0  0  0
    7.7964    5.5218   -9.9874 H   0  0  0  0  0  0  0  0  0  0  0  0
   10.5980    6.1720  -11.0275 H   0  0  0  0  0  0  0  0  0  0  0  0
   10.9863    4.3408  -13.0356 H   0  0  0  0  0  0  0  0  0  0  0  0
    8.7890    3.0592  -15.9334 H   0  0  0  0  0  0  0  0  0  0  0  0
   11.2130    3.4267  -15.5798 H   0  0  0  0  0  0  0  0  0  0  0  0
   11.2228    2.2721  -14.2698 H   0  0  0  0  0  0  0  0  0  0  0  0
   10.5922    1.6424  -17.1902 H   0  0  0  0  0  0  0  0  0  0  0  0
   12.0555    1.2161  -16.3322 H   0  0  0  0  0  0  0  0  0  0  0  0
   10.4846   -0.7246  -16.4335 H   0  0  0  0  0  0  0  0  0  0  0  0
   10.7875   -0.2306  -14.7788 H   0  0  0  0  0  0  0  0  0  0  0  0
    8.3266    0.4821  -16.4483 H   0  0  0  0  0  0  0  0  0  0  0  0
    8.3676   -0.6271  -15.0981 H   0  0  0  0  0  0  0  0  0  0  0  0
    8.8849    1.1829  -13.5294 H   0  0  0  0  0  0  0  0  0  0  0  0
    7.4651    1.6068  -14.4419 H   0  0  0  0  0  0  0  0  0  0  0  0
    7.0778    5.7157  -12.4189 H   0  0  0  0  0  0  0  0  0  0  0  0
    9.6717    8.1219  -12.0539 H   0  0  0  0  0  0  0  0  0  0  0  0
    8.0868    7.7525  -11.4516 H   0  0  0  0  0  0  0  0  0  0  0  0
    9.0911    9.3896   -9.9453 H   0  0  0  0  0  0  0  0  0  0  0  0
   10.5720    8.4618   -9.8329 H   0  0  0  0  0  0  0  0  0  0  0  0
   11.1379    6.4186   -5.6564 H   0  0  0  0  0  0  0  0  0  0  0  0
   11.8595    6.2780   -3.2925 H   0  0  0  0  0  0  0  0  0  0  0  0
    7.9264    7.6879   -8.8284 H   0  0  0  0  0  0  0  0  0  0  0  0
  2  1  2  0
  3  2  1  0
  4  3  2  0
  5  4  1  0
  6  5  1  0
  7  6  1  0
  8  7  1  0
  9  8  1  0
 10  9  1  0
 11 10  1  0
 12 11  2  0
 13 12  1  0
 14 13  1  0
 15 14  1  0
 16 15  1  0
 17 16  1  0
 18 17  1  0
 19 14  1  0
 19 18  1  0
 20 13  2  0
 21 11  1  0
 21 20  1  0
 22 10  1  0
 23  7  1  0
 23 22  1  0
 24  4  1  0
 25  1  1  0
 25 24  2  0
 26  1  1  0
 27  2  1  0
 28  3  1  0
 29  5  1  0
 30  5  1  0
 31  6  1  0
 32  6  1  0
 33  8  1  0
 34  8  1  0
 35  9  1  0
 36  9  1  0
 10 37  1  1
 38 12  1  0
 39 14  1  0
 40 15  1  0
 41 15  1  0
 42 16  1  0
 43 16  1  0
 44 17  1  0
 45 17  1  0
 46 18  1  0
 47 18  1  0
 48 19  1  0
 49 19  1  0
 50 21  1  0
 51 22  1  0
 52 22  1  0
 53 23  1  0
 54 23  1  0
 55 24  1  0
 56 25  1  0
  7 57  1  6
M  CHG  1   7   1
M  END
>  <b_m_subgroup_collapsed>  (170) 
0

>  <r_i_docking_score>  (170) 
-8.6966664504863207

>  <s_m_subgroup_title>  (170) 
glide-dock_SP_D22_pv

>  <s_m_subgroupid>  (170) 
glide-dock_SP_D22_pv

>  <Molecule ChEMBL ID>  (170) 
CHEMBL77744

>  <Standard Type>  (170) 
Ki

>  <Standard Value>  (170) 
61.0

>  <label>  (170) 
1

$$$$
CHEMBL4440708
     RDKit          3D

 49 51  0  0  1  0  0  0  0  0999 V2000
    7.6858    6.9644  -13.0443 O   0  0  0  0  0  0  0  0  0  0  0  0
    8.6830    6.4089  -12.2052 C   0  0  1  0  0  0  0  0  0  0  0  0
    9.7612    5.7458  -13.0710 C   0  0  0  0  0  0  0  0  0  0  0  0
   11.1196    6.1558  -13.0615 C   0  0  0  0  0  0  0  0  0  0  0  0
   12.0256    5.6447  -14.0120 C   0  0  0  0  0  0  0  0  0  0  0  0
   11.5961    4.7129  -14.9730 C   0  0  0  0  0  0  0  0  0  0  0  0
   12.6787    4.1727  -16.1998 Cl  0  0  0  0  0  0  0  0  0  0  0  0
   10.2672    4.2553  -14.9574 C   0  0  0  0  0  0  0  0  0  0  0  0
    9.3593    4.7720  -14.0158 C   0  0  0  0  0  0  0  0  0  0  0  0
    9.2209    7.5894  -11.3507 C   0  0  0  0  0  0  0  0  0  0  0  0
    9.9268    7.1211  -10.0670 C   0  0  0  0  0  0  0  0  0  0  0  0
    9.0225    6.2558   -9.2655 N   0  0  2  0  0  0  0  0  0  0  0  0
    9.5290    5.9703   -7.8969 C   0  0  0  0  0  0  0  0  0  0  0  0
    8.9980    6.9545   -6.8378 C   0  0  0  0  0  0  0  0  0  0  0  0
    9.4314    8.3871   -7.0863 C   0  0  0  0  0  0  0  0  0  0  0  0
   10.2987    9.1392   -6.3835 C   0  0  0  0  0  0  0  0  0  0  0  0
   11.0620    8.8138   -5.1694 C   0  0  0  0  0  0  0  0  0  0  0  0
   11.4902    7.5157   -4.8001 C   0  0  0  0  0  0  0  0  0  0  0  0
   12.0961    7.2936   -3.5458 C   0  0  0  0  0  0  0  0  0  0  0  0
   12.3119    8.3714   -2.6673 C   0  0  0  0  0  0  0  0  0  0  0  0
   12.8855    8.1726   -1.4589 F   0  0  0  0  0  0  0  0  0  0  0  0
   11.9232    9.6654   -3.0456 C   0  0  0  0  0  0  0  0  0  0  0  0
   11.2866    9.8789   -4.2787 C   0  0  0  0  0  0  0  0  0  0  0  0
    8.7021    5.0256  -10.0293 C   0  0  0  0  0  0  0  0  0  0  0  0
    7.9385    5.3771  -11.3143 C   0  0  0  0  0  0  0  0  0  0  0  0
    7.0356    7.3699  -12.4834 H   0  0  0  0  0  0  0  0  0  0  0  0
   11.4958    6.9062  -12.3858 H   0  0  0  0  0  0  0  0  0  0  0  0
   13.0440    6.0013  -14.0309 H   0  0  0  0  0  0  0  0  0  0  0  0
    9.9342    3.5402  -15.6945 H   0  0  0  0  0  0  0  0  0  0  0  0
    8.3273    4.4566  -14.0620 H   0  0  0  0  0  0  0  0  0  0  0  0
    9.8566    8.2489  -11.9403 H   0  0  0  0  0  0  0  0  0  0  0  0
    8.4131    8.2466  -11.0466 H   0  0  0  0  0  0  0  0  0  0  0  0
   10.8389    6.5704  -10.2937 H   0  0  0  0  0  0  0  0  0  0  0  0
   10.2505    7.9972   -9.5121 H   0  0  0  0  0  0  0  0  0  0  0  0
    9.2129    4.9731   -7.5958 H   0  0  0  0  0  0  0  0  0  0  0  0
   10.6198    5.9440   -7.8896 H   0  0  0  0  0  0  0  0  0  0  0  0
    7.9108    6.9278   -6.8195 H   0  0  0  0  0  0  0  0  0  0  0  0
    9.2839    6.6209   -5.8444 H   0  0  0  0  0  0  0  0  0  0  0  0
    8.9638    8.8532   -7.9419 H   0  0  0  0  0  0  0  0  0  0  0  0
   10.4751   10.1380   -6.7550 H   0  0  0  0  0  0  0  0  0  0  0  0
   11.3653    6.6764   -5.4663 H   0  0  0  0  0  0  0  0  0  0  0  0
   12.4007    6.2969   -3.2598 H   0  0  0  0  0  0  0  0  0  0  0  0
   12.0853   10.4936   -2.3729 H   0  0  0  0  0  0  0  0  0  0  0  0
   10.9544   10.8754   -4.5342 H   0  0  0  0  0  0  0  0  0  0  0  0
    9.6181    4.4803  -10.2627 H   0  0  0  0  0  0  0  0  0  0  0  0
    8.0865    4.3606   -9.4237 H   0  0  0  0  0  0  0  0  0  0  0  0
    6.9660    5.7718  -11.0188 H   0  0  0  0  0  0  0  0  0  0  0  0
    7.7053    4.4671  -11.8665 H   0  0  0  0  0  0  0  0  0  0  0  0
    8.1425    6.7506   -9.1532 H   0  0  0  0  0  0  0  0  0  0  0  0
  2  1  1  6
  3  2  1  0
  4  3  2  0
  5  4  1  0
  6  5  2  0
  7  6  1  0
  8  6  1  0
  9  3  1  0
  9  8  2  0
 10  2  1  0
 11 10  1  0
 12 11  1  0
 13 12  1  0
 14 13  1  0
 15 14  1  0
 16 15  2  0
 17 16  1  0
 18 17  1  0
 19 18  2  0
 20 19  1  0
 21 20  1  0
 22 20  2  0
 23 17  2  0
 23 22  1  0
 24 12  1  0
 25  2  1  0
 25 24  1  0
 26  1  1  0
 27  4  1  0
 28  5  1  0
 29  8  1  0
 30  9  1  0
 31 10  1  0
 32 10  1  0
 33 11  1  0
 34 11  1  0
 35 13  1  0
 36 13  1  0
 37 14  1  0
 38 14  1  0
 39 15  1  0
 40 16  1  0
 41 18  1  0
 42 19  1  0
 43 22  1  0
 44 23  1  0
 45 24  1  0
 46 24  1  0
 47 25  1  0
 48 25  1  0
 12 49  1  1
M  CHG  1  12   1
M  END
>  <b_m_subgroup_collapsed>  (171) 
0

>  <r_i_docking_score>  (171) 
-8.6950876223691207

>  <s_m_subgroup_title>  (171) 
glide-dock_SP_D22_pv

>  <s_m_subgroupid>  (171) 
glide-dock_SP_D22_pv

>  <Molecule ChEMBL ID>  (171) 
CHEMBL4440708

>  <Standard Type>  (171) 
Ki

>  <Standard Value>  (171) 
29.51

>  <label>  (171) 
1

$$$$
CHEMBL3409243
     RDKit          3D

 67 71  0  0  1  0  0  0  0  0999 V2000
   12.1876   10.1834   -6.2556 N   0  0  0  0  0  0  0  0  0  0  0  0
   11.3959   10.1163   -5.2023 C   0  0  0  0  0  0  0  0  0  0  0  0
   10.4863   10.9021   -5.0170 O   0  0  0  0  0  0  0  0  0  0  0  0
   11.7231    9.0406   -4.2328 C   0  0  0  0  0  0  0  0  0  0  0  0
   12.0705    9.3721   -2.9105 C   0  0  0  0  0  0  0  0  0  0  0  0
   12.4039    8.3602   -1.9952 C   0  0  0  0  0  0  0  0  0  0  0  0
   12.3706    7.0149   -2.3989 C   0  0  0  0  0  0  0  0  0  0  0  0
   12.0220    6.6883   -3.7197 C   0  0  0  0  0  0  0  0  0  0  0  0
   11.6862    7.6938   -4.6470 C   0  0  0  0  0  0  0  0  0  0  0  0
   11.4145    7.4145   -5.9683 O   0  0  0  0  0  0  0  0  0  0  0  0
   10.4255    6.4426   -6.2351 C   0  0  0  0  0  0  0  0  0  0  0  0
    9.1276    7.1485   -6.6469 C   0  0  0  0  0  0  0  0  0  0  0  0
    9.2221    7.9698   -7.9448 C   0  0  0  0  0  0  0  0  0  0  0  0
    9.6005    7.1756   -9.1438 N   0  0  1  0  0  0  0  0  0  0  0  0
    8.7730    5.9573   -9.3550 C   0  0  0  0  0  0  0  0  0  0  0  0
    9.0514    5.3001  -10.6913 C   0  0  0  0  0  0  0  0  0  0  0  0
    9.7721    5.8464  -11.6911 C   0  0  0  0  0  0  0  0  0  0  0  0
    9.9733    5.1020  -12.9526 C   0  0  0  0  0  0  0  0  0  0  0  0
    9.2256    4.0202  -13.3197 C   0  0  0  0  0  0  0  0  0  0  0  0
    9.6086    3.5880  -14.5814 N   0  0  0  0  0  0  0  0  0  0  0  0
    8.9903    2.5078  -15.3535 C   0  0  0  0  0  0  0  0  0  0  0  0
    7.8321    1.8044  -14.6492 C   0  0  0  0  0  0  0  0  0  0  0  0
    6.6916    2.5314  -14.2431 C   0  0  0  0  0  0  0  0  0  0  0  0
    5.6838    1.9052  -13.4842 C   0  0  0  0  0  0  0  0  0  0  0  0
    5.7471    0.5254  -13.2346 C   0  0  0  0  0  0  0  0  0  0  0  0
    6.8416   -0.2252  -13.7057 C   0  0  0  0  0  0  0  0  0  0  0  0
    7.8911    0.4174  -14.3943 C   0  0  0  0  0  0  0  0  0  0  0  0
   10.6968    4.3513  -14.9993 C   0  0  0  0  0  0  0  0  0  0  0  0
   11.4743    4.2898  -16.1716 C   0  0  0  0  0  0  0  0  0  0  0  0
   12.5477    5.1804  -16.3491 C   0  0  0  0  0  0  0  0  0  0  0  0
   12.8362    6.1304  -15.3536 C   0  0  0  0  0  0  0  0  0  0  0  0
   12.0541    6.1974  -14.1835 C   0  0  0  0  0  0  0  0  0  0  0  0
   10.9611    5.3156  -13.9741 C   0  0  0  0  0  0  0  0  0  0  0  0
   10.3458    7.2440  -11.5133 C   0  0  0  0  0  0  0  0  0  0  0  0
    9.6825    8.0165  -10.3602 C   0  0  0  0  0  0  0  0  0  0  0  0
   12.0305   10.9037   -6.9403 H   0  0  0  0  0  0  0  0  0  0  0  0
   12.9789    9.5586   -6.3350 H   0  0  0  0  0  0  0  0  0  0  0  0
   12.0865   10.4067   -2.5999 H   0  0  0  0  0  0  0  0  0  0  0  0
   12.6818    8.6256   -0.9889 H   0  0  0  0  0  0  0  0  0  0  0  0
   12.6301    6.2278   -1.7053 H   0  0  0  0  0  0  0  0  0  0  0  0
   12.0508    5.6612   -4.0336 H   0  0  0  0  0  0  0  0  0  0  0  0
   10.2399    5.8178   -5.3638 H   0  0  0  0  0  0  0  0  0  0  0  0
   10.7825    5.7808   -7.0255 H   0  0  0  0  0  0  0  0  0  0  0  0
    8.8524    7.8311   -5.8481 H   0  0  0  0  0  0  0  0  0  0  0  0
    8.3112    6.4267   -6.7101 H   0  0  0  0  0  0  0  0  0  0  0  0
    9.9582    8.7629   -7.8092 H   0  0  0  0  0  0  0  0  0  0  0  0
    8.2713    8.4714   -8.1216 H   0  0  0  0  0  0  0  0  0  0  0  0
    7.7074    6.1722   -9.2990 H   0  0  0  0  0  0  0  0  0  0  0  0
    8.9882    5.2255   -8.5763 H   0  0  0  0  0  0  0  0  0  0  0  0
    8.6136    4.3189  -10.7922 H   0  0  0  0  0  0  0  0  0  0  0  0
    8.4238    3.5473  -12.7804 H   0  0  0  0  0  0  0  0  0  0  0  0
    8.6293    2.9272  -16.2934 H   0  0  0  0  0  0  0  0  0  0  0  0
    9.7676    1.7857  -15.6047 H   0  0  0  0  0  0  0  0  0  0  0  0
    6.6205    3.5904  -14.4450 H   0  0  0  0  0  0  0  0  0  0  0  0
    4.8450    2.4826  -13.1240 H   0  0  0  0  0  0  0  0  0  0  0  0
    4.9529    0.0466  -12.6854 H   0  0  0  0  0  0  0  0  0  0  0  0
    6.8858   -1.2882  -13.5203 H   0  0  0  0  0  0  0  0  0  0  0  0
    8.7411   -0.1615  -14.7230 H   0  0  0  0  0  0  0  0  0  0  0  0
   11.2531    3.5546  -16.9308 H   0  0  0  0  0  0  0  0  0  0  0  0
   13.1498    5.1316  -17.2442 H   0  0  0  0  0  0  0  0  0  0  0  0
   13.6654    6.8097  -15.4867 H   0  0  0  0  0  0  0  0  0  0  0  0
   12.3096    6.9343  -13.4395 H   0  0  0  0  0  0  0  0  0  0  0  0
   11.4202    7.1629  -11.3557 H   0  0  0  0  0  0  0  0  0  0  0  0
   10.1974    7.8089  -12.4336 H   0  0  0  0  0  0  0  0  0  0  0  0
   10.2575    8.9214  -10.1586 H   0  0  0  0  0  0  0  0  0  0  0  0
    8.6822    8.3405  -10.6514 H   0  0  0  0  0  0  0  0  0  0  0  0
   10.5399    6.8435   -8.9749 H   0  0  0  0  0  0  0  0  0  0  0  0
  2  1  1  0
  3  2  2  0
  4  2  1  0
  5  4  2  0
  6  5  1  0
  7  6  2  0
  8  7  1  0
  9  4  1  0
  9  8  2  0
 10  9  1  0
 11 10  1  0
 12 11  1  0
 13 12  1  0
 14 13  1  0
 15 14  1  0
 16 15  1  0
 17 16  2  0
 18 17  1  0
 19 18  2  0
 20 19  1  0
 21 20  1  0
 22 21  1  0
 23 22  2  0
 24 23  1  0
 25 24  2  0
 26 25  1  0
 27 22  1  0
 27 26  2  0
 28 20  1  0
 29 28  2  0
 30 29  1  0
 31 30  2  0
 32 31  1  0
 33 18  1  0
 33 28  1  0
 33 32  2  0
 34 17  1  0
 35 14  1  0
 35 34  1  0
 36  1  1  0
 37  1  1  0
 38  5  1  0
 39  6  1  0
 40  7  1  0
 41  8  1  0
 42 11  1  0
 43 11  1  0
 44 12  1  0
 45 12  1  0
 46 13  1  0
 47 13  1  0
 48 15  1  0
 49 15  1  0
 50 16  1  0
 51 19  1  0
 52 21  1  0
 53 21  1  0
 54 23  1  0
 55 24  1  0
 56 25  1  0
 57 26  1  0
 58 27  1  0
 59 29  1  0
 60 30  1  0
 61 31  1  0
 62 32  1  0
 63 34  1  0
 64 34  1  0
 65 35  1  0
 66 35  1  0
 14 67  1  1
M  CHG  1  14   1
M  END
>  <b_m_subgroup_collapsed>  (172) 
0

>  <r_i_docking_score>  (172) 
-8.69391134938307

>  <s_m_subgroup_title>  (172) 
glide-dock_SP_D22_pv

>  <s_m_subgroupid>  (172) 
glide-dock_SP_D22_pv

>  <Molecule ChEMBL ID>  (172) 
CHEMBL3409243

>  <Standard Type>  (172) 
Ki

>  <Standard Value>  (172) 
31.0

>  <label>  (172) 
1

$$$$
CHEMBL94811
     RDKit          3D

 48 50  0  0  1  0  0  0  0  0999 V2000
   10.6105    1.7105  -15.4351 N   0  0  0  0  0  0  0  0  0  0  0  0
    9.7413    2.2406  -14.8849 C   0  0  0  0  0  0  0  0  0  0  0  0
    8.6487    2.9047  -14.1935 C   0  0  0  0  0  0  0  0  0  0  0  0
    7.3215    2.4761  -14.3978 C   0  0  0  0  0  0  0  0  0  0  0  0
    6.2669    3.1043  -13.7079 C   0  0  0  0  0  0  0  0  0  0  0  0
    6.5325    4.1655  -12.8235 C   0  0  0  0  0  0  0  0  0  0  0  0
    7.8574    4.5995  -12.6083 C   0  0  0  0  0  0  0  0  0  0  0  0
    8.1156    5.7367  -11.6258 C   0  0  2  0  0  0  0  0  0  0  0  0
    9.0116    6.8395  -12.2140 C   0  0  0  0  0  0  0  0  0  0  0  0
    9.3512    7.9246  -11.1847 C   0  0  0  0  0  0  0  0  0  0  0  0
    9.8396    7.3432   -9.8507 C   0  0  0  0  0  0  0  0  0  0  0  0
    8.8861    6.3381   -9.3182 N   0  0  2  0  0  0  0  0  0  0  0  0
    9.2257    5.7951   -7.9750 C   0  0  0  0  0  0  0  0  0  0  0  0
    9.4622    6.8278   -6.8483 C   0  0  0  0  0  0  0  0  0  0  0  0
   10.9326    7.2815   -6.6969 C   0  0  0  0  0  0  0  0  0  0  0  0
   11.2866    7.7555   -5.2970 C   0  0  0  0  0  0  0  0  0  0  0  0
   11.2861    9.1265   -4.9676 C   0  0  0  0  0  0  0  0  0  0  0  0
   11.6857    9.5340   -3.6782 C   0  0  0  0  0  0  0  0  0  0  0  0
   12.0855    8.5895   -2.7145 C   0  0  0  0  0  0  0  0  0  0  0  0
   12.0862    7.2232   -3.0403 C   0  0  0  0  0  0  0  0  0  0  0  0
   11.6850    6.8159   -4.3261 C   0  0  0  0  0  0  0  0  0  0  0  0
    8.6743    5.2279  -10.2872 C   0  0  0  0  0  0  0  0  0  0  0  0
    8.9154    3.9606  -13.2948 C   0  0  0  0  0  0  0  0  0  0  0  0
    7.1076    1.6587  -15.0728 H   0  0  0  0  0  0  0  0  0  0  0  0
    5.2535    2.7654  -13.8469 H   0  0  0  0  0  0  0  0  0  0  0  0
    5.7109    4.6343  -12.3013 H   0  0  0  0  0  0  0  0  0  0  0  0
    7.1393    6.1728  -11.4269 H   0  0  0  0  0  0  0  0  0  0  0  0
    8.4851    7.2964  -13.0469 H   0  0  0  0  0  0  0  0  0  0  0  0
    9.9440    6.4260  -12.5984 H   0  0  0  0  0  0  0  0  0  0  0  0
    8.4841    8.5561  -11.0055 H   0  0  0  0  0  0  0  0  0  0  0  0
   10.1126    8.5831  -11.5973 H   0  0  0  0  0  0  0  0  0  0  0  0
    9.9281    8.1779   -9.1576 H   0  0  0  0  0  0  0  0  0  0  0  0
   10.8299    6.8961   -9.9638 H   0  0  0  0  0  0  0  0  0  0  0  0
   10.0763    5.1156   -8.0551 H   0  0  0  0  0  0  0  0  0  0  0  0
    8.3745    5.1794   -7.6766 H   0  0  0  0  0  0  0  0  0  0  0  0
    9.1964    6.3112   -5.9233 H   0  0  0  0  0  0  0  0  0  0  0  0
    8.7767    7.6740   -6.9164 H   0  0  0  0  0  0  0  0  0  0  0  0
   11.1836    8.0718   -7.4029 H   0  0  0  0  0  0  0  0  0  0  0  0
   11.6028    6.4545   -6.9341 H   0  0  0  0  0  0  0  0  0  0  0  0
   10.9879    9.8656   -5.6969 H   0  0  0  0  0  0  0  0  0  0  0  0
   11.6836   10.5760   -3.4136 H   0  0  0  0  0  0  0  0  0  0  0  0
   12.3849    8.9147   -1.7296 H   0  0  0  0  0  0  0  0  0  0  0  0
   12.3859    6.4855   -2.3085 H   0  0  0  0  0  0  0  0  0  0  0  0
   11.6943    5.7723   -4.5774 H   0  0  0  0  0  0  0  0  0  0  0  0
    9.6158    4.6983  -10.4481 H   0  0  0  0  0  0  0  0  0  0  0  0
    7.9768    4.5029   -9.8661 H   0  0  0  0  0  0  0  0  0  0  0  0
    9.9389    4.2653  -13.1276 H   0  0  0  0  0  0  0  0  0  0  0  0
    7.9885    6.8116   -9.2339 H   0  0  0  0  0  0  0  0  0  0  0  0
  2  1  3  0
  3  2  1  0
  4  3  1  0
  5  4  2  0
  6  5  1  0
  7  6  2  0
  8  7  1  0
  9  8  1  0
 10  9  1  0
 11 10  1  0
 12 11  1  0
 13 12  1  0
 14 13  1  0
 15 14  1  0
 16 15  1  0
 17 16  2  0
 18 17  1  0
 19 18  2  0
 20 19  1  0
 21 16  1  0
 21 20  2  0
 22  8  1  0
 22 12  1  0
 23  3  2  0
 23  7  1  0
 24  4  1  0
 25  5  1  0
 26  6  1  0
  8 27  1  1
 28  9  1  0
 29  9  1  0
 30 10  1  0
 31 10  1  0
 32 11  1  0
 33 11  1  0
 34 13  1  0
 35 13  1  0
 36 14  1  0
 37 14  1  0
 38 15  1  0
 39 15  1  0
 40 17  1  0
 41 18  1  0
 42 19  1  0
 43 20  1  0
 44 21  1  0
 45 22  1  0
 46 22  1  0
 47 23  1  0
 12 48  1  1
M  CHG  1  12   1
M  END
>  <b_m_subgroup_collapsed>  (173) 
0

>  <r_i_docking_score>  (173) 
-8.6926782086296797

>  <s_m_subgroup_title>  (173) 
glide-dock_SP_D22_pv

>  <s_m_subgroupid>  (173) 
glide-dock_SP_D22_pv

>  <Molecule ChEMBL ID>  (173) 
CHEMBL94811

>  <Standard Type>  (173) 
Ki

>  <Standard Value>  (173) 
29.0

>  <label>  (173) 
1

$$$$
CHEMBL349426
     RDKit          3D

 65 69  0  0  1  0  0  0  0  0999 V2000
   12.2886    8.3614   -2.2504 C   0  0  0  0  0  0  0  0  0  0  0  0
   12.0338    9.4857   -3.0542 C   0  0  0  0  0  0  0  0  0  0  0  0
   11.5943    9.3248   -4.3814 C   0  0  0  0  0  0  0  0  0  0  0  0
   11.4092    8.0344   -4.9289 C   0  0  0  0  0  0  0  0  0  0  0  0
   10.9330    7.8930   -6.2465 N   0  0  0  0  0  0  0  0  0  0  0  0
   11.5866    8.6594   -7.3015 C   0  0  0  0  0  0  0  0  0  0  0  0
   10.6103    8.8973   -8.4610 C   0  0  0  0  0  0  0  0  0  0  0  0
   10.0261    7.6186   -8.9389 N   0  0  0  0  0  0  0  0  0  0  0  0
    9.1519    7.8016  -10.1204 C   0  0  0  0  0  0  0  0  0  0  0  0
    9.9405    7.8825  -11.4372 C   0  0  0  0  0  0  0  0  0  0  0  0
   10.2332    6.4984  -12.0490 C   0  0  1  0  0  0  0  0  0  0  0  0
    8.9898    5.8833  -12.7246 C   0  0  0  0  0  0  0  0  0  0  0  0
    9.3158    4.5419  -13.3924 C   0  0  0  0  0  0  0  0  0  0  0  0
   10.4696    4.6430  -14.4059 C   0  0  2  0  0  0  0  0  0  0  0  0
   10.7270    3.3111  -14.9415 N   0  0  0  0  0  0  0  0  0  0  0  0
   11.4066    3.0915  -16.1505 C   0  0  0  0  0  0  0  0  0  0  0  0
   12.1729    4.0822  -16.6508 N   0  0  0  0  0  0  0  0  0  0  0  0
   12.8446    3.8313  -17.7717 C   0  0  0  0  0  0  0  0  0  0  0  0
   12.8311    2.6992  -18.4695 N   0  0  0  0  0  0  0  0  0  0  0  0
   12.0541    1.6965  -18.0108 C   0  0  0  0  0  0  0  0  0  0  0  0
   11.9642    0.4841  -18.7218 C   0  0  0  0  0  0  0  0  0  0  0  0
   11.1292   -0.5559  -18.2737 C   0  0  0  0  0  0  0  0  0  0  0  0
   10.3835   -0.4006  -17.0914 C   0  0  0  0  0  0  0  0  0  0  0  0
   10.4744    0.7927  -16.3542 C   0  0  0  0  0  0  0  0  0  0  0  0
   11.2983    1.8473  -16.8172 C   0  0  0  0  0  0  0  0  0  0  0  0
   11.7248    5.2414  -13.7360 C   0  0  0  0  0  0  0  0  0  0  0  0
   11.4382    6.5701  -13.0181 C   0  0  0  0  0  0  0  0  0  0  0  0
    9.3500    6.8814   -7.8395 C   0  0  0  0  0  0  0  0  0  0  0  0
   10.3100    6.6369   -6.6607 C   0  0  0  0  0  0  0  0  0  0  0  0
   11.6858    6.9101   -4.1137 C   0  0  0  0  0  0  0  0  0  0  0  0
   12.1024    7.0704   -2.7782 C   0  0  0  0  0  0  0  0  0  0  0  0
   12.6138    8.4914   -1.2281 H   0  0  0  0  0  0  0  0  0  0  0  0
   12.1424   10.4788   -2.6426 H   0  0  0  0  0  0  0  0  0  0  0  0
   11.3723   10.2086   -4.9587 H   0  0  0  0  0  0  0  0  0  0  0  0
   12.4555    8.1029   -7.6523 H   0  0  0  0  0  0  0  0  0  0  0  0
   11.9607    9.6190   -6.9428 H   0  0  0  0  0  0  0  0  0  0  0  0
   11.1230    9.4217   -9.2678 H   0  0  0  0  0  0  0  0  0  0  0  0
    9.7969    9.5375   -8.1229 H   0  0  0  0  0  0  0  0  0  0  0  0
    8.5158    8.6798   -9.9861 H   0  0  0  0  0  0  0  0  0  0  0  0
    8.4858    6.9485  -10.1776 H   0  0  0  0  0  0  0  0  0  0  0  0
   10.8695    8.4306  -11.2861 H   0  0  0  0  0  0  0  0  0  0  0  0
    9.3750    8.4713  -12.1612 H   0  0  0  0  0  0  0  0  0  0  0  0
   10.4860    5.8287  -11.2291 H   0  0  0  0  0  0  0  0  0  0  0  0
    8.2046    5.7114  -11.9884 H   0  0  0  0  0  0  0  0  0  0  0  0
    8.5578    6.5723  -13.4467 H   0  0  0  0  0  0  0  0  0  0  0  0
    8.4197    4.1587  -13.8834 H   0  0  0  0  0  0  0  0  0  0  0  0
    9.5745    3.8158  -12.6183 H   0  0  0  0  0  0  0  0  0  0  0  0
   10.1607    5.2937  -15.2242 H   0  0  0  0  0  0  0  0  0  0  0  0
   10.1743    2.5562  -14.5680 H   0  0  0  0  0  0  0  0  0  0  0  0
   13.4655    4.6299  -18.1515 H   0  0  0  0  0  0  0  0  0  0  0  0
   12.5326    0.3649  -19.6325 H   0  0  0  0  0  0  0  0  0  0  0  0
   11.0590   -1.4690  -18.8422 H   0  0  0  0  0  0  0  0  0  0  0  0
    9.7444   -1.1983  -16.7476 H   0  0  0  0  0  0  0  0  0  0  0  0
    9.8946    0.8858  -15.4490 H   0  0  0  0  0  0  0  0  0  0  0  0
   12.1463    4.5151  -13.0465 H   0  0  0  0  0  0  0  0  0  0  0  0
   12.5085    5.4169  -14.4716 H   0  0  0  0  0  0  0  0  0  0  0  0
   12.3322    6.8711  -12.4696 H   0  0  0  0  0  0  0  0  0  0  0  0
   11.2866    7.3458  -13.7677 H   0  0  0  0  0  0  0  0  0  0  0  0
    8.4841    7.4537   -7.5003 H   0  0  0  0  0  0  0  0  0  0  0  0
    8.9711    5.9246   -8.2007 H   0  0  0  0  0  0  0  0  0  0  0  0
   11.0905    5.9335   -6.9548 H   0  0  0  0  0  0  0  0  0  0  0  0
    9.7569    6.1775   -5.8394 H   0  0  0  0  0  0  0  0  0  0  0  0
   11.5656    5.9050   -4.4908 H   0  0  0  0  0  0  0  0  0  0  0  0
   12.2929    6.1997   -2.1659 H   0  0  0  0  0  0  0  0  0  0  0  0
   10.7916    7.0302   -9.2331 H   0  0  0  0  0  0  0  0  0  0  0  0
  2  1  2  0
  3  2  1  0
  4  3  2  0
  5  4  1  0
  6  5  1  0
  7  6  1  0
  8  7  1  0
  9  8  1  0
 10  9  1  0
 11 10  1  0
 12 11  1  0
 13 12  1  0
 14 13  1  0
 15 14  1  0
 16 15  1  0
 17 16  1  0
 18 17  2  0
 19 18  1  0
 20 19  2  0
 21 20  1  0
 22 21  2  0
 23 22  1  0
 24 23  2  0
 25 16  2  0
 25 20  1  0
 25 24  1  0
 26 14  1  0
 27 11  1  0
 27 26  1  0
 28  8  1  0
 29  5  1  0
 29 28  1  0
 30  4  1  0
 31  1  1  0
 31 30  2  0
 32  1  1  0
 33  2  1  0
 34  3  1  0
 35  6  1  0
 36  6  1  0
 37  7  1  0
 38  7  1  0
 39  9  1  0
 40  9  1  0
 41 10  1  0
 42 10  1  0
 11 43  1  1
 44 12  1  0
 45 12  1  0
 46 13  1  0
 47 13  1  0
 14 48  1  6
 49 15  1  0
 50 18  1  0
 51 21  1  0
 52 22  1  0
 53 23  1  0
 54 24  1  0
 55 26  1  0
 56 26  1  0
 57 27  1  0
 58 27  1  0
 59 28  1  0
 60 28  1  0
 61 29  1  0
 62 29  1  0
 63 30  1  0
 64 31  1  0
 65  8  1  0
M  CHG  1   8   1
M  END
>  <b_m_subgroup_collapsed>  (174) 
0

>  <r_i_docking_score>  (174) 
-8.6922635644845307

>  <s_m_subgroup_title>  (174) 
glide-dock_SP_D22_pv

>  <s_m_subgroupid>  (174) 
glide-dock_SP_D22_pv

>  <Molecule ChEMBL ID>  (174) 
CHEMBL349426

>  <Standard Type>  (174) 
Ki

>  <Standard Value>  (174) 
3.2

>  <label>  (174) 
1

$$$$
CHEMBL559780
     RDKit          3D

 50 54  0  0  1  0  0  0  0  0999 V2000
   12.8056    0.6613  -19.4755 C   0  0  0  0  0  0  0  0  0  0  0  0
   12.0877    1.1022  -18.2463 C   0  0  0  0  0  0  0  0  0  0  0  0
   12.3118    2.2972  -17.6878 N   0  0  0  0  0  0  0  0  0  0  0  0
   11.5339    2.4399  -16.5418 C   0  0  0  0  0  0  0  0  0  0  0  0
   11.4974    3.5584  -15.6770 C   0  0  0  0  0  0  0  0  0  0  0  0
   10.6589    3.6043  -14.5336 C   0  0  0  0  0  0  0  0  0  0  0  0
   10.6619    4.7703  -13.6923 N   0  0  0  0  0  0  0  0  0  0  0  0
   11.7468    5.7478  -13.7482 C   0  0  0  0  0  0  0  0  0  0  0  0
   11.3468    6.8143  -12.7397 C   0  0  0  0  0  0  0  0  0  0  0  0
   10.0803    6.3178  -12.2446 N   0  0  0  0  0  0  0  0  0  0  0  0
    9.3262    7.0721  -11.2407 C   0  0  0  0  0  0  0  0  0  0  0  0
    9.5866    6.5154   -9.8246 C   0  0  0  0  0  0  0  0  0  0  0  0
    8.8937    7.2588   -8.7360 N   0  0  0  0  0  0  0  0  0  0  0  0
    9.4116    8.6506   -8.5220 C   0  0  0  0  0  0  0  0  0  0  0  0
   10.1964    8.5558   -7.2385 C   0  0  0  0  0  0  0  0  0  0  0  0
   11.0827    9.4936   -6.6731 C   0  0  0  0  0  0  0  0  0  0  0  0
   11.7227    9.1639   -5.4602 C   0  0  0  0  0  0  0  0  0  0  0  0
   11.5014    7.9081   -4.8517 C   0  0  0  0  0  0  0  0  0  0  0  0
   10.6259    6.9735   -5.4469 C   0  0  0  0  0  0  0  0  0  0  0  0
    9.9661    7.3350   -6.6332 C   0  0  0  0  0  0  0  0  0  0  0  0
    8.9774    6.5308   -7.4324 C   0  0  0  0  0  0  0  0  0  0  0  0
    9.7014    5.1655  -12.8226 C   0  0  0  0  0  0  0  0  0  0  0  0
    8.6448    4.5884  -12.5693 O   0  0  0  0  0  0  0  0  0  0  0  0
    9.8623    2.4685  -14.2470 C   0  0  0  0  0  0  0  0  0  0  0  0
    9.8754    1.3407  -15.0867 C   0  0  0  0  0  0  0  0  0  0  0  0
   10.6951    1.3342  -16.2273 C   0  0  0  0  0  0  0  0  0  0  0  0
   10.8852    0.0802  -17.4468 S   0  0  0  0  0  0  0  0  0  0  0  0
   13.8824    0.6977  -19.3107 H   0  0  0  0  0  0  0  0  0  0  0  0
   12.5254   -0.3602  -19.7337 H   0  0  0  0  0  0  0  0  0  0  0  0
   12.5558    1.3159  -20.3103 H   0  0  0  0  0  0  0  0  0  0  0  0
   12.1403    4.3860  -15.9331 H   0  0  0  0  0  0  0  0  0  0  0  0
   12.6982    5.2826  -13.4884 H   0  0  0  0  0  0  0  0  0  0  0  0
   11.8311    6.1908  -14.7410 H   0  0  0  0  0  0  0  0  0  0  0  0
   11.2215    7.7721  -13.2334 H   0  0  0  0  0  0  0  0  0  0  0  0
   12.0769    6.9329  -11.9379 H   0  0  0  0  0  0  0  0  0  0  0  0
    8.2597    7.0213  -11.4700 H   0  0  0  0  0  0  0  0  0  0  0  0
    9.6021    8.1228  -11.3176 H   0  0  0  0  0  0  0  0  0  0  0  0
   10.6576    6.4958   -9.6177 H   0  0  0  0  0  0  0  0  0  0  0  0
    9.2474    5.4784   -9.8045 H   0  0  0  0  0  0  0  0  0  0  0  0
    8.5786    9.3399   -8.3822 H   0  0  0  0  0  0  0  0  0  0  0  0
   10.0373    9.0206   -9.3317 H   0  0  0  0  0  0  0  0  0  0  0  0
   11.2856   10.4422   -7.1439 H   0  0  0  0  0  0  0  0  0  0  0  0
   12.4029    9.8676   -5.0035 H   0  0  0  0  0  0  0  0  0  0  0  0
   12.0062    7.6597   -3.9297 H   0  0  0  0  0  0  0  0  0  0  0  0
   10.4599    6.0164   -4.9783 H   0  0  0  0  0  0  0  0  0  0  0  0
    9.2910    5.4907   -7.5292 H   0  0  0  0  0  0  0  0  0  0  0  0
    8.0126    6.5524   -6.9275 H   0  0  0  0  0  0  0  0  0  0  0  0
    9.2427    2.4234  -13.3667 H   0  0  0  0  0  0  0  0  0  0  0  0
    9.2599    0.4834  -14.8540 H   0  0  0  0  0  0  0  0  0  0  0  0
    7.9099    7.3331   -8.9953 H   0  0  0  0  0  0  0  0  0  0  0  0
  2  1  1  0
  3  2  2  0
  4  3  1  0
  5  4  2  0
  6  5  1  0
  7  6  1  0
  8  7  1  0
  9  8  1  0
 10  9  1  0
 11 10  1  0
 12 11  1  0
 13 12  1  0
 14 13  1  0
 15 14  1  0
 16 15  2  0
 17 16  1  0
 18 17  2  0
 19 18  1  0
 20 15  1  0
 20 19  2  0
 21 13  1  0
 21 20  1  0
 22  7  1  0
 22 10  1  0
 23 22  2  0
 24  6  2  0
 25 24  1  0
 26  4  1  0
 26 25  2  0
 27  2  1  0
 27 26  1  0
 28  1  1  0
 29  1  1  0
 30  1  1  0
 31  5  1  0
 32  8  1  0
 33  8  1  0
 34  9  1  0
 35  9  1  0
 36 11  1  0
 37 11  1  0
 38 12  1  0
 39 12  1  0
 40 14  1  0
 41 14  1  0
 42 16  1  0
 43 17  1  0
 44 18  1  0
 45 19  1  0
 46 21  1  0
 47 21  1  0
 48 24  1  0
 49 25  1  0
 50 13  1  0
M  CHG  1  13   1
M  END
>  <b_m_subgroup_collapsed>  (175) 
0

>  <r_i_docking_score>  (175) 
-8.6884407126218797

>  <s_m_subgroup_title>  (175) 
glide-dock_SP_D22_pv

>  <s_m_subgroupid>  (175) 
glide-dock_SP_D22_pv

>  <Molecule ChEMBL ID>  (175) 
CHEMBL559780

>  <Standard Type>  (175) 
Ki

>  <Standard Value>  (175) 
10000.0

>  <label>  (175) 
0

$$$$
CHEMBL1263
     RDKit          3D

 68 69  0  0  1  0  0  0  0  0999 V2000
    3.8426   -1.8283  -16.4832 O   0  0  0  0  0  0  0  0  0  0  0  0
    5.0732   -1.9111  -15.7545 C   0  0  0  0  0  0  0  0  0  0  0  0
    5.4160   -0.6581  -14.9792 C   0  0  0  0  0  0  0  0  0  0  0  0
    6.7004   -0.0869  -15.1117 C   0  0  0  0  0  0  0  0  0  0  0  0
    7.0519    1.0918  -14.4319 C   0  0  0  0  0  0  0  0  0  0  0  0
    8.4425    1.6883  -14.5568 C   0  0  1  0  0  0  0  0  0  0  0  0
    9.4751    0.7668  -14.2461 O   0  0  0  0  0  0  0  0  0  0  0  0
    8.7445    2.2371  -15.9670 C   0  0  0  0  0  0  0  0  0  0  0  0
   10.0681    2.8799  -15.9706 N   0  0  0  0  0  0  0  0  0  0  0  0
   10.3858    3.7238  -17.1346 C   0  0  0  0  0  0  0  0  0  0  0  0
   11.6368    4.5752  -16.8471 C   0  0  0  0  0  0  0  0  0  0  0  0
   11.4133    5.5490  -15.6711 C   0  0  0  0  0  0  0  0  0  0  0  0
   12.6645    6.3494  -15.2715 C   0  0  0  0  0  0  0  0  0  0  0  0
   12.4275    7.3686  -14.1386 C   0  0  0  0  0  0  0  0  0  0  0  0
   12.0504    6.7422  -12.7852 C   0  0  0  0  0  0  0  0  0  0  0  0
   11.8209    7.7732  -11.8460 O   0  0  0  0  0  0  0  0  0  0  0  0
   11.7182    7.3610  -10.4964 C   0  0  0  0  0  0  0  0  0  0  0  0
   11.3223    8.4771   -9.5248 C   0  0  0  0  0  0  0  0  0  0  0  0
   11.4643    7.9665   -8.0734 C   0  0  0  0  0  0  0  0  0  0  0  0
   10.8607    8.8943   -7.0066 C   0  0  0  0  0  0  0  0  0  0  0  0
   11.2877    8.5625   -5.5849 C   0  0  0  0  0  0  0  0  0  0  0  0
   11.6696    9.6163   -4.7248 C   0  0  0  0  0  0  0  0  0  0  0  0
   12.0661    9.3482   -3.4013 C   0  0  0  0  0  0  0  0  0  0  0  0
   12.0907    8.0195   -2.9297 C   0  0  0  0  0  0  0  0  0  0  0  0
   11.7060    6.9740   -3.7713 C   0  0  0  0  0  0  0  0  0  0  0  0
   11.2972    7.2350   -5.0986 C   0  0  0  0  0  0  0  0  0  0  0  0
    6.0810    1.7297  -13.6150 C   0  0  0  0  0  0  0  0  0  0  0  0
    4.8162    1.1526  -13.4408 C   0  0  0  0  0  0  0  0  0  0  0  0
    4.4853   -0.0497  -14.0929 C   0  0  0  0  0  0  0  0  0  0  0  0
    3.2658   -0.6179  -13.8422 O   0  0  0  0  0  0  0  0  0  0  0  0
    3.4853   -2.7082  -16.5357 H   0  0  0  0  0  0  0  0  0  0  0  0
    5.8645   -2.1637  -16.4668 H   0  0  0  0  0  0  0  0  0  0  0  0
    5.0285   -2.7540  -15.0488 H   0  0  0  0  0  0  0  0  0  0  0  0
    7.4261   -0.5938  -15.7414 H   0  0  0  0  0  0  0  0  0  0  0  0
    8.5272    2.5170  -13.8440 H   0  0  0  0  0  0  0  0  0  0  0  0
    9.6866    0.8113  -13.3082 H   0  0  0  0  0  0  0  0  0  0  0  0
    8.6982    1.4535  -16.7161 H   0  0  0  0  0  0  0  0  0  0  0  0
    7.9785    2.9680  -16.2196 H   0  0  0  0  0  0  0  0  0  0  0  0
   10.1119    3.4732  -15.1573 H   0  0  0  0  0  0  0  0  0  0  0  0
   10.5364    3.1015  -18.0178 H   0  0  0  0  0  0  0  0  0  0  0  0
    9.5482    4.3905  -17.3538 H   0  0  0  0  0  0  0  0  0  0  0  0
   12.4889    3.9268  -16.6339 H   0  0  0  0  0  0  0  0  0  0  0  0
   11.9039    5.1426  -17.7413 H   0  0  0  0  0  0  0  0  0  0  0  0
   10.5994    6.2273  -15.9362 H   0  0  0  0  0  0  0  0  0  0  0  0
   11.0692    4.9929  -14.7972 H   0  0  0  0  0  0  0  0  0  0  0  0
   13.4563    5.6632  -14.9790 H   0  0  0  0  0  0  0  0  0  0  0  0
   13.0371    6.8882  -16.1395 H   0  0  0  0  0  0  0  0  0  0  0  0
   13.3418    7.9425  -13.9964 H   0  0  0  0  0  0  0  0  0  0  0  0
   11.6805    8.0976  -14.4355 H   0  0  0  0  0  0  0  0  0  0  0  0
   11.1580    6.1187  -12.8557 H   0  0  0  0  0  0  0  0  0  0  0  0
   12.8840    6.1133  -12.4626 H   0  0  0  0  0  0  0  0  0  0  0  0
   10.9743    6.5648  -10.4125 H   0  0  0  0  0  0  0  0  0  0  0  0
   12.6821    6.9801  -10.1847 H   0  0  0  0  0  0  0  0  0  0  0  0
   11.9535    9.3575   -9.6700 H   0  0  0  0  0  0  0  0  0  0  0  0
   10.2937    8.7877   -9.7198 H   0  0  0  0  0  0  0  0  0  0  0  0
   11.0077    6.9790   -7.9878 H   0  0  0  0  0  0  0  0  0  0  0  0
   12.5294    7.8300   -7.8724 H   0  0  0  0  0  0  0  0  0  0  0  0
   11.1562    9.9203   -7.2275 H   0  0  0  0  0  0  0  0  0  0  0  0
    9.7703    8.8648   -7.0686 H   0  0  0  0  0  0  0  0  0  0  0  0
   11.6582   10.6278   -5.0807 H   0  0  0  0  0  0  0  0  0  0  0  0
   12.3648   10.1595   -2.7501 H   0  0  0  0  0  0  0  0  0  0  0  0
   12.4132    7.8166   -1.9136 H   0  0  0  0  0  0  0  0  0  0  0  0
   11.7122    5.9524   -3.4069 H   0  0  0  0  0  0  0  0  0  0  0  0
   10.9861    6.4161   -5.7252 H   0  0  0  0  0  0  0  0  0  0  0  0
    6.3146    2.6381  -13.0931 H   0  0  0  0  0  0  0  0  0  0  0  0
    4.1143    1.6546  -12.8018 H   0  0  0  0  0  0  0  0  0  0  0  0
    2.6162   -0.0171  -13.4955 H   0  0  0  0  0  0  0  0  0  0  0  0
   10.7640    2.1564  -15.8571 H   0  0  0  0  0  0  0  0  0  0  0  0
  2  1  1  0
  3  2  1  0
  4  3  1  0
  5  4  2  0
  6  5  1  0
  7  6  1  0
  8  6  1  0
  9  8  1  0
 10  9  1  0
 11 10  1  0
 12 11  1  0
 13 12  1  0
 14 13  1  0
 15 14  1  0
 16 15  1  0
 17 16  1  0
 18 17  1  0
 19 18  1  0
 20 19  1  0
 21 20  1  0
 22 21  2  0
 23 22  1  0
 24 23  2  0
 25 24  1  0
 26 21  1  0
 26 25  2  0
 27  5  1  0
 28 27  2  0
 29  3  2  0
 29 28  1  0
 30 29  1  0
 31  1  1  0
 32  2  1  0
 33  2  1  0
 34  4  1  0
  6 35  1  1
 36  7  1  0
 37  8  1  0
 38  8  1  0
 39  9  1  0
 40 10  1  0
 41 10  1  0
 42 11  1  0
 43 11  1  0
 44 12  1  0
 45 12  1  0
 46 13  1  0
 47 13  1  0
 48 14  1  0
 49 14  1  0
 50 15  1  0
 51 15  1  0
 52 17  1  0
 53 17  1  0
 54 18  1  0
 55 18  1  0
 56 19  1  0
 57 19  1  0
 58 20  1  0
 59 20  1  0
 60 22  1  0
 61 23  1  0
 62 24  1  0
 63 25  1  0
 64 26  1  0
 65 27  1  0
 66 28  1  0
 67 30  1  0
 68  9  1  0
M  CHG  1   9   1
M  END
>  <b_m_subgroup_collapsed>  (176) 
0

>  <r_i_docking_score>  (176) 
-8.6880120782809893

>  <s_m_subgroup_title>  (176) 
glide-dock_SP_D22_pv

>  <s_m_subgroupid>  (176) 
glide-dock_SP_D22_pv

>  <Molecule ChEMBL ID>  (176) 
CHEMBL1263

>  <Standard Type>  (176) 
Ki

>  <Standard Value>  (176) 
32000.0

>  <label>  (176) 
0

$$$$
CHEMBL517028
     RDKit          3D

 49 53  0  0  1  0  0  0  0  0999 V2000
   13.5338    5.9770  -16.8789 C   0  0  0  0  0  0  0  0  0  0  0  0
   12.5261    4.9639  -16.4738 N   0  0  2  0  0  0  0  0  0  0  0  0
   11.7768    4.4645  -17.6380 C   0  0  0  0  0  0  0  0  0  0  0  0
   11.0199    3.2128  -17.2258 C   0  0  0  0  0  0  0  0  0  0  0  0
   10.1140    3.3903  -16.0184 C   0  0  0  0  0  0  0  0  0  0  0  0
    9.0377    2.5429  -15.7197 C   0  0  0  0  0  0  0  0  0  0  0  0
    8.2935    2.6997  -14.5355 C   0  0  0  0  0  0  0  0  0  0  0  0
    7.1422    1.8082  -14.2470 C   0  0  0  0  0  0  0  0  0  0  0  0
    7.0840    0.4808  -14.7413 C   0  0  0  0  0  0  0  0  0  0  0  0
    5.9429   -0.3256  -14.5500 C   0  0  0  0  0  0  0  0  0  0  0  0
    4.8328    0.1758  -13.8469 C   0  0  0  0  0  0  0  0  0  0  0  0
    3.6879   -0.5666  -13.7392 O   0  0  0  0  0  0  0  0  0  0  0  0
    4.9092    1.4615  -13.2793 C   0  0  0  0  0  0  0  0  0  0  0  0
    6.0424    2.2702  -13.4867 C   0  0  0  0  0  0  0  0  0  0  0  0
    8.6675    3.7441  -13.6547 C   0  0  0  0  0  0  0  0  0  0  0  0
    9.7090    4.6764  -13.9076 C   0  0  0  0  0  0  0  0  0  0  0  0
   10.4278    4.4391  -15.1128 C   0  0  0  0  0  0  0  0  0  0  0  0
   11.5883    5.4177  -15.4079 C   0  0  1  0  0  0  0  0  0  0  0  0
   12.3381    5.7865  -14.1138 C   0  0  0  0  0  0  0  0  0  0  0  0
   11.3933    6.2915  -13.0471 C   0  0  0  0  0  0  0  0  0  0  0  0
   11.8555    7.2888  -12.1662 C   0  0  0  0  0  0  0  0  0  0  0  0
   11.0133    7.7723  -11.1601 C   0  0  0  0  0  0  0  0  0  0  0  0
    9.6817    7.3399  -11.0993 C   0  0  0  0  0  0  0  0  0  0  0  0
    8.8860    7.9050  -10.1486 O   0  0  0  0  0  0  0  0  0  0  0  0
    9.1947    6.3664  -12.0042 C   0  0  0  0  0  0  0  0  0  0  0  0
    7.8625    6.0509  -11.9493 O   0  0  0  0  0  0  0  0  0  0  0  0
   10.0756    5.7724  -12.9629 C   0  0  0  0  0  0  0  0  0  0  0  0
   13.0567    6.9135  -17.1723 H   0  0  0  0  0  0  0  0  0  0  0  0
   14.1232    5.6218  -17.7249 H   0  0  0  0  0  0  0  0  0  0  0  0
   14.2456    6.1848  -16.0807 H   0  0  0  0  0  0  0  0  0  0  0  0
   11.0926    5.2316  -18.0057 H   0  0  0  0  0  0  0  0  0  0  0  0
   12.4526    4.2173  -18.4580 H   0  0  0  0  0  0  0  0  0  0  0  0
   10.4174    2.8633  -18.0653 H   0  0  0  0  0  0  0  0  0  0  0  0
   11.7233    2.4102  -17.0003 H   0  0  0  0  0  0  0  0  0  0  0  0
    8.7916    1.7572  -16.4184 H   0  0  0  0  0  0  0  0  0  0  0  0
    7.9101    0.0646  -15.2982 H   0  0  0  0  0  0  0  0  0  0  0  0
    5.9138   -1.3212  -14.9700 H   0  0  0  0  0  0  0  0  0  0  0  0
    2.9119   -0.0579  -13.5497 H   0  0  0  0  0  0  0  0  0  0  0  0
    4.0859    1.8725  -12.7194 H   0  0  0  0  0  0  0  0  0  0  0  0
    6.0347    3.2721  -13.0834 H   0  0  0  0  0  0  0  0  0  0  0  0
    8.1310    3.8169  -12.7237 H   0  0  0  0  0  0  0  0  0  0  0  0
   11.1087    6.3258  -15.7791 H   0  0  0  0  0  0  0  0  0  0  0  0
   12.8672    4.9188  -13.7172 H   0  0  0  0  0  0  0  0  0  0  0  0
   13.0824    6.5613  -14.2924 H   0  0  0  0  0  0  0  0  0  0  0  0
   12.8666    7.6634  -12.2403 H   0  0  0  0  0  0  0  0  0  0  0  0
   11.3735    8.5202  -10.4685 H   0  0  0  0  0  0  0  0  0  0  0  0
    7.9203    7.7724  -10.2365 H   0  0  0  0  0  0  0  0  0  0  0  0
    7.3465    6.5861  -11.3536 H   0  0  0  0  0  0  0  0  0  0  0  0
   13.0358    4.1734  -16.1043 H   0  0  0  0  0  0  0  0  0  0  0  0
  2  1  1  0
  3  2  1  0
  4  3  1  0
  5  4  1  0
  6  5  1  0
  7  6  2  0
  8  7  1  0
  9  8  1  0
 10  9  2  0
 11 10  1  0
 12 11  1  0
 13 11  2  0
 14  8  2  0
 14 13  1  0
 15  7  1  0
 16 15  2  0
 17  5  2  0
 17 16  1  0
 18  2  1  0
 18 17  1  0
 19 18  1  0
 20 19  1  0
 21 20  1  0
 22 21  2  0
 23 22  1  0
 24 23  1  0
 25 23  2  0
 26 25  1  0
 27 16  1  0
 27 20  2  0
 27 25  1  0
 28  1  1  0
 29  1  1  0
 30  1  1  0
 31  3  1  0
 32  3  1  0
 33  4  1  0
 34  4  1  0
 35  6  1  0
 36  9  1  0
 37 10  1  0
 38 12  1  0
 39 13  1  0
 40 14  1  0
 41 15  1  0
 18 42  1  6
 43 19  1  0
 44 19  1  0
 45 21  1  0
 46 22  1  0
 47 24  1  0
 48 26  1  0
  2 49  1  1
M  CHG  1   2   1
M  END
>  <b_m_subgroup_collapsed>  (177) 
0

>  <r_i_docking_score>  (177) 
-8.6788993524219293

>  <s_m_subgroup_title>  (177) 
glide-dock_SP_D22_pv

>  <s_m_subgroupid>  (177) 
glide-dock_SP_D22_pv

>  <Molecule ChEMBL ID>  (177) 
CHEMBL517028

>  <Standard Type>  (177) 
Ki

>  <Standard Value>  (177) 
3.8

>  <label>  (177) 
1

$$$$
CHEMBL485727
     RDKit          3D

 73 76  0  0  1  0  0  0  0  0999 V2000
    3.2858   -2.1834  -18.5091 C   0  0  0  0  0  0  0  0  0  0  0  0
    4.5451   -1.6101  -18.2088 O   0  0  0  0  0  0  0  0  0  0  0  0
    4.7542   -1.1224  -16.9376 C   0  0  0  0  0  0  0  0  0  0  0  0
    3.7833   -1.0877  -15.9059 C   0  0  0  0  0  0  0  0  0  0  0  0
    4.1060   -0.5570  -14.6401 C   0  0  0  0  0  0  0  0  0  0  0  0
    5.3977   -0.0500  -14.3900 C   0  0  0  0  0  0  0  0  0  0  0  0
    6.3656   -0.0729  -15.4152 C   0  0  0  0  0  0  0  0  0  0  0  0
    7.7572    0.4911  -15.2131 C   0  0  0  0  0  0  0  0  0  0  0  0
    7.9471    1.7821  -16.0248 C   0  0  0  0  0  0  0  0  0  0  0  0
    9.4011    2.2021  -16.1433 C   0  0  0  0  0  0  0  0  0  0  0  0
   10.1699    1.6684  -17.2002 C   0  0  0  0  0  0  0  0  0  0  0  0
   11.5112    2.0523  -17.3703 C   0  0  0  0  0  0  0  0  0  0  0  0
   12.0859    2.9760  -16.4812 C   0  0  0  0  0  0  0  0  0  0  0  0
   11.3316    3.4970  -15.4141 C   0  0  0  0  0  0  0  0  0  0  0  0
    9.9774    3.1157  -15.2299 C   0  0  0  0  0  0  0  0  0  0  0  0
    9.1840    3.5950  -14.2081 O   0  0  0  0  0  0  0  0  0  0  0  0
    9.8144    4.3394  -13.1781 C   0  0  0  0  0  0  0  0  0  0  0  0
    8.7876    4.6590  -12.0906 C   0  0  0  0  0  0  0  0  0  0  0  0
    9.4520    5.2207  -10.8280 C   0  0  0  0  0  0  0  0  0  0  0  0
    8.4160    5.6727   -9.7885 C   0  0  0  0  0  0  0  0  0  0  0  0
    8.8861    6.6682   -8.7881 N   0  0  2  0  0  0  0  0  0  0  0  0
    9.5117    7.8675   -9.3921 C   0  0  0  0  0  0  0  0  0  0  0  0
    9.6827    8.9723   -8.3533 C   0  0  0  0  0  0  0  0  0  0  0  0
   10.3992    8.4823   -7.1112 C   0  0  0  0  0  0  0  0  0  0  0  0
   11.0936    9.3904   -6.2837 C   0  0  0  0  0  0  0  0  0  0  0  0
   11.7324    8.9266   -5.1157 C   0  0  0  0  0  0  0  0  0  0  0  0
   12.3992    9.7723   -4.2934 O   0  0  0  0  0  0  0  0  0  0  0  0
   11.5968   10.1718   -3.1993 C   0  0  0  0  0  0  0  0  0  0  0  0
   11.6785    7.5785   -4.7503 C   0  0  0  0  0  0  0  0  0  0  0  0
   12.3349    7.1679   -3.6158 O   0  0  0  0  0  0  0  0  0  0  0  0
   11.5239    6.5711   -2.6174 C   0  0  0  0  0  0  0  0  0  0  0  0
   10.9855    6.6879   -5.5820 C   0  0  0  0  0  0  0  0  0  0  0  0
   10.3574    7.1118   -6.7712 C   0  0  0  0  0  0  0  0  0  0  0  0
    9.6983    6.0823   -7.6909 C   0  0  0  0  0  0  0  0  0  0  0  0
    6.0377   -0.6171  -16.6727 C   0  0  0  0  0  0  0  0  0  0  0  0
    3.3018   -2.5585  -19.5321 H   0  0  0  0  0  0  0  0  0  0  0  0
    3.0686   -3.0254  -17.8541 H   0  0  0  0  0  0  0  0  0  0  0  0
    2.4873   -1.4450  -18.4351 H   0  0  0  0  0  0  0  0  0  0  0  0
    2.7874   -1.4693  -16.0628 H   0  0  0  0  0  0  0  0  0  0  0  0
    3.3567   -0.5333  -13.8622 H   0  0  0  0  0  0  0  0  0  0  0  0
    5.6376    0.3647  -13.4217 H   0  0  0  0  0  0  0  0  0  0  0  0
    8.4738   -0.2636  -15.5378 H   0  0  0  0  0  0  0  0  0  0  0  0
    7.9543    0.6706  -14.1558 H   0  0  0  0  0  0  0  0  0  0  0  0
    7.3440    2.5757  -15.5873 H   0  0  0  0  0  0  0  0  0  0  0  0
    7.5659    1.6516  -17.0386 H   0  0  0  0  0  0  0  0  0  0  0  0
    9.7278    0.9646  -17.8906 H   0  0  0  0  0  0  0  0  0  0  0  0
   12.0975    1.6438  -18.1804 H   0  0  0  0  0  0  0  0  0  0  0  0
   13.1163    3.2734  -16.6097 H   0  0  0  0  0  0  0  0  0  0  0  0
   11.8210    4.1953  -14.7541 H   0  0  0  0  0  0  0  0  0  0  0  0
   10.6358    3.7669  -12.7502 H   0  0  0  0  0  0  0  0  0  0  0  0
   10.2240    5.2701  -13.5754 H   0  0  0  0  0  0  0  0  0  0  0  0
    8.0695    5.3742  -12.4929 H   0  0  0  0  0  0  0  0  0  0  0  0
    8.2140    3.7724  -11.8332 H   0  0  0  0  0  0  0  0  0  0  0  0
   10.0860    4.4588  -10.3804 H   0  0  0  0  0  0  0  0  0  0  0  0
   10.0950    6.0354  -11.1482 H   0  0  0  0  0  0  0  0  0  0  0  0
    7.5890    6.1163  -10.3306 H   0  0  0  0  0  0  0  0  0  0  0  0
    8.0190    4.7987   -9.2737 H   0  0  0  0  0  0  0  0  0  0  0  0
   10.4978    7.6185   -9.7838 H   0  0  0  0  0  0  0  0  0  0  0  0
    8.9102    8.2323  -10.2268 H   0  0  0  0  0  0  0  0  0  0  0  0
    8.7115    9.3776   -8.0672 H   0  0  0  0  0  0  0  0  0  0  0  0
   10.2598    9.7722   -8.8117 H   0  0  0  0  0  0  0  0  0  0  0  0
   11.1343   10.4402   -6.5346 H   0  0  0  0  0  0  0  0  0  0  0  0
   12.0865   10.9646   -2.6461 H   0  0  0  0  0  0  0  0  0  0  0  0
   10.6398   10.5695   -3.5427 H   0  0  0  0  0  0  0  0  0  0  0  0
   11.4123    9.3601   -2.5047 H   0  0  0  0  0  0  0  0  0  0  0  0
   12.0814    5.7720   -2.1363 H   0  0  0  0  0  0  0  0  0  0  0  0
   11.2753    7.2922   -1.8437 H   0  0  0  0  0  0  0  0  0  0  0  0
   10.5841    6.1721   -2.9931 H   0  0  0  0  0  0  0  0  0  0  0  0
   10.9725    5.6673   -5.2812 H   0  0  0  0  0  0  0  0  0  0  0  0
    9.0565    5.4314   -7.1019 H   0  0  0  0  0  0  0  0  0  0  0  0
   10.4876    5.4603   -8.1154 H   0  0  0  0  0  0  0  0  0  0  0  0
    6.7821   -0.6442  -17.4560 H   0  0  0  0  0  0  0  0  0  0  0  0
    8.0224    6.9960   -8.3604 H   0  0  0  0  0  0  0  0  0  0  0  0
  2  1  1  0
  3  2  1  0
  4  3  1  0
  5  4  2  0
  6  5  1  0
  7  6  2  0
  8  7  1  0
  9  8  1  0
 10  9  1  0
 11 10  2  0
 12 11  1  0
 13 12  2  0
 14 13  1  0
 15 10  1  0
 15 14  2  0
 16 15  1  0
 17 16  1  0
 18 17  1  0
 19 18  1  0
 20 19  1  0
 21 20  1  0
 22 21  1  0
 23 22  1  0
 24 23  1  0
 25 24  1  0
 26 25  2  0
 27 26  1  0
 28 27  1  0
 29 26  1  0
 30 29  1  0
 31 30  1  0
 32 29  2  0
 33 24  2  0
 33 32  1  0
 34 21  1  0
 34 33  1  0
 35  3  2  0
 35  7  1  0
 36  1  1  0
 37  1  1  0
 38  1  1  0
 39  4  1  0
 40  5  1  0
 41  6  1  0
 42  8  1  0
 43  8  1  0
 44  9  1  0
 45  9  1  0
 46 11  1  0
 47 12  1  0
 48 13  1  0
 49 14  1  0
 50 17  1  0
 51 17  1  0
 52 18  1  0
 53 18  1  0
 54 19  1  0
 55 19  1  0
 56 20  1  0
 57 20  1  0
 58 22  1  0
 59 22  1  0
 60 23  1  0
 61 23  1  0
 62 25  1  0
 63 28  1  0
 64 28  1  0
 65 28  1  0
 66 31  1  0
 67 31  1  0
 68 31  1  0
 69 32  1  0
 70 34  1  0
 71 34  1  0
 72 35  1  0
 21 73  1  1
M  CHG  1  21   1
M  END
>  <b_m_subgroup_collapsed>  (178) 
0

>  <r_i_docking_score>  (178) 
-8.6782093976926298

>  <s_m_subgroup_title>  (178) 
glide-dock_SP_D22_pv

>  <s_m_subgroupid>  (178) 
glide-dock_SP_D22_pv

>  <Molecule ChEMBL ID>  (178) 
CHEMBL485727

>  <Standard Type>  (178) 
Ki

>  <Standard Value>  (178) 
1000000.0

>  <label>  (178) 
0

$$$$
CHEMBL1081868
     RDKit          3D

 57 61  0  0  1  0  0  0  0  0999 V2000
   10.0695   -0.6274  -16.1807 C   0  0  0  0  0  0  0  0  0  0  0  0
   10.8458    0.4930  -16.7954 C   0  0  0  0  0  0  0  0  0  0  0  0
   11.6867    0.2755  -17.8779 N   0  0  0  0  0  0  0  0  0  0  0  0
   12.2244    1.4672  -18.1264 C   0  0  0  0  0  0  0  0  0  0  0  0
   11.7923    2.4515  -17.2953 O   0  0  0  0  0  0  0  0  0  0  0  0
   10.9136    1.8217  -16.4527 C   0  0  0  0  0  0  0  0  0  0  0  0
   10.2536    2.6290  -15.4343 C   0  0  0  0  0  0  0  0  0  0  0  0
   10.9356    3.4827  -14.6650 N   0  0  0  0  0  0  0  0  0  0  0  0
   10.0062    4.0805  -13.8479 N   0  0  0  0  0  0  0  0  0  0  0  0
    8.8300    3.5527  -14.1966 C   0  0  0  0  0  0  0  0  0  0  0  0
    7.2759    3.9569  -13.4469 S   0  0  0  0  0  0  0  0  0  0  0  0
    7.8655    4.8033  -11.9504 C   0  0  0  0  0  0  0  0  0  0  0  0
    8.1344    6.2996  -12.1959 C   0  0  0  0  0  0  0  0  0  0  0  0
    9.1662    6.9638  -11.2573 C   0  0  0  0  0  0  0  0  0  0  0  0
    8.8965    6.7620   -9.8082 N   0  0  1  0  0  0  0  0  0  0  0  0
    9.4408    5.4922   -9.2498 C   0  0  0  0  0  0  0  0  0  0  0  0
    9.7775    5.7842   -7.8128 C   0  0  2  0  0  0  0  0  0  0  0  0
    8.6724    6.2861   -6.9255 C   0  0  0  0  0  0  0  0  0  0  0  0
    9.6496    7.2431   -7.5674 C   0  0  1  0  0  0  0  0  0  0  0  0
   10.5608    8.0034   -6.6167 C   0  0  0  0  0  0  0  0  0  0  0  0
   10.9748    9.3197   -6.8972 C   0  0  0  0  0  0  0  0  0  0  0  0
   11.7184   10.0594   -5.9627 C   0  0  0  0  0  0  0  0  0  0  0  0
   12.0859   11.3259   -6.2469 F   0  0  0  0  0  0  0  0  0  0  0  0
   12.0709    9.4927   -4.7288 C   0  0  0  0  0  0  0  0  0  0  0  0
   11.6864    8.1784   -4.4213 C   0  0  0  0  0  0  0  0  0  0  0  0
   12.0377    7.6098   -3.0535 C   0  0  0  0  0  0  0  0  0  0  0  0
   11.9168    8.5498   -2.1204 F   0  0  0  0  0  0  0  0  0  0  0  0
   11.2841    6.5724   -2.7177 F   0  0  0  0  0  0  0  0  0  0  0  0
   13.2860    7.1958   -3.0479 F   0  0  0  0  0  0  0  0  0  0  0  0
   10.9713    7.4298   -5.3826 C   0  0  0  0  0  0  0  0  0  0  0  0
    9.3945    7.8605   -8.9373 C   0  0  0  0  0  0  0  0  0  0  0  0
    8.9238    2.6544  -15.1972 N   0  0  0  0  0  0  0  0  0  0  0  0
    7.8596    1.9105  -15.8513 C   0  0  0  0  0  0  0  0  0  0  0  0
   10.0723   -0.5652  -15.0926 H   0  0  0  0  0  0  0  0  0  0  0  0
    9.0332   -0.6194  -16.5141 H   0  0  0  0  0  0  0  0  0  0  0  0
   10.4846   -1.5954  -16.4604 H   0  0  0  0  0  0  0  0  0  0  0  0
   12.9421    1.6653  -18.9097 H   0  0  0  0  0  0  0  0  0  0  0  0
    7.1112    4.6904  -11.1709 H   0  0  0  0  0  0  0  0  0  0  0  0
    8.7549    4.2857  -11.5929 H   0  0  0  0  0  0  0  0  0  0  0  0
    8.4930    6.4334  -13.2167 H   0  0  0  0  0  0  0  0  0  0  0  0
    7.1863    6.8381  -12.1620 H   0  0  0  0  0  0  0  0  0  0  0  0
   10.1748    6.6318  -11.5052 H   0  0  0  0  0  0  0  0  0  0  0  0
    9.1476    8.0347  -11.4701 H   0  0  0  0  0  0  0  0  0  0  0  0
    8.7181    4.6789   -9.3032 H   0  0  0  0  0  0  0  0  0  0  0  0
   10.3508    5.1882   -9.7648 H   0  0  0  0  0  0  0  0  0  0  0  0
   10.6993    5.3723   -7.4209 H   0  0  0  0  0  0  0  0  0  0  0  0
    7.6860    6.1719   -7.3412 H   0  0  0  0  0  0  0  0  0  0  0  0
    8.7240    6.1718   -5.8483 H   0  0  0  0  0  0  0  0  0  0  0  0
   10.7112    9.7724   -7.8356 H   0  0  0  0  0  0  0  0  0  0  0  0
   12.6302   10.0690   -4.0084 H   0  0  0  0  0  0  0  0  0  0  0  0
   10.7046    6.4154   -5.1260 H   0  0  0  0  0  0  0  0  0  0  0  0
   10.3349    8.2260   -9.3503 H   0  0  0  0  0  0  0  0  0  0  0  0
    8.6847    8.6873   -8.8782 H   0  0  0  0  0  0  0  0  0  0  0  0
    6.9316    2.4841  -15.8453 H   0  0  0  0  0  0  0  0  0  0  0  0
    8.1260    1.7050  -16.8888 H   0  0  0  0  0  0  0  0  0  0  0  0
    7.6950    0.9674  -15.3258 H   0  0  0  0  0  0  0  0  0  0  0  0
    7.8833    6.7918   -9.6940 H   0  0  0  0  0  0  0  0  0  0  0  0
  2  1  1  0
  3  2  1  0
  4  3  2  0
  5  4  1  0
  6  2  2  0
  6  5  1  0
  7  6  1  0
  8  7  2  0
  9  8  1  0
 10  9  2  0
 11 10  1  0
 12 11  1  0
 13 12  1  0
 14 13  1  0
 15 14  1  0
 16 15  1  0
 17 16  1  0
 18 17  1  0
 19 17  1  0
 19 18  1  0
 19 20  1  1
 21 20  2  0
 22 21  1  0
 23 22  1  0
 24 22  2  0
 25 24  1  0
 26 25  1  0
 27 26  1  0
 28 26  1  0
 29 26  1  0
 30 20  1  0
 30 25  2  0
 31 15  1  0
 31 19  1  0
 32  7  1  0
 32 10  1  0
 33 32  1  0
 34  1  1  0
 35  1  1  0
 36  1  1  0
 37  4  1  0
 38 12  1  0
 39 12  1  0
 40 13  1  0
 41 13  1  0
 42 14  1  0
 43 14  1  0
 44 16  1  0
 45 16  1  0
 17 46  1  1
 47 18  1  0
 48 18  1  0
 49 21  1  0
 50 24  1  0
 51 30  1  0
 52 31  1  0
 53 31  1  0
 54 33  1  0
 55 33  1  0
 56 33  1  0
 15 57  1  6
M  CHG  1  15   1
M  END
>  <b_m_subgroup_collapsed>  (179) 
0

>  <r_i_docking_score>  (179) 
-8.6755308588405704

>  <s_m_subgroup_title>  (179) 
glide-dock_SP_D22_pv

>  <s_m_subgroupid>  (179) 
glide-dock_SP_D22_pv

>  <Molecule ChEMBL ID>  (179) 
CHEMBL1081868

>  <Standard Type>  (179) 
Ki

>  <Standard Value>  (179) 
31.62

>  <label>  (179) 
1

$$$$
CHEMBL4092243
     RDKit          3D

 60 64  0  0  1  0  0  0  0  0999 V2000
    9.4930    3.6359  -16.1361 O   0  0  0  0  0  0  0  0  0  0  0  0
    9.6988    2.4504  -15.2899 S   0  0  0  0  0  0  0  0  0  0  0  0
   10.8860    1.6017  -15.4637 O   0  0  0  0  0  0  0  0  0  0  0  0
    9.6931    2.9724  -13.6407 N   0  0  0  0  0  0  0  0  0  0  0  0
    8.6743    3.9000  -13.1466 C   0  0  0  0  0  0  0  0  0  0  0  0
    9.1508    4.5425  -11.8355 C   0  0  0  0  0  0  0  0  0  0  0  0
    8.0304    5.3197  -11.1040 C   0  0  0  0  0  0  0  0  0  0  0  0
    8.4862    6.1722   -9.9709 N   0  0  1  0  0  0  0  0  0  0  0  0
    8.9446    5.4215   -8.7650 C   0  0  0  0  0  0  0  0  0  0  0  0
    9.7069    6.2789   -7.7515 C   0  0  0  0  0  0  0  0  0  0  0  0
   10.0905    7.5553   -7.9444 C   0  0  0  0  0  0  0  0  0  0  0  0
   10.8526    8.3464   -6.9351 C   0  0  0  0  0  0  0  0  0  0  0  0
   11.3217    9.5950   -7.2323 C   0  0  0  0  0  0  0  0  0  0  0  0
   11.9725   10.1147   -6.1395 N   0  0  0  0  0  0  0  0  0  0  0  0
   11.9564    9.2183   -5.1002 C   0  0  0  0  0  0  0  0  0  0  0  0
   12.4861    9.3210   -3.8055 C   0  0  0  0  0  0  0  0  0  0  0  0
   12.3379    8.2735   -2.9037 C   0  0  0  0  0  0  0  0  0  0  0  0
   11.6884    7.1142   -3.3225 C   0  0  0  0  0  0  0  0  0  0  0  0
   11.4792    6.1723   -2.3932 F   0  0  0  0  0  0  0  0  0  0  0  0
   11.2074    6.9722   -4.6469 C   0  0  0  0  0  0  0  0  0  0  0  0
   11.2804    8.0453   -5.5753 C   0  0  0  0  0  0  0  0  0  0  0  0
    9.6955    8.2259   -9.2592 C   0  0  0  0  0  0  0  0  0  0  0  0
    9.4342    7.2280  -10.3888 C   0  0  0  0  0  0  0  0  0  0  0  0
    8.2616    1.3905  -15.4299 C   0  0  0  0  0  0  0  0  0  0  0  0
    7.8791    0.5844  -14.3428 C   0  0  0  0  0  0  0  0  0  0  0  0
    6.7344   -0.2281  -14.4375 C   0  0  0  0  0  0  0  0  0  0  0  0
    6.0006   -0.2745  -15.6409 C   0  0  0  0  0  0  0  0  0  0  0  0
    4.8805   -1.1249  -15.7549 C   0  0  0  0  0  0  0  0  0  0  0  0
    4.1662   -1.1962  -16.9660 C   0  0  0  0  0  0  0  0  0  0  0  0
    4.5680   -0.4149  -18.0674 C   0  0  0  0  0  0  0  0  0  0  0  0
    5.6805    0.4442  -17.9579 C   0  0  0  0  0  0  0  0  0  0  0  0
    6.4035    0.5179  -16.7475 C   0  0  0  0  0  0  0  0  0  0  0  0
    7.5253    1.3673  -16.6314 C   0  0  0  0  0  0  0  0  0  0  0  0
    9.9108    2.2150  -12.9858 H   0  0  0  0  0  0  0  0  0  0  0  0
    7.7315    3.3721  -13.0110 H   0  0  0  0  0  0  0  0  0  0  0  0
    8.4940    4.6746  -13.8930 H   0  0  0  0  0  0  0  0  0  0  0  0
    9.9850    5.1946  -12.0895 H   0  0  0  0  0  0  0  0  0  0  0  0
    9.5595    3.7742  -11.1783 H   0  0  0  0  0  0  0  0  0  0  0  0
    7.2860    4.6140  -10.7404 H   0  0  0  0  0  0  0  0  0  0  0  0
    7.5108    5.9645  -11.8140 H   0  0  0  0  0  0  0  0  0  0  0  0
    9.6109    4.6100   -9.0547 H   0  0  0  0  0  0  0  0  0  0  0  0
    8.0855    4.9669   -8.2731 H   0  0  0  0  0  0  0  0  0  0  0  0
    9.9646    5.7724   -6.8394 H   0  0  0  0  0  0  0  0  0  0  0  0
   11.2857   10.1716   -8.1411 H   0  0  0  0  0  0  0  0  0  0  0  0
   12.4158   11.0212   -6.1344 H   0  0  0  0  0  0  0  0  0  0  0  0
   13.0413   10.1723   -3.4789 H   0  0  0  0  0  0  0  0  0  0  0  0
   12.7127    8.3588   -1.8936 H   0  0  0  0  0  0  0  0  0  0  0  0
   10.7034    6.0564   -4.9032 H   0  0  0  0  0  0  0  0  0  0  0  0
    8.8341    8.8735   -9.0859 H   0  0  0  0  0  0  0  0  0  0  0  0
   10.5050    8.8563   -9.6229 H   0  0  0  0  0  0  0  0  0  0  0  0
    9.0445    7.7569  -11.2600 H   0  0  0  0  0  0  0  0  0  0  0  0
   10.3868    6.7829  -10.6780 H   0  0  0  0  0  0  0  0  0  0  0  0
    8.4735    0.5792  -13.4467 H   0  0  0  0  0  0  0  0  0  0  0  0
    6.4497   -0.8486  -13.5994 H   0  0  0  0  0  0  0  0  0  0  0  0
    4.5729   -1.7395  -14.9222 H   0  0  0  0  0  0  0  0  0  0  0  0
    3.3135   -1.8566  -17.0502 H   0  0  0  0  0  0  0  0  0  0  0  0
    4.0168   -0.4703  -18.9947 H   0  0  0  0  0  0  0  0  0  0  0  0
    5.9786    1.0344  -18.8106 H   0  0  0  0  0  0  0  0  0  0  0  0
    7.8374    1.9818  -17.4625 H   0  0  0  0  0  0  0  0  0  0  0  0
    7.6477    6.6972   -9.7065 H   0  0  0  0  0  0  0  0  0  0  0  0
  2  1  2  0
  3  2  2  0
  4  2  1  0
  5  4  1  0
  6  5  1  0
  7  6  1  0
  8  7  1  0
  9  8  1  0
 10  9  1  0
 11 10  2  0
 12 11  1  0
 13 12  2  0
 14 13  1  0
 15 14  1  0
 16 15  2  0
 17 16  1  0
 18 17  2  0
 19 18  1  0
 20 18  1  0
 21 12  1  0
 21 15  1  0
 21 20  2  0
 22 11  1  0
 23  8  1  0
 23 22  1  0
 24  2  1  0
 25 24  1  0
 26 25  2  0
 27 26  1  0
 28 27  2  0
 29 28  1  0
 30 29  2  0
 31 30  1  0
 32 27  1  0
 32 31  2  0
 33 24  2  0
 33 32  1  0
 34  4  1  0
 35  5  1  0
 36  5  1  0
 37  6  1  0
 38  6  1  0
 39  7  1  0
 40  7  1  0
 41  9  1  0
 42  9  1  0
 43 10  1  0
 44 13  1  0
 45 14  1  0
 46 16  1  0
 47 17  1  0
 48 20  1  0
 49 22  1  0
 50 22  1  0
 51 23  1  0
 52 23  1  0
 53 25  1  0
 54 26  1  0
 55 28  1  0
 56 29  1  0
 57 30  1  0
 58 31  1  0
 59 33  1  0
  8 60  1  1
M  CHG  1   8   1
M  END
>  <b_m_subgroup_collapsed>  (180) 
0

>  <r_i_docking_score>  (180) 
-8.6704621154065098

>  <s_m_subgroup_title>  (180) 
glide-dock_SP_D22_pv

>  <s_m_subgroupid>  (180) 
glide-dock_SP_D22_pv

>  <Molecule ChEMBL ID>  (180) 
CHEMBL4092243

>  <Standard Type>  (180) 
Ki

>  <Standard Value>  (180) 
0.7

>  <label>  (180) 
1

$$$$
CHEMBL3932186
     RDKit          3D

 62 66  0  0  1  0  0  0  0  0999 V2000
    7.7351    2.1723  -17.9212 O   0  0  0  0  0  0  0  0  0  0  0  0
    7.2601    1.2796  -17.2216 C   0  0  0  0  0  0  0  0  0  0  0  0
    7.7390    0.9592  -16.0108 N   0  0  0  0  0  0  0  0  0  0  0  0
    8.9021    1.5558  -15.3553 C   0  0  0  0  0  0  0  0  0  0  0  0
    8.6522    2.9624  -14.7517 C   0  0  1  0  0  0  0  0  0  0  0  0
    7.2878    3.0651  -14.0322 C   0  0  0  0  0  0  0  0  0  0  0  0
    7.1249    4.3378  -13.1721 C   0  0  0  0  0  0  0  0  0  0  0  0
    8.3177    4.6115  -12.2307 C   0  0  2  0  0  0  0  0  0  0  0  0
    8.0918    5.8743  -11.3666 C   0  0  0  0  0  0  0  0  0  0  0  0
    9.1992    6.1002  -10.3936 N   0  0  0  0  0  0  0  0  0  0  0  0
    9.8626    7.4152  -10.5652 C   0  0  0  0  0  0  0  0  0  0  0  0
   11.1047    7.5152   -9.6642 C   0  0  0  0  0  0  0  0  0  0  0  0
   10.7791    7.2448   -8.2593 N   0  0  0  0  0  0  0  0  0  0  0  0
   11.0784    8.1909   -7.2366 C   0  0  0  0  0  0  0  0  0  0  0  0
   11.2754    9.4434   -7.5820 N   0  0  0  0  0  0  0  0  0  0  0  0
   11.5642   10.4203   -6.2497 S   0  0  0  0  0  0  0  0  0  0  0  0
   11.6073    9.1173   -5.1459 C   0  0  0  0  0  0  0  0  0  0  0  0
   11.9389    9.1965   -3.8007 C   0  0  0  0  0  0  0  0  0  0  0  0
   12.0059    8.0240   -3.0651 C   0  0  0  0  0  0  0  0  0  0  0  0
   12.4861    8.1725   -1.4469 Cl  0  0  0  0  0  0  0  0  0  0  0  0
   11.6861    6.7873   -3.6520 C   0  0  0  0  0  0  0  0  0  0  0  0
   11.3116    6.7336   -5.0126 C   0  0  0  0  0  0  0  0  0  0  0  0
   11.2860    7.8975   -5.8213 C   0  0  0  0  0  0  0  0  0  0  0  0
   10.0280    6.0137   -8.0217 C   0  0  0  0  0  0  0  0  0  0  0  0
    8.8190    5.8830   -8.9736 C   0  0  0  0  0  0  0  0  0  0  0  0
    9.5986    4.6779  -13.0843 C   0  0  0  0  0  0  0  0  0  0  0  0
    9.8232    3.3487  -13.8193 C   0  0  0  0  0  0  0  0  0  0  0  0
    6.0877    0.5075  -17.6813 C   0  0  0  0  0  0  0  0  0  0  0  0
    5.5003   -0.6301  -17.1913 C   0  0  0  0  0  0  0  0  0  0  0  0
    4.4183   -0.9390  -18.0624 C   0  0  0  0  0  0  0  0  0  0  0  0
    4.4278    0.0242  -19.0305 C   0  0  0  0  0  0  0  0  0  0  0  0
    5.4362    0.9125  -18.8118 O   0  0  0  0  0  0  0  0  0  0  0  0
    7.2776    0.2085  -15.5181 H   0  0  0  0  0  0  0  0  0  0  0  0
    9.1949    0.8669  -14.5616 H   0  0  0  0  0  0  0  0  0  0  0  0
    9.7421    1.5878  -16.0512 H   0  0  0  0  0  0  0  0  0  0  0  0
    8.6443    3.6831  -15.5683 H   0  0  0  0  0  0  0  0  0  0  0  0
    6.4858    3.0503  -14.7712 H   0  0  0  0  0  0  0  0  0  0  0  0
    7.1270    2.1667  -13.4469 H   0  0  0  0  0  0  0  0  0  0  0  0
    6.2000    4.2709  -12.5971 H   0  0  0  0  0  0  0  0  0  0  0  0
    7.0061    5.1862  -13.8433 H   0  0  0  0  0  0  0  0  0  0  0  0
    8.4041    3.7723  -11.5440 H   0  0  0  0  0  0  0  0  0  0  0  0
    7.9630    6.7436  -12.0140 H   0  0  0  0  0  0  0  0  0  0  0  0
    7.1479    5.7722  -10.8299 H   0  0  0  0  0  0  0  0  0  0  0  0
   10.1589    7.5486  -11.6065 H   0  0  0  0  0  0  0  0  0  0  0  0
    9.1567    8.2142  -10.3279 H   0  0  0  0  0  0  0  0  0  0  0  0
   11.8469    6.7897   -9.9889 H   0  0  0  0  0  0  0  0  0  0  0  0
   11.5741    8.4886   -9.8069 H   0  0  0  0  0  0  0  0  0  0  0  0
   12.1804   10.1458   -3.3449 H   0  0  0  0  0  0  0  0  0  0  0  0
   11.7347    5.8812   -3.0657 H   0  0  0  0  0  0  0  0  0  0  0  0
   11.1097    5.7724   -5.4511 H   0  0  0  0  0  0  0  0  0  0  0  0
   10.7012    5.1663   -8.1507 H   0  0  0  0  0  0  0  0  0  0  0  0
    9.6526    5.9810   -7.0008 H   0  0  0  0  0  0  0  0  0  0  0  0
    8.0860    6.6324   -8.6901 H   0  0  0  0  0  0  0  0  0  0  0  0
    8.3483    4.9063   -8.8526 H   0  0  0  0  0  0  0  0  0  0  0  0
   10.4696    4.8822  -12.4623 H   0  0  0  0  0  0  0  0  0  0  0  0
    9.5333    5.4957  -13.8036 H   0  0  0  0  0  0  0  0  0  0  0  0
    9.9734    2.5724  -13.0693 H   0  0  0  0  0  0  0  0  0  0  0  0
   10.7492    3.3999  -14.3936 H   0  0  0  0  0  0  0  0  0  0  0  0
    5.8111   -1.1836  -16.3168 H   0  0  0  0  0  0  0  0  0  0  0  0
    3.7247   -1.7653  -17.9918 H   0  0  0  0  0  0  0  0  0  0  0  0
    3.8165    0.2191  -19.9001 H   0  0  0  0  0  0  0  0  0  0  0  0
    9.8972    5.4028  -10.6033 H   0  0  0  0  0  0  0  0  0  0  0  0
  2  1  2  0
  3  2  1  0
  4  3  1  0
  5  4  1  0
  6  5  1  0
  7  6  1  0
  8  7  1  0
  9  8  1  0
 10  9  1  0
 11 10  1  0
 12 11  1  0
 13 12  1  0
 14 13  1  0
 15 14  2  0
 16 15  1  0
 17 16  1  0
 18 17  2  0
 19 18  1  0
 20 19  1  0
 21 19  2  0
 22 21  1  0
 23 14  1  0
 23 17  1  0
 23 22  2  0
 24 13  1  0
 25 10  1  0
 25 24  1  0
 26  8  1  0
 27  5  1  0
 27 26  1  0
 28  2  1  0
 29 28  2  0
 30 29  1  0
 31 30  2  0
 32 28  1  0
 32 31  1  0
 33  3  1  0
 34  4  1  0
 35  4  1  0
  5 36  1  6
 37  6  1  0
 38  6  1  0
 39  7  1  0
 40  7  1  0
  8 41  1  1
 42  9  1  0
 43  9  1  0
 44 11  1  0
 45 11  1  0
 46 12  1  0
 47 12  1  0
 48 18  1  0
 49 21  1  0
 50 22  1  0
 51 24  1  0
 52 24  1  0
 53 25  1  0
 54 25  1  0
 55 26  1  0
 56 26  1  0
 57 27  1  0
 58 27  1  0
 59 29  1  0
 60 30  1  0
 61 31  1  0
 62 10  1  0
M  CHG  1  10   1
M  END
>  <b_m_subgroup_collapsed>  (181) 
0

>  <r_i_docking_score>  (181) 
-8.6675332035731607

>  <s_m_subgroup_title>  (181) 
glide-dock_SP_D22_pv

>  <s_m_subgroupid>  (181) 
glide-dock_SP_D22_pv

>  <Molecule ChEMBL ID>  (181) 
CHEMBL3932186

>  <Standard Type>  (181) 
Ki

>  <Standard Value>  (181) 
2.1

>  <label>  (181) 
1

$$$$
CHEMBL1204203
     RDKit          3D

 66 69  0  0  1  0  0  0  0  0999 V2000
   11.2766   -0.5467  -18.1671 C   0  0  0  0  0  0  0  0  0  0  0  0
   10.0972   -0.8318  -17.2304 C   0  0  0  0  0  0  0  0  0  0  0  0
    9.7123    0.6547  -16.2283 S   0  0  0  0  0  0  0  0  0  0  0  0
    9.2579    1.7373  -17.1171 O   0  0  0  0  0  0  0  0  0  0  0  0
   10.7924    0.8811  -15.2554 O   0  0  0  0  0  0  0  0  0  0  0  0
    8.3325    0.1750  -15.3044 N   0  0  0  0  0  0  0  0  0  0  0  0
    7.4721    1.0030  -14.5755 C   0  0  0  0  0  0  0  0  0  0  0  0
    6.2336    0.4883  -14.1578 C   0  0  0  0  0  0  0  0  0  0  0  0
    5.3415    1.3054  -13.4464 C   0  0  0  0  0  0  0  0  0  0  0  0
    5.6853    2.6376  -13.1455 C   0  0  0  0  0  0  0  0  0  0  0  0
    6.9367    3.1834  -13.5197 C   0  0  0  0  0  0  0  0  0  0  0  0
    7.2876    4.5083  -13.1512 N   0  0  0  0  0  0  0  0  0  0  0  0
    6.7472    5.0995  -11.9215 C   0  0  0  0  0  0  0  0  0  0  0  0
    7.8609    5.2998  -10.8835 C   0  0  0  0  0  0  0  0  0  0  0  0
    8.9621    6.1193  -11.4474 N   0  0  0  0  0  0  0  0  0  0  0  0
   10.0035    6.5057  -10.4575 C   0  0  0  0  0  0  0  0  0  0  0  0
    9.4987    7.5043   -9.3968 C   0  0  0  0  0  0  0  0  0  0  0  0
   10.5807    7.8582   -8.3677 C   0  0  0  0  0  0  0  0  0  0  0  0
   10.0053    8.6097   -7.1493 C   0  0  0  0  0  0  0  0  0  0  0  0
   10.9457    8.6587   -6.0232 N   0  0  0  0  0  0  0  0  0  0  0  0
   11.4610    9.7718   -5.4886 C   0  0  0  0  0  0  0  0  0  0  0  0
   11.2859   10.9307   -5.8509 O   0  0  0  0  0  0  0  0  0  0  0  0
   12.3439    9.3724   -4.3233 C   0  0  1  0  0  0  0  0  0  0  0  0
   11.9718    9.8178   -2.9176 C   0  0  0  0  0  0  0  0  0  0  0  0
   12.4369    8.6286   -2.0612 C   0  0  0  0  0  0  0  0  0  0  0  0
   12.1160    7.4046   -2.9322 C   0  0  0  0  0  0  0  0  0  0  0  0
   12.0470    7.9729   -4.2713 N   0  0  0  0  0  0  0  0  0  0  0  0
   11.2860    7.5781   -5.2980 C   0  0  0  0  0  0  0  0  0  0  0  0
   10.8854    6.4409   -5.4822 O   0  0  0  0  0  0  0  0  0  0  0  0
    9.5293    5.4644  -12.6589 C   0  0  0  0  0  0  0  0  0  0  0  0
    8.4392    5.2113  -13.7198 C   0  0  0  0  0  0  0  0  0  0  0  0
    7.8216    2.3393  -14.2469 C   0  0  0  0  0  0  0  0  0  0  0  0
   11.5363   -1.4274  -18.7522 H   0  0  0  0  0  0  0  0  0  0  0  0
   11.0368    0.2571  -18.8633 H   0  0  0  0  0  0  0  0  0  0  0  0
   12.1603   -0.2431  -17.6059 H   0  0  0  0  0  0  0  0  0  0  0  0
   10.3321   -1.6481  -16.5493 H   0  0  0  0  0  0  0  0  0  0  0  0
    9.2059   -1.1006  -17.7987 H   0  0  0  0  0  0  0  0  0  0  0  0
    8.0357   -0.7869  -15.4218 H   0  0  0  0  0  0  0  0  0  0  0  0
    5.9532   -0.5285  -14.3948 H   0  0  0  0  0  0  0  0  0  0  0  0
    4.3779    0.9196  -13.1469 H   0  0  0  0  0  0  0  0  0  0  0  0
    4.9431    3.2331  -12.6367 H   0  0  0  0  0  0  0  0  0  0  0  0
    6.2906    6.0597  -12.1650 H   0  0  0  0  0  0  0  0  0  0  0  0
    5.9672    4.5056  -11.4518 H   0  0  0  0  0  0  0  0  0  0  0  0
    7.4297    5.7721  -10.0084 H   0  0  0  0  0  0  0  0  0  0  0  0
    8.2471    4.3352  -10.5529 H   0  0  0  0  0  0  0  0  0  0  0  0
   10.4078    5.6123   -9.9766 H   0  0  0  0  0  0  0  0  0  0  0  0
   10.8351    6.9718  -10.9865 H   0  0  0  0  0  0  0  0  0  0  0  0
    9.1222    8.4096   -9.8722 H   0  0  0  0  0  0  0  0  0  0  0  0
    8.6553    7.0779   -8.8534 H   0  0  0  0  0  0  0  0  0  0  0  0
   11.0514    6.9309   -8.0425 H   0  0  0  0  0  0  0  0  0  0  0  0
   11.3690    8.4493   -8.8323 H   0  0  0  0  0  0  0  0  0  0  0  0
    9.6918    9.6094   -7.4479 H   0  0  0  0  0  0  0  0  0  0  0  0
    9.0957    8.1160   -6.7998 H   0  0  0  0  0  0  0  0  0  0  0  0
   13.3958    9.5401   -4.5560 H   0  0  0  0  0  0  0  0  0  0  0  0
   10.8943    9.9525   -2.8406 H   0  0  0  0  0  0  0  0  0  0  0  0
   12.4417   10.7537   -2.6465 H   0  0  0  0  0  0  0  0  0  0  0  0
   11.9454    8.5821   -1.0889 H   0  0  0  0  0  0  0  0  0  0  0  0
   13.5090    8.7035   -1.8809 H   0  0  0  0  0  0  0  0  0  0  0  0
   11.1639    6.9554   -2.6495 H   0  0  0  0  0  0  0  0  0  0  0  0
   12.8864    6.6357   -2.8643 H   0  0  0  0  0  0  0  0  0  0  0  0
   10.3094    6.0914  -13.0897 H   0  0  0  0  0  0  0  0  0  0  0  0
    9.9998    4.5207  -12.3762 H   0  0  0  0  0  0  0  0  0  0  0  0
    8.8551    4.7181  -14.5959 H   0  0  0  0  0  0  0  0  0  0  0  0
    8.0872    6.1730  -14.0844 H   0  0  0  0  0  0  0  0  0  0  0  0
    8.7979    2.6875  -14.5384 H   0  0  0  0  0  0  0  0  0  0  0  0
    8.5248    6.9789  -11.7494 H   0  0  0  0  0  0  0  0  0  0  0  0
  2  1  1  0
  3  2  1  0
  4  3  2  0
  5  3  2  0
  6  3  1  0
  7  6  1  0
  8  7  2  0
  9  8  1  0
 10  9  2  0
 11 10  1  0
 12 11  1  0
 13 12  1  0
 14 13  1  0
 15 14  1  0
 16 15  1  0
 17 16  1  0
 18 17  1  0
 19 18  1  0
 20 19  1  0
 21 20  1  0
 22 21  2  0
 23 21  1  0
 24 23  1  0
 25 24  1  0
 26 25  1  0
 27 23  1  0
 27 26  1  0
 28 20  1  0
 28 27  1  0
 29 28  2  0
 30 15  1  0
 31 12  1  0
 31 30  1  0
 32  7  1  0
 32 11  2  0
 33  1  1  0
 34  1  1  0
 35  1  1  0
 36  2  1  0
 37  2  1  0
 38  6  1  0
 39  8  1  0
 40  9  1  0
 41 10  1  0
 42 13  1  0
 43 13  1  0
 44 14  1  0
 45 14  1  0
 46 16  1  0
 47 16  1  0
 48 17  1  0
 49 17  1  0
 50 18  1  0
 51 18  1  0
 52 19  1  0
 53 19  1  0
 23 54  1  6
 55 24  1  0
 56 24  1  0
 57 25  1  0
 58 25  1  0
 59 26  1  0
 60 26  1  0
 61 30  1  0
 62 30  1  0
 63 31  1  0
 64 31  1  0
 65 32  1  0
 66 15  1  0
M  CHG  1  15   1
M  END
>  <b_m_subgroup_collapsed>  (182) 
0

>  <r_i_docking_score>  (182) 
-8.6669623953038109

>  <s_m_subgroup_title>  (182) 
glide-dock_SP_D22_pv

>  <s_m_subgroupid>  (182) 
glide-dock_SP_D22_pv

>  <Molecule ChEMBL ID>  (182) 
CHEMBL1204203

>  <Standard Type>  (182) 
Ki

>  <Standard Value>  (182) 
22.0

>  <label>  (182) 
1

$$$$
CHEMBL5854151
     RDKit          3D

 71 76  0  0  1  0  0  0  0  0999 V2000
    2.8737   -3.4269  -19.0571 O   0  0  0  0  0  0  0  0  0  0  0  0
    3.8168   -2.7464  -19.4376 N   0  0  0  0  0  0  0  0  0  0  0  0
    4.1847   -2.6870  -20.6070 O   0  0  0  0  0  0  0  0  0  0  0  0
    4.5623   -1.9635  -18.4369 C   0  0  0  0  0  0  0  0  0  0  0  0
    4.0272   -1.7491  -17.1492 C   0  0  0  0  0  0  0  0  0  0  0  0
    4.7637   -1.0556  -16.1775 C   0  0  0  0  0  0  0  0  0  0  0  0
    6.0554   -0.5987  -16.4843 C   0  0  0  0  0  0  0  0  0  0  0  0
    7.1954    0.1725  -15.3993 S   0  0  0  0  0  0  0  0  0  0  0  0
    8.4192    0.1874  -16.6463 C   0  0  0  0  0  0  0  0  0  0  0  0
   10.1220    0.5916  -16.2899 S   0  0  0  0  0  0  0  0  0  0  0  0
   10.9295   -0.1290  -17.2867 O   0  0  0  0  0  0  0  0  0  0  0  0
   10.3230    0.3564  -14.8528 O   0  0  0  0  0  0  0  0  0  0  0  0
   10.3026    2.2841  -16.6203 N   0  0  0  0  0  0  0  0  0  0  0  0
    9.9246    3.3560  -15.6819 C   0  0  1  0  0  0  0  0  0  0  0  0
    8.5199    3.1476  -15.1098 C   0  0  0  0  0  0  0  0  0  0  0  0
    8.1001    4.3198  -14.2226 C   0  0  0  0  0  0  0  0  0  0  0  0
    9.0655    4.4081  -13.0380 C   0  0  2  0  0  0  0  0  0  0  0  0
    8.6033    5.4708  -12.0279 C   0  0  0  0  0  0  0  0  0  0  0  0
    9.1131    5.1287  -10.6234 C   0  0  0  0  0  0  0  0  0  0  0  0
    8.8068    6.1290   -9.5807 N   0  0  0  0  0  0  0  0  0  0  0  0
    9.3981    7.4609   -9.8582 C   0  0  0  0  0  0  0  0  0  0  0  0
    9.1557    8.4262   -8.7013 C   0  0  0  0  0  0  0  0  0  0  0  0
    9.6709    7.8401   -7.4637 N   0  0  0  0  0  0  0  0  0  0  0  0
   10.5718    8.5492   -6.6293 C   0  0  0  0  0  0  0  0  0  0  0  0
   10.8862    9.7604   -7.0221 N   0  0  0  0  0  0  0  0  0  0  0  0
   11.6869   10.5725   -5.8479 S   0  0  0  0  0  0  0  0  0  0  0  0
   11.8114    9.2211   -4.7591 C   0  0  0  0  0  0  0  0  0  0  0  0
   12.4022    9.1702   -3.4846 C   0  0  0  0  0  0  0  0  0  0  0  0
   12.4326    7.9572   -2.7835 C   0  0  0  0  0  0  0  0  0  0  0  0
   11.8939    6.8068   -3.3795 C   0  0  0  0  0  0  0  0  0  0  0  0
   11.2862    6.8770   -4.6510 C   0  0  0  0  0  0  0  0  0  0  0  0
   11.1869    8.0943   -5.3774 C   0  0  0  0  0  0  0  0  0  0  0  0
    8.9696    6.6174   -7.1123 C   0  0  0  0  0  0  0  0  0  0  0  0
    9.1492    5.5859   -8.2356 C   0  0  0  0  0  0  0  0  0  0  0  0
   10.5096    4.6311  -13.5583 C   0  0  0  0  0  0  0  0  0  0  0  0
   10.9469    3.5232  -14.5388 C   0  0  0  0  0  0  0  0  0  0  0  0
    7.9784   -0.2621  -17.8645 C   0  0  0  0  0  0  0  0  0  0  0  0
    6.6311   -0.7794  -17.7830 C   0  0  0  0  0  0  0  0  0  0  0  0
    5.8425   -1.4474  -18.7434 C   0  0  0  0  0  0  0  0  0  0  0  0
    3.0577   -2.1487  -16.8895 H   0  0  0  0  0  0  0  0  0  0  0  0
    4.3568   -0.9224  -15.1851 H   0  0  0  0  0  0  0  0  0  0  0  0
   11.1942    2.4725  -17.0742 H   0  0  0  0  0  0  0  0  0  0  0  0
    9.9148    4.2813  -16.2591 H   0  0  0  0  0  0  0  0  0  0  0  0
    8.5262    2.2653  -14.4749 H   0  0  0  0  0  0  0  0  0  0  0  0
    7.7998    2.9716  -15.9077 H   0  0  0  0  0  0  0  0  0  0  0  0
    7.0765    4.1592  -13.8749 H   0  0  0  0  0  0  0  0  0  0  0  0
    8.1081    5.2608  -14.7752 H   0  0  0  0  0  0  0  0  0  0  0  0
    9.0476    3.4407  -12.5333 H   0  0  0  0  0  0  0  0  0  0  0  0
    7.5131    5.5204  -11.9926 H   0  0  0  0  0  0  0  0  0  0  0  0
    8.9445    6.4467  -12.3691 H   0  0  0  0  0  0  0  0  0  0  0  0
   10.1846    4.9785  -10.6526 H   0  0  0  0  0  0  0  0  0  0  0  0
    8.6790    4.1771  -10.3214 H   0  0  0  0  0  0  0  0  0  0  0  0
    8.9575    7.8979  -10.7536 H   0  0  0  0  0  0  0  0  0  0  0  0
   10.4705    7.3611  -10.0383 H   0  0  0  0  0  0  0  0  0  0  0  0
    8.0889    8.6293   -8.5737 H   0  0  0  0  0  0  0  0  0  0  0  0
    9.6083    9.3765   -8.9751 H   0  0  0  0  0  0  0  0  0  0  0  0
   12.8339   10.0579   -3.0495 H   0  0  0  0  0  0  0  0  0  0  0  0
   12.8763    7.9071   -1.7998 H   0  0  0  0  0  0  0  0  0  0  0  0
   11.9330    5.8628   -2.8551 H   0  0  0  0  0  0  0  0  0  0  0  0
   10.9001    5.9575   -5.0556 H   0  0  0  0  0  0  0  0  0  0  0  0
    9.2701    6.2075   -6.1579 H   0  0  0  0  0  0  0  0  0  0  0  0
    7.9139    6.8528   -6.9900 H   0  0  0  0  0  0  0  0  0  0  0  0
    8.5336    4.7076   -8.0330 H   0  0  0  0  0  0  0  0  0  0  0  0
   10.1887    5.2524   -8.2422 H   0  0  0  0  0  0  0  0  0  0  0  0
   10.5745    5.6011  -14.0560 H   0  0  0  0  0  0  0  0  0  0  0  0
   11.2193    4.6677  -12.7329 H   0  0  0  0  0  0  0  0  0  0  0  0
   11.0539    2.5931  -13.9830 H   0  0  0  0  0  0  0  0  0  0  0  0
   11.9316    3.7522  -14.9444 H   0  0  0  0  0  0  0  0  0  0  0  0
    8.5996   -0.3305  -18.7437 H   0  0  0  0  0  0  0  0  0  0  0  0
    6.2593   -1.6129  -19.7248 H   0  0  0  0  0  0  0  0  0  0  0  0
    7.8043    6.2975   -9.5845 H   0  0  0  0  0  0  0  0  0  0  0  0
  2  1  2  0
  3  2  1  0
  4  2  1  0
  5  4  2  0
  6  5  1  0
  7  6  2  0
  8  7  1  0
  9  8  1  0
 10  9  1  0
 11 10  2  0
 12 10  2  0
 13 10  1  0
 14 13  1  0
 15 14  1  0
 16 15  1  0
 17 16  1  0
 18 17  1  0
 19 18  1  0
 20 19  1  0
 21 20  1  0
 22 21  1  0
 23 22  1  0
 24 23  1  0
 25 24  2  0
 26 25  1  0
 27 26  1  0
 28 27  2  0
 29 28  1  0
 30 29  2  0
 31 30  1  0
 32 24  1  0
 32 27  1  0
 32 31  2  0
 33 23  1  0
 34 20  1  0
 34 33  1  0
 35 17  1  0
 36 14  1  0
 36 35  1  0
 37  9  2  0
 38  7  1  0
 38 37  1  0
 39  4  1  0
 39 38  2  0
 40  5  1  0
 41  6  1  0
 42 13  1  0
 14 43  1  6
 44 15  1  0
 45 15  1  0
 46 16  1  0
 47 16  1  0
 17 48  1  1
 49 18  1  0
 50 18  1  0
 51 19  1  0
 52 19  1  0
 53 21  1  0
 54 21  1  0
 55 22  1  0
 56 22  1  0
 57 28  1  0
 58 29  1  0
 59 30  1  0
 60 31  1  0
 61 33  1  0
 62 33  1  0
 63 34  1  0
 64 34  1  0
 65 35  1  0
 66 35  1  0
 67 36  1  0
 68 36  1  0
 69 37  1  0
 70 39  1  0
 71 20  1  0
M  CHG  3   2   1   3  -1  20   1
M  END
>  <b_m_subgroup_collapsed>  (183) 
0

>  <r_i_docking_score>  (183) 
-8.6624443071423691

>  <s_m_subgroup_title>  (183) 
glide-dock_SP_D22_pv

>  <s_m_subgroupid>  (183) 
glide-dock_SP_D22_pv

>  <Molecule ChEMBL ID>  (183) 
CHEMBL5854151

>  <Standard Type>  (183) 
Ki

>  <Standard Value>  (183) 
6.49

>  <label>  (183) 
1

$$$$
CHEMBL4577206
     RDKit          3D

 64 67  0  0  1  0  0  0  0  0999 V2000
   12.9955   -0.4637  -21.3794 C   0  0  0  0  0  0  0  0  0  0  0  0
   11.6913   -0.6276  -20.8397 O   0  0  0  0  0  0  0  0  0  0  0  0
   11.4599   -0.1808  -19.5577 C   0  0  0  0  0  0  0  0  0  0  0  0
   12.4026    0.5339  -18.7830 C   0  0  0  0  0  0  0  0  0  0  0  0
   12.0829    0.9514  -17.4761 C   0  0  0  0  0  0  0  0  0  0  0  0
   10.8239    0.6571  -16.9006 C   0  0  0  0  0  0  0  0  0  0  0  0
   10.5311    1.0442  -15.5729 N   0  0  0  0  0  0  0  0  0  0  0  0
    9.4912    0.3976  -14.7827 C   0  0  0  0  0  0  0  0  0  0  0  0
    8.3635    1.4000  -14.4886 C   0  0  0  0  0  0  0  0  0  0  0  0
    8.8876    2.6385  -13.8479 N   0  0  0  0  0  0  0  0  0  0  0  0
    7.7813    3.5713  -13.4955 C   0  0  0  0  0  0  0  0  0  0  0  0
    8.1483    4.6775  -12.4809 C   0  0  0  0  0  0  0  0  0  0  0  0
    8.6614    5.9868  -13.1162 C   0  0  0  0  0  0  0  0  0  0  0  0
    8.3339    7.2527  -12.3074 C   0  0  0  0  0  0  0  0  0  0  0  0
    8.8875    7.2517  -10.9653 N   0  0  0  0  0  0  0  0  0  0  0  0
   10.1825    7.3742  -10.6449 C   0  0  0  0  0  0  0  0  0  0  0  0
   11.0901    7.3785  -11.4772 O   0  0  0  0  0  0  0  0  0  0  0  0
   10.4728    7.5942   -9.1898 C   0  0  0  0  0  0  0  0  0  0  0  0
   11.5070    8.4766   -8.8109 C   0  0  0  0  0  0  0  0  0  0  0  0
   11.8195    8.6671   -7.4520 C   0  0  0  0  0  0  0  0  0  0  0  0
   11.1222    7.9554   -6.4536 C   0  0  0  0  0  0  0  0  0  0  0  0
   11.4987    8.0989   -5.0484 C   0  0  0  0  0  0  0  0  0  0  0  0
   11.7419    9.3815   -4.4662 C   0  0  0  0  0  0  0  0  0  0  0  0
   12.0816    9.3206   -3.1403 C   0  0  0  0  0  0  0  0  0  0  0  0
   12.0874    7.6804   -2.5609 S   0  0  0  0  0  0  0  0  0  0  0  0
   11.6857    7.0836   -4.1441 C   0  0  0  0  0  0  0  0  0  0  0  0
   10.0832    7.0778   -6.8283 C   0  0  0  0  0  0  0  0  0  0  0  0
    9.7551    6.9002   -8.1872 C   0  0  0  0  0  0  0  0  0  0  0  0
    9.9682    3.2656  -14.6577 C   0  0  0  0  0  0  0  0  0  0  0  0
   11.0858    2.2682  -15.0029 C   0  0  0  0  0  0  0  0  0  0  0  0
    9.8812   -0.0470  -17.6885 C   0  0  0  0  0  0  0  0  0  0  0  0
   10.1982   -0.4576  -18.9970 C   0  0  0  0  0  0  0  0  0  0  0  0
   13.0343   -0.9110  -22.3722 H   0  0  0  0  0  0  0  0  0  0  0  0
   13.2552    0.5909  -21.4831 H   0  0  0  0  0  0  0  0  0  0  0  0
   13.7463   -0.9627  -20.7632 H   0  0  0  0  0  0  0  0  0  0  0  0
   13.3842    0.7716  -19.1637 H   0  0  0  0  0  0  0  0  0  0  0  0
   12.8484    1.4615  -16.9129 H   0  0  0  0  0  0  0  0  0  0  0  0
    9.9401    0.0656  -13.8475 H   0  0  0  0  0  0  0  0  0  0  0  0
    9.1029   -0.5067  -15.2488 H   0  0  0  0  0  0  0  0  0  0  0  0
    7.6234    0.9221  -13.8475 H   0  0  0  0  0  0  0  0  0  0  0  0
    7.8523    1.6596  -15.4163 H   0  0  0  0  0  0  0  0  0  0  0  0
    6.9808    2.9814  -13.0477 H   0  0  0  0  0  0  0  0  0  0  0  0
    7.3412    3.9968  -14.3961 H   0  0  0  0  0  0  0  0  0  0  0  0
    8.8437    4.3136  -11.7239 H   0  0  0  0  0  0  0  0  0  0  0  0
    7.2336    4.9174  -11.9353 H   0  0  0  0  0  0  0  0  0  0  0  0
    8.2155    6.1191  -14.1006 H   0  0  0  0  0  0  0  0  0  0  0  0
    9.7360    5.9386  -13.2810 H   0  0  0  0  0  0  0  0  0  0  0  0
    7.2512    7.3584  -12.2464 H   0  0  0  0  0  0  0  0  0  0  0  0
    8.6762    8.1561  -12.8066 H   0  0  0  0  0  0  0  0  0  0  0  0
    8.1874    7.3667  -10.2364 H   0  0  0  0  0  0  0  0  0  0  0  0
   12.0729    9.0097   -9.5631 H   0  0  0  0  0  0  0  0  0  0  0  0
   12.6240    9.3369   -7.1836 H   0  0  0  0  0  0  0  0  0  0  0  0
   11.6556   10.2969   -5.0327 H   0  0  0  0  0  0  0  0  0  0  0  0
   12.3129   10.1364   -2.4690 H   0  0  0  0  0  0  0  0  0  0  0  0
   11.5777    6.0207   -4.3079 H   0  0  0  0  0  0  0  0  0  0  0  0
    9.5333    6.5354   -6.0730 H   0  0  0  0  0  0  0  0  0  0  0  0
    8.9604    6.2162   -8.4494 H   0  0  0  0  0  0  0  0  0  0  0  0
    9.5417    3.6780  -15.5728 H   0  0  0  0  0  0  0  0  0  0  0  0
   10.4207    4.0873  -14.1107 H   0  0  0  0  0  0  0  0  0  0  0  0
   11.6387    2.0071  -14.0998 H   0  0  0  0  0  0  0  0  0  0  0  0
   11.7931    2.7630  -15.6668 H   0  0  0  0  0  0  0  0  0  0  0  0
    8.8954   -0.2753  -17.3148 H   0  0  0  0  0  0  0  0  0  0  0  0
    9.4628   -0.9938  -19.5765 H   0  0  0  0  0  0  0  0  0  0  0  0
    9.3163    2.3312  -12.9826 H   0  0  0  0  0  0  0  0  0  0  0  0
  2  1  1  0
  3  2  1  0
  4  3  1  0
  5  4  2  0
  6  5  1  0
  7  6  1  0
  8  7  1  0
  9  8  1  0
 10  9  1  0
 11 10  1  0
 12 11  1  0
 13 12  1  0
 14 13  1  0
 15 14  1  0
 16 15  1  0
 17 16  2  0
 18 16  1  0
 19 18  1  0
 20 19  2  0
 21 20  1  0
 22 21  1  0
 23 22  1  0
 24 23  2  0
 25 24  1  0
 26 22  2  0
 26 25  1  0
 27 21  2  0
 28 18  2  0
 28 27  1  0
 29 10  1  0
 30  7  1  0
 30 29  1  0
 31  6  2  0
 32  3  2  0
 32 31  1  0
 33  1  1  0
 34  1  1  0
 35  1  1  0
 36  4  1  0
 37  5  1  0
 38  8  1  0
 39  8  1  0
 40  9  1  0
 41  9  1  0
 42 11  1  0
 43 11  1  0
 44 12  1  0
 45 12  1  0
 46 13  1  0
 47 13  1  0
 48 14  1  0
 49 14  1  0
 50 15  1  0
 51 19  1  0
 52 20  1  0
 53 23  1  0
 54 24  1  0
 55 26  1  0
 56 27  1  0
 57 28  1  0
 58 29  1  0
 59 29  1  0
 60 30  1  0
 61 30  1  0
 62 31  1  0
 63 32  1  0
 64 10  1  0
M  CHG  1  10   1
M  END
>  <b_m_subgroup_collapsed>  (184) 
0

>  <r_i_docking_score>  (184) 
-8.6592912946109806

>  <s_m_subgroup_title>  (184) 
glide-dock_SP_D22_pv

>  <s_m_subgroupid>  (184) 
glide-dock_SP_D22_pv

>  <Molecule ChEMBL ID>  (184) 
CHEMBL4577206

>  <Standard Type>  (184) 
Ki

>  <Standard Value>  (184) 
17000.0

>  <label>  (184) 
0

$$$$
CHEMBL246637
     RDKit          3D

 46 49  0  0  1  0  0  0  0  0999 V2000
    7.7965    6.9433  -12.2469 O   0  0  0  0  0  0  0  0  0  0  0  0
    8.9701    6.7010  -11.4829 C   0  0  1  0  0  0  0  0  0  0  0  0
   10.0179    6.0657  -12.4110 C   0  0  0  0  0  0  0  0  0  0  0  0
   11.2040    6.7353  -12.8079 C   0  0  0  0  0  0  0  0  0  0  0  0
   12.0354    6.1916  -13.8057 C   0  0  0  0  0  0  0  0  0  0  0  0
   11.7070    4.9668  -14.4121 C   0  0  0  0  0  0  0  0  0  0  0  0
   12.6890    4.3778  -15.7035 Cl  0  0  0  0  0  0  0  0  0  0  0  0
   10.5639    4.2579  -13.9867 C   0  0  0  0  0  0  0  0  0  0  0  0
   10.1530    2.7307  -14.6833 Cl  0  0  0  0  0  0  0  0  0  0  0  0
    9.7266    4.8134  -13.0008 C   0  0  0  0  0  0  0  0  0  0  0  0
    9.3653    8.0733  -10.8850 C   0  0  0  0  0  0  0  0  0  0  0  0
   10.4390    7.9659   -9.7834 C   0  0  0  0  0  0  0  0  0  0  0  0
   10.0124    7.0947   -8.6504 N   0  0  2  0  0  0  0  0  0  0  0  0
   11.0607    6.9932   -7.5852 C   0  0  0  0  0  0  0  0  0  0  0  0
   11.1039    8.0828   -6.5398 C   0  0  0  0  0  0  0  0  0  0  0  0
   11.0314    9.4385   -6.7327 C   0  0  0  0  0  0  0  0  0  0  0  0
   11.2529   10.0993   -5.5397 N   0  0  0  0  0  0  0  0  0  0  0  0
   11.5152    9.1995   -4.5335 C   0  0  0  0  0  0  0  0  0  0  0  0
   11.8477    9.3728   -3.1793 C   0  0  0  0  0  0  0  0  0  0  0  0
   12.0920    8.2463   -2.3777 C   0  0  0  0  0  0  0  0  0  0  0  0
   12.0172    6.9612   -2.9425 C   0  0  0  0  0  0  0  0  0  0  0  0
   11.6852    6.7991   -4.3031 C   0  0  0  0  0  0  0  0  0  0  0  0
   11.4134    7.9110   -5.1374 C   0  0  0  0  0  0  0  0  0  0  0  0
    9.6183    5.7419   -9.1501 C   0  0  0  0  0  0  0  0  0  0  0  0
    8.5821    5.7848  -10.2886 C   0  0  0  0  0  0  0  0  0  0  0  0
    7.1467    7.3113  -11.6430 H   0  0  0  0  0  0  0  0  0  0  0  0
   11.4726    7.7009  -12.4133 H   0  0  0  0  0  0  0  0  0  0  0  0
   12.9151    6.7311  -14.1274 H   0  0  0  0  0  0  0  0  0  0  0  0
    8.8227    4.2848  -12.7354 H   0  0  0  0  0  0  0  0  0  0  0  0
    9.6768    8.7636  -11.6681 H   0  0  0  0  0  0  0  0  0  0  0  0
    8.4863    8.5429  -10.4386 H   0  0  0  0  0  0  0  0  0  0  0  0
   11.3707    7.5757  -10.1946 H   0  0  0  0  0  0  0  0  0  0  0  0
   10.6656    8.9685   -9.4340 H   0  0  0  0  0  0  0  0  0  0  0  0
   10.9574    6.0340   -7.0765 H   0  0  0  0  0  0  0  0  0  0  0  0
   12.0392    6.9724   -8.0620 H   0  0  0  0  0  0  0  0  0  0  0  0
   10.8862   10.0097   -7.6292 H   0  0  0  0  0  0  0  0  0  0  0  0
   11.2721   11.1063   -5.4545 H   0  0  0  0  0  0  0  0  0  0  0  0
   11.9212   10.3636   -2.7531 H   0  0  0  0  0  0  0  0  0  0  0  0
   12.3426    8.3708   -1.3350 H   0  0  0  0  0  0  0  0  0  0  0  0
   12.2077    6.0898   -2.3303 H   0  0  0  0  0  0  0  0  0  0  0  0
   11.6369    5.8021   -4.7127 H   0  0  0  0  0  0  0  0  0  0  0  0
   10.4863    5.1923   -9.4941 H   0  0  0  0  0  0  0  0  0  0  0  0
    9.2007    5.1673   -8.3219 H   0  0  0  0  0  0  0  0  0  0  0  0
    7.6844    6.1720   -9.8227 H   0  0  0  0  0  0  0  0  0  0  0  0
    8.3245    4.7757  -10.6118 H   0  0  0  0  0  0  0  0  0  0  0  0
    9.1837    7.4986   -8.2314 H   0  0  0  0  0  0  0  0  0  0  0  0
  2  1  1  6
  3  2  1  0
  4  3  2  0
  5  4  1  0
  6  5  2  0
  7  6  1  0
  8  6  1  0
  9  8  1  0
 10  3  1  0
 10  8  2  0
 11  2  1  0
 12 11  1  0
 13 12  1  0
 14 13  1  0
 15 14  1  0
 16 15  2  0
 17 16  1  0
 18 17  1  0
 19 18  2  0
 20 19  1  0
 21 20  2  0
 22 21  1  0
 23 15  1  0
 23 18  1  0
 23 22  2  0
 24 13  1  0
 25  2  1  0
 25 24  1  0
 26  1  1  0
 27  4  1  0
 28  5  1  0
 29 10  1  0
 30 11  1  0
 31 11  1  0
 32 12  1  0
 33 12  1  0
 34 14  1  0
 35 14  1  0
 36 16  1  0
 37 17  1  0
 38 19  1  0
 39 20  1  0
 40 21  1  0
 41 22  1  0
 42 24  1  0
 43 24  1  0
 44 25  1  0
 45 25  1  0
 13 46  1  1
M  CHG  1  13   1
M  END
>  <b_m_subgroup_collapsed>  (185) 
0

>  <r_i_docking_score>  (185) 
-8.6589541426663299

>  <s_m_subgroup_title>  (185) 
glide-dock_SP_D22_pv

>  <s_m_subgroupid>  (185) 
glide-dock_SP_D22_pv

>  <Molecule ChEMBL ID>  (185) 
CHEMBL246637

>  <Standard Type>  (185) 
Ki

>  <Standard Value>  (185) 
6.9

>  <label>  (185) 
1

$$$$
CHEMBL3358105
     RDKit          3D

 56 59  0  0  1  0  0  0  0  0999 V2000
    8.2632    3.9447  -14.0610 O   0  0  0  0  0  0  0  0  0  0  0  0
    7.2169    3.7279  -13.4476 C   0  0  0  0  0  0  0  0  0  0  0  0
    6.6780    4.6030  -12.5898 N   0  0  0  0  0  0  0  0  0  0  0  0
    7.1990    5.9432  -12.3692 C   0  0  0  0  0  0  0  0  0  0  0  0
    8.3534    5.9509  -11.3572 C   0  0  0  0  0  0  0  0  0  0  0  0
    9.1314    7.2755  -11.4012 C   0  0  0  0  0  0  0  0  0  0  0  0
   10.3680    7.3012  -10.4989 C   0  0  0  0  0  0  0  0  0  0  0  0
   10.0654    7.7407   -9.1108 N   0  0  0  0  0  0  0  0  0  0  0  0
   11.0243    8.7901   -8.6644 C   0  0  0  0  0  0  0  0  0  0  0  0
   10.7451    9.2622   -7.2360 C   0  0  0  0  0  0  0  0  0  0  0  0
   10.6818    8.1178   -6.3386 N   0  0  0  0  0  0  0  0  0  0  0  0
   11.2497    8.1705   -5.0455 C   0  0  0  0  0  0  0  0  0  0  0  0
   11.6859    6.9717   -4.4309 C   0  0  0  0  0  0  0  0  0  0  0  0
   12.2514    6.9724   -3.1414 C   0  0  0  0  0  0  0  0  0  0  0  0
   12.4171    8.1859   -2.4515 C   0  0  0  0  0  0  0  0  0  0  0  0
   11.9857    9.3853   -3.0451 C   0  0  0  0  0  0  0  0  0  0  0  0
   11.3860    9.3855   -4.3180 C   0  0  0  0  0  0  0  0  0  0  0  0
   10.8982   10.5597   -4.7956 F   0  0  0  0  0  0  0  0  0  0  0  0
    9.7099    7.0886   -6.7031 C   0  0  0  0  0  0  0  0  0  0  0  0
    9.9618    6.6075   -8.1442 C   0  0  0  0  0  0  0  0  0  0  0  0
    6.4654    2.4730  -13.6530 C   0  0  0  0  0  0  0  0  0  0  0  0
    5.2723    2.0253  -13.1199 C   0  0  0  0  0  0  0  0  0  0  0  0
    4.9331    0.8286  -13.8394 C   0  0  0  0  0  0  0  0  0  0  0  0
    3.8132   -0.0292  -13.9636 C   0  0  0  0  0  0  0  0  0  0  0  0
    3.8263   -1.1114  -14.8685 C   0  0  0  0  0  0  0  0  0  0  0  0
    4.9660   -1.3851  -15.6455 C   0  0  0  0  0  0  0  0  0  0  0  0
    6.0869   -0.5409  -15.5560 C   0  0  0  0  0  0  0  0  0  0  0  0
    6.0445    0.5522  -14.6746 C   0  0  0  0  0  0  0  0  0  0  0  0
    6.9809    1.5489  -14.5314 O   0  0  0  0  0  0  0  0  0  0  0  0
    5.8361    4.3452  -12.0965 H   0  0  0  0  0  0  0  0  0  0  0  0
    6.3823    6.5724  -12.0249 H   0  0  0  0  0  0  0  0  0  0  0  0
    7.5325    6.3663  -13.3169 H   0  0  0  0  0  0  0  0  0  0  0  0
    9.0421    5.1326  -11.5716 H   0  0  0  0  0  0  0  0  0  0  0  0
    7.9502    5.7703  -10.3616 H   0  0  0  0  0  0  0  0  0  0  0  0
    8.4860    8.1257  -11.1832 H   0  0  0  0  0  0  0  0  0  0  0  0
    9.4720    7.4227  -12.4260 H   0  0  0  0  0  0  0  0  0  0  0  0
   11.0737    7.9981  -10.9572 H   0  0  0  0  0  0  0  0  0  0  0  0
   10.8754    6.3393  -10.5016 H   0  0  0  0  0  0  0  0  0  0  0  0
   10.9820    9.6470   -9.3402 H   0  0  0  0  0  0  0  0  0  0  0  0
   12.0418    8.3951   -8.7176 H   0  0  0  0  0  0  0  0  0  0  0  0
    9.7844    9.7726   -7.2006 H   0  0  0  0  0  0  0  0  0  0  0  0
   11.5232    9.9688   -6.9454 H   0  0  0  0  0  0  0  0  0  0  0  0
   11.6006    6.0297   -4.9505 H   0  0  0  0  0  0  0  0  0  0  0  0
   12.5727    6.0451   -2.6906 H   0  0  0  0  0  0  0  0  0  0  0  0
   12.8576    8.2003   -1.4650 H   0  0  0  0  0  0  0  0  0  0  0  0
   12.0858   10.3132   -2.5032 H   0  0  0  0  0  0  0  0  0  0  0  0
    9.7188    6.2445   -6.0145 H   0  0  0  0  0  0  0  0  0  0  0  0
    8.7109    7.5229   -6.6339 H   0  0  0  0  0  0  0  0  0  0  0  0
    9.1628    5.9322   -8.4446 H   0  0  0  0  0  0  0  0  0  0  0  0
   10.8871    6.0313   -8.1661 H   0  0  0  0  0  0  0  0  0  0  0  0
    4.6408    2.5317  -12.4079 H   0  0  0  0  0  0  0  0  0  0  0  0
    2.8975    0.1749  -13.4350 H   0  0  0  0  0  0  0  0  0  0  0  0
    2.9546   -1.7387  -14.9749 H   0  0  0  0  0  0  0  0  0  0  0  0
    4.9698   -2.2288  -16.3222 H   0  0  0  0  0  0  0  0  0  0  0  0
    6.9589   -0.7185  -16.1657 H   0  0  0  0  0  0  0  0  0  0  0  0
    9.1513    8.1750   -9.1320 H   0  0  0  0  0  0  0  0  0  0  0  0
  2  1  2  0
  3  2  1  0
  4  3  1  0
  5  4  1  0
  6  5  1  0
  7  6  1  0
  8  7  1  0
  9  8  1  0
 10  9  1  0
 11 10  1  0
 12 11  1  0
 13 12  2  0
 14 13  1  0
 15 14  2  0
 16 15  1  0
 17 12  1  0
 17 16  2  0
 18 17  1  0
 19 11  1  0
 20  8  1  0
 20 19  1  0
 21  2  1  0
 22 21  2  0
 23 22  1  0
 24 23  2  0
 25 24  1  0
 26 25  2  0
 27 26  1  0
 28 23  1  0
 28 27  2  0
 29 21  1  0
 29 28  1  0
 30  3  1  0
 31  4  1  0
 32  4  1  0
 33  5  1  0
 34  5  1  0
 35  6  1  0
 36  6  1  0
 37  7  1  0
 38  7  1  0
 39  9  1  0
 40  9  1  0
 41 10  1  0
 42 10  1  0
 43 13  1  0
 44 14  1  0
 45 15  1  0
 46 16  1  0
 47 19  1  0
 48 19  1  0
 49 20  1  0
 50 20  1  0
 51 22  1  0
 52 24  1  0
 53 25  1  0
 54 26  1  0
 55 27  1  0
 56  8  1  0
M  CHG  1   8   1
M  END
>  <b_m_subgroup_collapsed>  (186) 
0

>  <r_i_docking_score>  (186) 
-8.6577455030884796

>  <s_m_subgroup_title>  (186) 
glide-dock_SP_D22_pv

>  <s_m_subgroupid>  (186) 
glide-dock_SP_D22_pv

>  <Molecule ChEMBL ID>  (186) 
CHEMBL3358105

>  <Standard Type>  (186) 
Ki

>  <Standard Value>  (186) 
76.0

>  <label>  (186) 
1

$$$$
CHEMBL156198
     RDKit          3D

 53 57  0  0  1  0  0  0  0  0999 V2000
   11.2667    0.0386  -17.4012 F   0  0  0  0  0  0  0  0  0  0  0  0
   10.6173    0.9071  -16.5894 C   0  0  0  0  0  0  0  0  0  0  0  0
    9.8876    0.4339  -15.4842 C   0  0  0  0  0  0  0  0  0  0  0  0
    9.2101    1.3426  -14.6470 C   0  0  0  0  0  0  0  0  0  0  0  0
    9.2524    2.7329  -14.8959 C   0  0  0  0  0  0  0  0  0  0  0  0
    8.5249    3.6736  -14.0165 C   0  0  0  0  0  0  0  0  0  0  0  0
    7.1798    3.5073  -13.7534 C   0  0  0  0  0  0  0  0  0  0  0  0
    6.4821    4.4053  -12.9081 C   0  0  0  0  0  0  0  0  0  0  0  0
    7.1306    5.4732  -12.3342 C   0  0  0  0  0  0  0  0  0  0  0  0
    8.5107    5.6662  -12.5965 C   0  0  0  0  0  0  0  0  0  0  0  0
    9.4491    6.5928  -12.2188 C   0  0  0  0  0  0  0  0  0  0  0  0
    9.3026    7.8098  -11.3564 C   0  0  0  0  0  0  0  0  0  0  0  0
    9.2862    7.5147   -9.8995 N   0  0  0  0  0  0  0  0  0  0  0  0
   10.3496    6.5725   -9.4444 C   0  0  0  0  0  0  0  0  0  0  0  0
   10.3918    6.3820   -7.9100 C   0  0  0  0  0  0  0  0  0  0  0  0
   10.3493    7.6703   -7.2311 N   0  0  0  0  0  0  0  0  0  0  0  0
   10.9030    7.8734   -5.9502 C   0  0  0  0  0  0  0  0  0  0  0  0
   11.0907    9.1871   -5.4526 C   0  0  0  0  0  0  0  0  0  0  0  0
   11.5911    9.4011   -4.1544 C   0  0  0  0  0  0  0  0  0  0  0  0
   11.9357    8.3076   -3.3449 C   0  0  0  0  0  0  0  0  0  0  0  0
   12.4870    8.5730   -1.7413 Cl  0  0  0  0  0  0  0  0  0  0  0  0
   11.7936    6.9983   -3.8338 C   0  0  0  0  0  0  0  0  0  0  0  0
   11.2831    6.7874   -5.1281 C   0  0  0  0  0  0  0  0  0  0  0  0
    9.1984    8.4646   -7.6170 C   0  0  0  0  0  0  0  0  0  0  0  0
    9.2846    8.7706   -9.1122 C   0  0  0  0  0  0  0  0  0  0  0  0
   10.6328    6.1667  -12.8703 C   0  0  0  0  0  0  0  0  0  0  0  0
   10.4971    5.0659  -13.5708 N   0  0  0  0  0  0  0  0  0  0  0  0
    9.1670    4.7382  -13.4370 N   0  0  0  0  0  0  0  0  0  0  0  0
    9.9876    3.1913  -16.0126 C   0  0  0  0  0  0  0  0  0  0  0  0
   10.6694    2.2872  -16.8508 C   0  0  0  0  0  0  0  0  0  0  0  0
    9.8462   -0.6252  -15.2770 H   0  0  0  0  0  0  0  0  0  0  0  0
    8.6566    0.9630  -13.8005 H   0  0  0  0  0  0  0  0  0  0  0  0
    6.6477    2.6739  -14.2019 H   0  0  0  0  0  0  0  0  0  0  0  0
    5.4258    4.2554  -12.7098 H   0  0  0  0  0  0  0  0  0  0  0  0
    6.6001    6.1682  -11.6867 H   0  0  0  0  0  0  0  0  0  0  0  0
   10.1197    8.5036  -11.5626 H   0  0  0  0  0  0  0  0  0  0  0  0
    8.3869    8.3424  -11.6186 H   0  0  0  0  0  0  0  0  0  0  0  0
   10.2092    5.5960   -9.9083 H   0  0  0  0  0  0  0  0  0  0  0  0
   11.3149    6.9532   -9.7834 H   0  0  0  0  0  0  0  0  0  0  0  0
    9.5384    5.7851   -7.5831 H   0  0  0  0  0  0  0  0  0  0  0  0
   11.2867    5.8242   -7.6433 H   0  0  0  0  0  0  0  0  0  0  0  0
   10.8504   10.0481   -6.0579 H   0  0  0  0  0  0  0  0  0  0  0  0
   11.6863   10.4062   -3.7696 H   0  0  0  0  0  0  0  0  0  0  0  0
   12.0534    6.1556   -3.2099 H   0  0  0  0  0  0  0  0  0  0  0  0
   11.1634    5.7723   -5.4646 H   0  0  0  0  0  0  0  0  0  0  0  0
    8.2891    7.9005   -7.4015 H   0  0  0  0  0  0  0  0  0  0  0  0
    9.1105    9.3724   -7.0431 H   0  0  0  0  0  0  0  0  0  0  0  0
   10.1807    9.3550   -9.3297 H   0  0  0  0  0  0  0  0  0  0  0  0
    8.4270    9.3752   -9.4070 H   0  0  0  0  0  0  0  0  0  0  0  0
   11.6031    6.6430  -12.8303 H   0  0  0  0  0  0  0  0  0  0  0  0
   10.0337    4.2483  -16.2301 H   0  0  0  0  0  0  0  0  0  0  0  0
   11.2304    2.6518  -17.6975 H   0  0  0  0  0  0  0  0  0  0  0  0
    8.3837    7.0836   -9.7182 H   0  0  0  0  0  0  0  0  0  0  0  0
  2  1  1  0
  3  2  1  0
  4  3  2  0
  5  4  1  0
  6  5  1  0
  7  6  2  0
  8  7  1  0
  9  8  2  0
 10  9  1  0
 11 10  2  0
 12 11  1  0
 13 12  1  0
 14 13  1  0
 15 14  1  0
 16 15  1  0
 17 16  1  0
 18 17  1  0
 19 18  2  0
 20 19  1  0
 21 20  1  0
 22 20  2  0
 23 17  2  0
 23 22  1  0
 24 16  1  0
 25 13  1  0
 25 24  1  0
 26 11  1  0
 27 26  2  0
 28  6  1  0
 28 10  1  0
 28 27  1  0
 29  5  2  0
 30  2  2  0
 30 29  1  0
 31  3  1  0
 32  4  1  0
 33  7  1  0
 34  8  1  0
 35  9  1  0
 36 12  1  0
 37 12  1  0
 38 14  1  0
 39 14  1  0
 40 15  1  0
 41 15  1  0
 42 18  1  0
 43 19  1  0
 44 22  1  0
 45 23  1  0
 46 24  1  0
 47 24  1  0
 48 25  1  0
 49 25  1  0
 50 26  1  0
 51 29  1  0
 52 30  1  0
 53 13  1  0
M  CHG  1  13   1
M  END
>  <b_m_subgroup_collapsed>  (187) 
0

>  <r_i_docking_score>  (187) 
-8.6575720468554902

>  <s_m_subgroup_title>  (187) 
glide-dock_SP_D22_pv

>  <s_m_subgroupid>  (187) 
glide-dock_SP_D22_pv

>  <Molecule ChEMBL ID>  (187) 
CHEMBL156198

>  <Standard Type>  (187) 
Ki

>  <Standard Value>  (187) 
15000.0

>  <label>  (187) 
0

$$$$
CHEMBL543344
     RDKit          3D

 48 51  0  0  1  0  0  0  0  0999 V2000
    8.8827    8.5722   -6.7288 O   0  0  0  0  0  0  0  0  0  0  0  0
    9.8938    8.3976   -7.3961 C   0  0  0  0  0  0  0  0  0  0  0  0
   11.2846    8.7022   -6.9397 C   0  0  1  0  0  0  0  0  0  0  0  0
   11.5000    8.4719   -5.4539 C   0  0  0  0  0  0  0  0  0  0  0  0
   11.7875    9.5827   -4.6422 C   0  0  0  0  0  0  0  0  0  0  0  0
   12.0862    9.4055   -3.2819 C   0  0  0  0  0  0  0  0  0  0  0  0
   12.1004    8.1156   -2.7303 C   0  0  0  0  0  0  0  0  0  0  0  0
   12.4819    7.9574   -1.4470 F   0  0  0  0  0  0  0  0  0  0  0  0
   11.7488    7.0020   -3.5156 C   0  0  0  0  0  0  0  0  0  0  0  0
   11.4395    7.1799   -4.8776 C   0  0  0  0  0  0  0  0  0  0  0  0
   12.0840    7.7888   -7.8693 C   0  0  0  0  0  0  0  0  0  0  0  0
   11.3370    7.7042   -9.0802 O   0  0  0  0  0  0  0  0  0  0  0  0
    9.9456    7.8016   -8.7869 C   0  0  1  0  0  0  0  0  0  0  0  0
    9.2808    6.4104   -8.8052 C   0  0  0  0  0  0  0  0  0  0  0  0
    9.2342    5.8222  -10.2203 C   0  0  0  0  0  0  0  0  0  0  0  0
    8.6031    6.7691  -11.1738 N   0  0  2  0  0  0  0  0  0  0  0  0
    8.2884    6.1899  -12.5062 C   0  0  0  0  0  0  0  0  0  0  0  0
    9.3612    5.2750  -13.0930 C   0  0  0  0  0  0  0  0  0  0  0  0
    9.0735    3.9071  -13.2878 C   0  0  0  0  0  0  0  0  0  0  0  0
   10.0307    3.0500  -13.8625 C   0  0  0  0  0  0  0  0  0  0  0  0
   11.2851    3.5547  -14.2487 C   0  0  0  0  0  0  0  0  0  0  0  0
   11.5866    4.9140  -14.0492 C   0  0  0  0  0  0  0  0  0  0  0  0
   10.6287    5.7717  -13.4753 C   0  0  0  0  0  0  0  0  0  0  0  0
    9.2948    8.0861  -11.2193 C   0  0  0  0  0  0  0  0  0  0  0  0
    9.3179    8.7452   -9.8256 C   0  0  0  0  0  0  0  0  0  0  0  0
   11.4894    9.7441   -7.1876 H   0  0  0  0  0  0  0  0  0  0  0  0
   11.8061   10.5706   -5.0742 H   0  0  0  0  0  0  0  0  0  0  0  0
   12.3393   10.2558   -2.6646 H   0  0  0  0  0  0  0  0  0  0  0  0
   11.7413    6.0143   -3.0792 H   0  0  0  0  0  0  0  0  0  0  0  0
   11.1882    6.3153   -5.4752 H   0  0  0  0  0  0  0  0  0  0  0  0
   12.1811    6.7871   -7.4472 H   0  0  0  0  0  0  0  0  0  0  0  0
   13.0857    8.1731   -8.0607 H   0  0  0  0  0  0  0  0  0  0  0  0
    8.2603    6.4839   -8.4243 H   0  0  0  0  0  0  0  0  0  0  0  0
    9.8052    5.7264   -8.1355 H   0  0  0  0  0  0  0  0  0  0  0  0
    8.6798    4.8824  -10.2090 H   0  0  0  0  0  0  0  0  0  0  0  0
   10.2487    5.5976  -10.5456 H   0  0  0  0  0  0  0  0  0  0  0  0
    8.0462    6.9731  -13.2230 H   0  0  0  0  0  0  0  0  0  0  0  0
    7.3692    5.6150  -12.3883 H   0  0  0  0  0  0  0  0  0  0  0  0
    8.1112    3.5039  -13.0089 H   0  0  0  0  0  0  0  0  0  0  0  0
    9.8028    2.0038  -14.0043 H   0  0  0  0  0  0  0  0  0  0  0  0
   12.0182    2.8993  -14.6937 H   0  0  0  0  0  0  0  0  0  0  0  0
   12.5533    5.3009  -14.3417 H   0  0  0  0  0  0  0  0  0  0  0  0
   10.8855    6.8118  -13.3521 H   0  0  0  0  0  0  0  0  0  0  0  0
   10.3159    7.9641  -11.5789 H   0  0  0  0  0  0  0  0  0  0  0  0
    8.7835    8.7499  -11.9181 H   0  0  0  0  0  0  0  0  0  0  0  0
    8.3036    8.9939   -9.5220 H   0  0  0  0  0  0  0  0  0  0  0  0
    9.8469    9.7041   -9.8481 H   0  0  0  0  0  0  0  0  0  0  0  0
    7.6961    7.0182  -10.7678 H   0  0  0  0  0  0  0  0  0  0  0  0
  2  1  2  0
  3  2  1  0
  4  3  1  0
  5  4  1  0
  6  5  2  0
  7  6  1  0
  8  7  1  0
  9  7  2  0
 10  4  2  0
 10  9  1  0
 11  3  1  0
 12 11  1  0
 13  2  1  0
 13 12  1  6
 14 13  1  0
 15 14  1  0
 16 15  1  0
 17 16  1  0
 18 17  1  0
 19 18  2  0
 20 19  1  0
 21 20  2  0
 22 21  1  0
 23 18  1  0
 23 22  2  0
 24 16  1  0
 25 13  1  0
 25 24  1  0
  3 26  1  6
 27  5  1  0
 28  6  1  0
 29  9  1  0
 30 10  1  0
 31 11  1  0
 32 11  1  0
 33 14  1  0
 34 14  1  0
 35 15  1  0
 36 15  1  0
 37 17  1  0
 38 17  1  0
 39 19  1  0
 40 20  1  0
 41 21  1  0
 42 22  1  0
 43 23  1  0
 44 24  1  0
 45 24  1  0
 46 25  1  0
 47 25  1  0
 16 48  1  1
M  CHG  1  16   1
M  END
>  <b_m_subgroup_collapsed>  (188) 
0

>  <r_i_docking_score>  (188) 
-8.6528666737798599

>  <s_m_subgroup_title>  (188) 
glide-dock_SP_D22_pv

>  <s_m_subgroupid>  (188) 
glide-dock_SP_D22_pv

>  <Molecule ChEMBL ID>  (188) 
CHEMBL543344

>  <Standard Type>  (188) 
Ki

>  <Standard Value>  (188) 
47.0

>  <label>  (188) 
1

$$$$
CHEMBL553288
     RDKit          3D

 33 35  0  0  1  0  0  0  0  0999 V2000
   11.2861   10.0233   -6.9976 O   0  0  0  0  0  0  0  0  0  0  0  0
   11.1260    8.8114   -7.1025 C   0  0  0  0  0  0  0  0  0  0  0  0
   11.2859    7.8092   -6.0672 C   0  0  0  0  0  0  0  0  0  0  0  0
   11.6739    7.9767   -4.6471 C   0  0  0  0  0  0  0  0  0  0  0  0
   12.0352    6.8475   -3.8774 C   0  0  0  0  0  0  0  0  0  0  0  0
   12.4396    6.9884   -2.5399 C   0  0  0  0  0  0  0  0  0  0  0  0
   12.4828    8.2636   -1.9520 C   0  0  0  0  0  0  0  0  0  0  0  0
   12.0860    9.3854   -2.6970 C   0  0  0  0  0  0  0  0  0  0  0  0
   11.6860    9.2500   -4.0361 C   0  0  0  0  0  0  0  0  0  0  0  0
   11.1637    6.6533   -6.7276 C   0  0  0  0  0  0  0  0  0  0  0  0
   10.8820    6.7290   -8.0617 O   0  0  0  0  0  0  0  0  0  0  0  0
   10.7441    8.1035   -8.4016 C   0  0  2  0  0  0  0  0  0  0  0  0
   11.6593    8.4530   -9.5918 C   0  0  0  0  0  0  0  0  0  0  0  0
   11.1965    7.6997  -10.8531 C   0  0  0  0  0  0  0  0  0  0  0  0
    9.7079    7.9355  -11.1579 C   0  0  0  0  0  0  0  0  0  0  0  0
    8.8860    7.5905   -9.9812 N   0  0  0  0  0  0  0  0  0  0  0  0
    9.2703    8.3424   -8.7618 C   0  0  0  0  0  0  0  0  0  0  0  0
   12.0220    5.8552   -4.3005 H   0  0  0  0  0  0  0  0  0  0  0  0
   12.7214    6.1168   -1.9667 H   0  0  0  0  0  0  0  0  0  0  0  0
   12.8016    8.3809   -0.9290 H   0  0  0  0  0  0  0  0  0  0  0  0
   12.0860   10.3661   -2.2466 H   0  0  0  0  0  0  0  0  0  0  0  0
   11.3910   10.1389   -4.5717 H   0  0  0  0  0  0  0  0  0  0  0  0
   11.2908    5.6555   -6.3580 H   0  0  0  0  0  0  0  0  0  0  0  0
   11.6327    9.5275   -9.7820 H   0  0  0  0  0  0  0  0  0  0  0  0
   12.6970    8.2058   -9.3630 H   0  0  0  0  0  0  0  0  0  0  0  0
   11.8141    7.9774  -11.7073 H   0  0  0  0  0  0  0  0  0  0  0  0
   11.3363    6.6318  -10.7007 H   0  0  0  0  0  0  0  0  0  0  0  0
    9.5275    8.9723  -11.4348 H   0  0  0  0  0  0  0  0  0  0  0  0
    9.3909    7.3244  -12.0038 H   0  0  0  0  0  0  0  0  0  0  0  0
    7.8844    7.7720  -10.1812 H   0  0  0  0  0  0  0  0  0  0  0  0
    8.6143    8.0351   -7.9447 H   0  0  0  0  0  0  0  0  0  0  0  0
    9.0816    9.4015   -8.9317 H   0  0  0  0  0  0  0  0  0  0  0  0
    8.9770    6.6030   -9.7912 H   0  0  0  0  0  0  0  0  0  0  0  0
  2  1  2  0
  3  2  1  0
  4  3  1  0
  5  4  2  0
  6  5  1  0
  7  6  2  0
  8  7  1  0
  9  4  1  0
  9  8  2  0
 10  3  2  0
 11 10  1  0
 12  2  1  0
 12 11  1  1
 13 12  1  0
 14 13  1  0
 15 14  1  0
 16 15  1  0
 17 12  1  0
 17 16  1  0
 18  5  1  0
 19  6  1  0
 20  7  1  0
 21  8  1  0
 22  9  1  0
 23 10  1  0
 24 13  1  0
 25 13  1  0
 26 14  1  0
 27 14  1  0
 28 15  1  0
 29 15  1  0
 30 16  1  0
 31 17  1  0
 32 17  1  0
 33 16  1  0
M  CHG  1  16   1
M  END
>  <b_m_subgroup_collapsed>  (189) 
0

>  <r_i_docking_score>  (189) 
-8.6472801308732592

>  <s_m_subgroup_title>  (189) 
glide-dock_SP_D22_pv

>  <s_m_subgroupid>  (189) 
glide-dock_SP_D22_pv

>  <Molecule ChEMBL ID>  (189) 
CHEMBL553288

>  <Standard Type>  (189) 
Ki

>  <Standard Value>  (189) 
10000.0

>  <label>  (189) 
0

$$$$
CHEMBL477820
     RDKit          3D

 59 62  0  0  1  0  0  0  0  0999 V2000
    8.4156    1.3166  -15.9225 C   0  0  0  0  0  0  0  0  0  0  0  0
    8.5335    2.3658  -14.8366 C   0  0  0  0  0  0  0  0  0  0  0  0
    9.8003    2.8017  -14.4062 C   0  0  0  0  0  0  0  0  0  0  0  0
    9.9009    3.7655  -13.3869 C   0  0  0  0  0  0  0  0  0  0  0  0
    8.7463    4.3122  -12.7878 C   0  0  0  0  0  0  0  0  0  0  0  0
    8.9604    5.2303  -11.7465 N   0  0  0  0  0  0  0  0  0  0  0  0
    8.3282    6.5346  -11.8305 C   0  0  0  0  0  0  0  0  0  0  0  0
    8.9929    7.4974  -10.8409 C   0  0  0  0  0  0  0  0  0  0  0  0
    8.9776    6.9716   -9.4416 N   0  0  0  0  0  0  0  0  0  0  0  0
    9.5980    7.9581   -8.4994 C   0  0  1  0  0  0  0  0  0  0  0  0
    8.5935    9.0033   -8.0509 C   0  0  0  0  0  0  0  0  0  0  0  0
   10.2800    7.3853   -7.2529 C   0  0  1  0  0  0  0  0  0  0  0  0
   11.6761    6.8596   -7.3577 C   0  0  0  0  0  0  0  0  0  0  0  0
   11.4367    8.1262   -6.5673 C   0  0  1  0  0  0  0  0  0  0  0  0
   12.0626    9.3720   -7.1819 C   0  0  0  0  0  0  0  0  0  0  0  0
   11.5775    8.1409   -5.0477 C   0  0  0  0  0  0  0  0  0  0  0  0
   11.6894    9.3602   -4.3329 C   0  0  0  0  0  0  0  0  0  0  0  0
   11.9726    9.3754   -2.9558 C   0  0  0  0  0  0  0  0  0  0  0  0
   12.1017    8.1719   -2.2468 C   0  0  0  0  0  0  0  0  0  0  0  0
   11.9477    6.9513   -2.9217 C   0  0  0  0  0  0  0  0  0  0  0  0
   11.6857    6.9395   -4.3050 C   0  0  0  0  0  0  0  0  0  0  0  0
    9.5603    5.6023   -9.3684 C   0  0  0  0  0  0  0  0  0  0  0  0
    9.0109    4.6302  -10.4223 C   0  0  0  0  0  0  0  0  0  0  0  0
    7.4620    3.8788  -13.2278 C   0  0  0  0  0  0  0  0  0  0  0  0
    6.1616    4.3741  -12.6135 C   0  0  0  0  0  0  0  0  0  0  0  0
    7.3741    2.9085  -14.2488 C   0  0  0  0  0  0  0  0  0  0  0  0
    7.5715    0.6532  -15.7305 H   0  0  0  0  0  0  0  0  0  0  0  0
    8.2665    1.7914  -16.8924 H   0  0  0  0  0  0  0  0  0  0  0  0
    9.3160    0.7046  -15.9741 H   0  0  0  0  0  0  0  0  0  0  0  0
   10.6976    2.3914  -14.8452 H   0  0  0  0  0  0  0  0  0  0  0  0
   10.8780    4.0802  -13.0488 H   0  0  0  0  0  0  0  0  0  0  0  0
    7.2742    6.4530  -11.5892 H   0  0  0  0  0  0  0  0  0  0  0  0
    8.3974    6.9226  -12.8471 H   0  0  0  0  0  0  0  0  0  0  0  0
    8.4872    8.4621  -10.8915 H   0  0  0  0  0  0  0  0  0  0  0  0
   10.0237    7.6681  -11.1576 H   0  0  0  0  0  0  0  0  0  0  0  0
   10.3637    8.4780   -9.0723 H   0  0  0  0  0  0  0  0  0  0  0  0
    9.1303    9.7716   -7.5052 H   0  0  0  0  0  0  0  0  0  0  0  0
    8.0874    9.4834   -8.8856 H   0  0  0  0  0  0  0  0  0  0  0  0
    7.8506    8.5724   -7.3810 H   0  0  0  0  0  0  0  0  0  0  0  0
    9.6090    6.8425   -6.5886 H   0  0  0  0  0  0  0  0  0  0  0  0
   12.0870    6.9726   -8.3521 H   0  0  0  0  0  0  0  0  0  0  0  0
   11.8965    5.9166   -6.8658 H   0  0  0  0  0  0  0  0  0  0  0  0
   12.1819    9.2840   -8.2604 H   0  0  0  0  0  0  0  0  0  0  0  0
   11.4511   10.2527   -6.9910 H   0  0  0  0  0  0  0  0  0  0  0  0
   13.0583    9.5272   -6.7700 H   0  0  0  0  0  0  0  0  0  0  0  0
   11.5987   10.3126   -4.8299 H   0  0  0  0  0  0  0  0  0  0  0  0
   12.0859   10.3179   -2.4404 H   0  0  0  0  0  0  0  0  0  0  0  0
   12.3096    8.1892   -1.1876 H   0  0  0  0  0  0  0  0  0  0  0  0
   12.0336    6.0191   -2.3818 H   0  0  0  0  0  0  0  0  0  0  0  0
   11.5852    5.9777   -4.7806 H   0  0  0  0  0  0  0  0  0  0  0  0
   10.6319    5.6828   -9.5271 H   0  0  0  0  0  0  0  0  0  0  0  0
    9.4091    5.1699   -8.3790 H   0  0  0  0  0  0  0  0  0  0  0  0
    8.0208    4.2763  -10.1349 H   0  0  0  0  0  0  0  0  0  0  0  0
    9.6843    3.7724  -10.4564 H   0  0  0  0  0  0  0  0  0  0  0  0
    5.3340    3.7058  -12.8540 H   0  0  0  0  0  0  0  0  0  0  0  0
    6.2261    4.4219  -11.5268 H   0  0  0  0  0  0  0  0  0  0  0  0
    5.9083    5.3621  -12.9986 H   0  0  0  0  0  0  0  0  0  0  0  0
    6.4048    2.5666  -14.5817 H   0  0  0  0  0  0  0  0  0  0  0  0
    7.9912    6.9034   -9.2020 H   0  0  0  0  0  0  0  0  0  0  0  0
  2  1  1  0
  3  2  1  0
  4  3  2  0
  5  4  1  0
  6  5  1  0
  7  6  1  0
  8  7  1  0
  9  8  1  0
 10  9  1  0
 11 10  1  0
 12 10  1  0
 13 12  1  0
 14 12  1  0
 14 13  1  0
 14 15  1  6
 16 14  1  0
 17 16  2  0
 18 17  1  0
 19 18  2  0
 20 19  1  0
 21 16  1  0
 21 20  2  0
 22  9  1  0
 23  6  1  0
 23 22  1  0
 24  5  2  0
 25 24  1  0
 26  2  2  0
 26 24  1  0
 27  1  1  0
 28  1  1  0
 29  1  1  0
 30  3  1  0
 31  4  1  0
 32  7  1  0
 33  7  1  0
 34  8  1  0
 35  8  1  0
 10 36  1  6
 37 11  1  0
 38 11  1  0
 39 11  1  0
 12 40  1  1
 41 13  1  0
 42 13  1  0
 43 15  1  0
 44 15  1  0
 45 15  1  0
 46 17  1  0
 47 18  1  0
 48 19  1  0
 49 20  1  0
 50 21  1  0
 51 22  1  0
 52 22  1  0
 53 23  1  0
 54 23  1  0
 55 25  1  0
 56 25  1  0
 57 25  1  0
 58 26  1  0
 59  9  1  0
M  CHG  1   9   1
M  END
>  <b_m_subgroup_collapsed>  (190) 
0

>  <r_i_docking_score>  (190) 
-8.6471542118566092

>  <s_m_subgroup_title>  (190) 
glide-dock_SP_D22_pv

>  <s_m_subgroupid>  (190) 
glide-dock_SP_D22_pv

>  <Molecule ChEMBL ID>  (190) 
CHEMBL477820

>  <Standard Type>  (190) 
Ki

>  <Standard Value>  (190) 
10000.0

>  <label>  (190) 
0

$$$$
CHEMBL5773648
     RDKit          3D

 60 63  0  0  1  0  0  0  0  0999 V2000
   10.6973    1.6262  -14.5098 C   0  0  0  0  0  0  0  0  0  0  0  0
    9.7929    2.7503  -14.3683 N   0  0  0  0  0  0  0  0  0  0  0  0
   10.1041    4.0400  -14.1186 C   0  0  0  0  0  0  0  0  0  0  0  0
   11.7757    4.5687  -13.8471 S   0  0  0  0  0  0  0  0  0  0  0  0
   11.6927    6.3827  -13.9905 C   0  0  0  0  0  0  0  0  0  0  0  0
   10.8858    7.1393  -12.9124 C   0  0  0  0  0  0  0  0  0  0  0  0
   11.3294    7.0282  -11.4493 C   0  0  0  0  0  0  0  0  0  0  0  0
   10.8860    8.0694  -10.5303 N   0  0  0  0  0  0  0  0  0  0  0  0
    9.4297    8.1584  -10.4871 C   0  0  0  0  0  0  0  0  0  0  0  0
    9.0051    9.2472   -9.5127 C   0  0  0  0  0  0  0  0  0  0  0  0
    9.4408    8.9263   -8.2000 O   0  0  0  0  0  0  0  0  0  0  0  0
   10.8530    8.7968   -8.0978 C   0  0  1  0  0  0  0  0  0  0  0  0
   11.2234    8.4173   -6.6652 C   0  0  0  0  0  0  0  0  0  0  0  0
   11.7842    9.3674   -5.7797 C   0  0  0  0  0  0  0  0  0  0  0  0
   12.0743    9.0170   -4.4398 C   0  0  0  0  0  0  0  0  0  0  0  0
   11.8154    7.7080   -3.9706 C   0  0  0  0  0  0  0  0  0  0  0  0
   12.1236    7.2784   -2.5390 C   0  0  0  0  0  0  0  0  0  0  0  0
   12.8854    6.1868   -2.5784 F   0  0  0  0  0  0  0  0  0  0  0  0
   12.7744    8.2363   -1.8770 F   0  0  0  0  0  0  0  0  0  0  0  0
   11.0193    6.9721   -1.8526 F   0  0  0  0  0  0  0  0  0  0  0  0
   11.2644    6.7681   -4.8593 C   0  0  0  0  0  0  0  0  0  0  0  0
   10.9503    7.1185   -6.1853 C   0  0  0  0  0  0  0  0  0  0  0  0
   11.3707    7.7932   -9.1693 C   0  0  0  0  0  0  0  0  0  0  0  0
    9.0368    4.8312  -14.0715 N   0  0  0  0  0  0  0  0  0  0  0  0
    7.9565    4.0081  -14.2347 N   0  0  0  0  0  0  0  0  0  0  0  0
    8.4409    2.7774  -14.4164 C   0  0  0  0  0  0  0  0  0  0  0  0
    7.5469    1.6453  -14.6714 C   0  0  0  0  0  0  0  0  0  0  0  0
    7.7444    0.7916  -15.7776 C   0  0  0  0  0  0  0  0  0  0  0  0
    6.7823   -0.2030  -16.0451 C   0  0  0  0  0  0  0  0  0  0  0  0
    5.6650   -0.3291  -15.1903 C   0  0  0  0  0  0  0  0  0  0  0  0
    4.5518   -1.2969  -15.4644 C   0  0  0  0  0  0  0  0  0  0  0  0
    4.8861   -2.4628  -16.0227 N   0  0  0  0  0  0  0  0  0  0  0  0
    3.3966   -1.0289  -15.1444 O   0  0  0  0  0  0  0  0  0  0  0  0
    5.5752    0.5592  -14.0986 C   0  0  0  0  0  0  0  0  0  0  0  0
    6.4817    1.5229  -13.8475 N   0  0  0  0  0  0  0  0  0  0  0  0
   11.5490    1.7699  -13.8468 H   0  0  0  0  0  0  0  0  0  0  0  0
   10.1991    0.6930  -14.2465 H   0  0  0  0  0  0  0  0  0  0  0  0
   11.0530    1.5675  -15.5390 H   0  0  0  0  0  0  0  0  0  0  0  0
   12.7182    6.7543  -13.9926 H   0  0  0  0  0  0  0  0  0  0  0  0
   11.2882    6.6124  -14.9760 H   0  0  0  0  0  0  0  0  0  0  0  0
   10.8870    8.1722  -13.2132 H   0  0  0  0  0  0  0  0  0  0  0  0
    9.8390    6.8594  -12.9518 H   0  0  0  0  0  0  0  0  0  0  0  0
   10.8860    6.1122  -11.0877 H   0  0  0  0  0  0  0  0  0  0  0  0
   12.4177    6.9724  -11.4094 H   0  0  0  0  0  0  0  0  0  0  0  0
    9.0317    8.4044  -11.4719 H   0  0  0  0  0  0  0  0  0  0  0  0
    8.9839    7.2066  -10.1928 H   0  0  0  0  0  0  0  0  0  0  0  0
    9.4563   10.1722   -9.8468 H   0  0  0  0  0  0  0  0  0  0  0  0
    7.9334    9.3961   -9.5178 H   0  0  0  0  0  0  0  0  0  0  0  0
   11.2865    9.7724   -8.3126 H   0  0  0  0  0  0  0  0  0  0  0  0
   11.9878   10.3711   -6.1211 H   0  0  0  0  0  0  0  0  0  0  0  0
   12.4976    9.7574   -3.7761 H   0  0  0  0  0  0  0  0  0  0  0  0
   11.0470    5.7725   -4.5087 H   0  0  0  0  0  0  0  0  0  0  0  0
   10.4857    6.3818   -6.8240 H   0  0  0  0  0  0  0  0  0  0  0  0
   11.0600    6.7847   -8.8912 H   0  0  0  0  0  0  0  0  0  0  0  0
   12.4610    7.7899   -9.1604 H   0  0  0  0  0  0  0  0  0  0  0  0
    8.5925    0.9199  -16.4343 H   0  0  0  0  0  0  0  0  0  0  0  0
    6.8980   -0.8401  -16.9098 H   0  0  0  0  0  0  0  0  0  0  0  0
    5.8550   -2.6774  -16.2152 H   0  0  0  0  0  0  0  0  0  0  0  0
    4.1562   -3.1522  -16.2103 H   0  0  0  0  0  0  0  0  0  0  0  0
    4.7343    0.5234  -13.4218 H   0  0  0  0  0  0  0  0  0  0  0  0
  2  1  1  0
  3  2  1  0
  4  3  1  0
  5  4  1  0
  6  5  1  0
  7  6  1  0
  8  7  1  0
  9  8  1  0
 10  9  1  0
 11 10  1  0
 12 11  1  0
 13 12  1  0
 14 13  1  0
 15 14  2  0
 16 15  1  0
 17 16  1  0
 18 17  1  0
 19 17  1  0
 20 17  1  0
 21 16  2  0
 22 13  2  0
 22 21  1  0
 23  8  1  0
 23 12  1  0
 24  3  2  0
 25 24  1  0
 26  2  1  0
 26 25  2  0
 27 26  1  0
 28 27  2  0
 29 28  1  0
 30 29  2  0
 31 30  1  0
 32 31  1  0
 33 31  2  0
 34 30  1  0
 35 27  1  0
 35 34  2  0
 36  1  1  0
 37  1  1  0
 38  1  1  0
 39  5  1  0
 40  5  1  0
 41  6  1  0
 42  6  1  0
 43  7  1  0
 44  7  1  0
 45  9  1  0
 46  9  1  0
 47 10  1  0
 48 10  1  0
 12 49  1  6
 50 14  1  0
 51 15  1  0
 52 21  1  0
 53 22  1  0
 54 23  1  0
 55 23  1  0
 56 28  1  0
 57 29  1  0
 58 32  1  0
 59 32  1  0
 60 34  1  0
M  END
>  <b_m_subgroup_collapsed>  (191) 
0

>  <r_i_docking_score>  (191) 
-8.6412347908122094

>  <s_m_subgroup_title>  (191) 
glide-dock_SP_D22_pv

>  <s_m_subgroupid>  (191) 
glide-dock_SP_D22_pv

>  <Molecule ChEMBL ID>  (191) 
CHEMBL5773648

>  <Standard Type>  (191) 
Ki

>  <Standard Value>  (191) 
16218.0

>  <label>  (191) 
0

$$$$
CHEMBL708
     RDKit          3D

 49 53  0  0  1  0  0  0  0  0999 V2000
    4.4880    0.0254  -13.4470 O   0  0  0  0  0  0  0  0  0  0  0  0
    5.2830    0.9555  -13.5665 C   0  0  0  0  0  0  0  0  0  0  0  0
    5.1431    2.2848  -12.8090 C   0  0  0  0  0  0  0  0  0  0  0  0
    6.3900    2.9728  -13.3032 C   0  0  0  0  0  0  0  0  0  0  0  0
    6.9399    4.1778  -12.8402 C   0  0  0  0  0  0  0  0  0  0  0  0
    8.2590    4.5246  -13.2374 C   0  0  0  0  0  0  0  0  0  0  0  0
    8.9389    5.7820  -12.6833 C   0  0  0  0  0  0  0  0  0  0  0  0
    8.4899    6.2647  -11.2821 C   0  0  0  0  0  0  0  0  0  0  0  0
    9.5831    6.3078  -10.3043 N   0  0  0  0  0  0  0  0  0  0  0  0
    9.0381    6.1333   -8.9505 C   0  0  0  0  0  0  0  0  0  0  0  0
   10.1721    6.1206   -7.9019 C   0  0  0  0  0  0  0  0  0  0  0  0
   10.9655    7.3400   -7.9821 N   0  0  0  0  0  0  0  0  0  0  0  0
   11.0554    8.2670   -6.9158 C   0  0  0  0  0  0  0  0  0  0  0  0
   11.0239    9.5476   -7.2036 N   0  0  0  0  0  0  0  0  0  0  0  0
   11.2860   10.4760   -5.8466 S   0  0  0  0  0  0  0  0  0  0  0  0
   11.5055    9.1265   -4.7701 C   0  0  0  0  0  0  0  0  0  0  0  0
   11.8608    9.1327   -3.4096 C   0  0  0  0  0  0  0  0  0  0  0  0
   12.0248    7.9134   -2.7356 C   0  0  0  0  0  0  0  0  0  0  0  0
   11.8022    6.7098   -3.4256 C   0  0  0  0  0  0  0  0  0  0  0  0
   11.4403    6.7169   -4.7899 C   0  0  0  0  0  0  0  0  0  0  0  0
   11.2896    7.9245   -5.5155 C   0  0  0  0  0  0  0  0  0  0  0  0
   11.3928    7.6755   -9.3448 C   0  0  0  0  0  0  0  0  0  0  0  0
   10.2172    7.6304  -10.3366 C   0  0  0  0  0  0  0  0  0  0  0  0
    8.9490    3.6863  -14.1659 C   0  0  0  0  0  0  0  0  0  0  0  0
   10.5399    4.0758  -14.7206 Cl  0  0  0  0  0  0  0  0  0  0  0  0
    8.3594    2.4956  -14.6514 C   0  0  0  0  0  0  0  0  0  0  0  0
    7.0810    2.1553  -14.1840 C   0  0  0  0  0  0  0  0  0  0  0  0
    6.3752    0.9611  -14.3451 N   0  0  0  0  0  0  0  0  0  0  0  0
    5.1910    2.1160  -11.7362 H   0  0  0  0  0  0  0  0  0  0  0  0
    4.2325    2.8281  -13.0467 H   0  0  0  0  0  0  0  0  0  0  0  0
    6.3684    4.7740  -12.1454 H   0  0  0  0  0  0  0  0  0  0  0  0
   10.0214    5.6650  -12.6889 H   0  0  0  0  0  0  0  0  0  0  0  0
    8.7142    6.5717  -13.3992 H   0  0  0  0  0  0  0  0  0  0  0  0
    8.0860    7.2677  -11.4118 H   0  0  0  0  0  0  0  0  0  0  0  0
    7.6855    5.6540  -10.8801 H   0  0  0  0  0  0  0  0  0  0  0  0
    8.3241    6.9266   -8.7246 H   0  0  0  0  0  0  0  0  0  0  0  0
    8.4926    5.1904   -8.8929 H   0  0  0  0  0  0  0  0  0  0  0  0
    9.7332    6.0168   -6.9101 H   0  0  0  0  0  0  0  0  0  0  0  0
   10.8256    5.2639   -8.0622 H   0  0  0  0  0  0  0  0  0  0  0  0
   12.0190   10.0674   -2.8916 H   0  0  0  0  0  0  0  0  0  0  0  0
   12.3066    7.9027   -1.6927 H   0  0  0  0  0  0  0  0  0  0  0  0
   11.9197    5.7730   -2.9054 H   0  0  0  0  0  0  0  0  0  0  0  0
   11.3137    5.7738   -5.2974 H   0  0  0  0  0  0  0  0  0  0  0  0
   11.8697    8.6555   -9.3859 H   0  0  0  0  0  0  0  0  0  0  0  0
   12.1499    6.9723   -9.6729 H   0  0  0  0  0  0  0  0  0  0  0  0
   10.5813    7.8399  -11.3435 H   0  0  0  0  0  0  0  0  0  0  0  0
    9.4917    8.4092  -10.0927 H   0  0  0  0  0  0  0  0  0  0  0  0
    8.9013    1.8391  -15.3150 H   0  0  0  0  0  0  0  0  0  0  0  0
    6.6934    0.1922  -14.9171 H   0  0  0  0  0  0  0  0  0  0  0  0
  2  1  2  0
  3  2  1  0
  4  3  1  0
  5  4  1  0
  6  5  2  0
  7  6  1  0
  8  7  1  0
  9  8  1  0
 10  9  1  0
 11 10  1  0
 12 11  1  0
 13 12  1  0
 14 13  2  0
 15 14  1  0
 16 15  1  0
 17 16  2  0
 18 17  1  0
 19 18  2  0
 20 19  1  0
 21 13  1  0
 21 16  1  0
 21 20  2  0
 22 12  1  0
 23  9  1  0
 23 22  1  0
 24  6  1  0
 25 24  1  0
 26 24  2  0
 27  4  2  0
 27 26  1  0
 28  2  1  0
 28 27  1  0
 29  3  1  0
 30  3  1  0
 31  5  1  0
 32  7  1  0
 33  7  1  0
 34  8  1  0
 35  8  1  0
 36 10  1  0
 37 10  1  0
 38 11  1  0
 39 11  1  0
 40 17  1  0
 41 18  1  0
 42 19  1  0
 43 20  1  0
 44 22  1  0
 45 22  1  0
 46 23  1  0
 47 23  1  0
 48 26  1  0
 49 28  1  0
M  END
>  <b_m_subgroup_collapsed>  (192) 
0

>  <r_i_docking_score>  (192) 
-8.6388065898649202

>  <s_m_subgroup_title>  (192) 
glide-dock_SP_D22_pv

>  <s_m_subgroupid>  (192) 
glide-dock_SP_D22_pv

>  <Molecule ChEMBL ID>  (192) 
CHEMBL708

>  <Standard Type>  (192) 
Ki

>  <Standard Value>  (192) 
0.8

>  <label>  (192) 
1

$$$$
CHEMBL4760590
     RDKit          3D

 64 68  0  0  1  0  0  0  0  0999 V2000
    3.2853   -1.0281  -15.9715 O   0  0  0  0  0  0  0  0  0  0  0  0
    4.3931   -1.4331  -16.3212 C   0  0  0  0  0  0  0  0  0  0  0  0
    5.5505   -1.0484  -15.7616 N   0  0  0  0  0  0  0  0  0  0  0  0
    5.7281    0.0788  -14.9274 C   0  0  0  0  0  0  0  0  0  0  0  0
    4.8980    0.3424  -13.8150 C   0  0  0  0  0  0  0  0  0  0  0  0
    5.0996    1.5100  -13.0525 C   0  0  0  0  0  0  0  0  0  0  0  0
    6.0910    2.4382  -13.4077 C   0  0  0  0  0  0  0  0  0  0  0  0
    6.2214    3.5435  -12.5957 O   0  0  0  0  0  0  0  0  0  0  0  0
    7.2272    4.4911  -12.9203 C   0  0  0  0  0  0  0  0  0  0  0  0
    7.3304    5.5262  -11.7976 C   0  0  0  0  0  0  0  0  0  0  0  0
    8.1916    5.0314  -10.6234 C   0  0  0  0  0  0  0  0  0  0  0  0
    8.4864    6.1026   -9.6330 N   0  0  2  0  0  0  0  0  0  0  0  0
    9.6881    6.8927  -10.0300 C   0  0  0  0  0  0  0  0  0  0  0  0
   10.1090    7.9348   -8.9752 C   0  0  0  0  0  0  0  0  0  0  0  0
   10.2664    7.3035   -7.5753 C   0  0  1  0  0  0  0  0  0  0  0  0
   10.7066    8.2822   -6.5114 C   0  0  0  0  0  0  0  0  0  0  0  0
   10.4862    9.5848   -6.6466 N   0  0  0  0  0  0  0  0  0  0  0  0
   10.9524   10.2382   -5.4738 O   0  0  0  0  0  0  0  0  0  0  0  0
   11.4456    9.2948   -4.5930 C   0  0  0  0  0  0  0  0  0  0  0  0
   11.9828    9.4159   -3.3060 C   0  0  0  0  0  0  0  0  0  0  0  0
   12.3630    8.2341   -2.6417 C   0  0  0  0  0  0  0  0  0  0  0  0
   12.8846    8.3075   -1.3977 F   0  0  0  0  0  0  0  0  0  0  0  0
   12.2013    6.9756   -3.2693 C   0  0  0  0  0  0  0  0  0  0  0  0
   11.6759    6.8832   -4.5791 C   0  0  0  0  0  0  0  0  0  0  0  0
   11.2858    8.0671   -5.2420 C   0  0  0  0  0  0  0  0  0  0  0  0
    8.9410    6.6288   -7.2143 C   0  0  0  0  0  0  0  0  0  0  0  0
    8.6069    5.5496   -8.2558 C   0  0  0  0  0  0  0  0  0  0  0  0
    6.9351    2.1554  -14.5109 C   0  0  0  0  0  0  0  0  0  0  0  0
    6.7694    0.9699  -15.2476 C   0  0  0  0  0  0  0  0  0  0  0  0
    4.5488   -2.3564  -17.4935 C   0  0  0  0  0  0  0  0  0  0  0  0
    5.4824   -3.4177  -17.4618 C   0  0  0  0  0  0  0  0  0  0  0  0
    5.6263   -4.2764  -18.5681 C   0  0  0  0  0  0  0  0  0  0  0  0
    4.8358   -4.0828  -19.7163 C   0  0  0  0  0  0  0  0  0  0  0  0
    3.8948   -3.0369  -19.7507 C   0  0  0  0  0  0  0  0  0  0  0  0
    3.7422   -2.1825  -18.6408 C   0  0  0  0  0  0  0  0  0  0  0  0
    6.3901   -1.4414  -16.1686 H   0  0  0  0  0  0  0  0  0  0  0  0
    4.1005   -0.3352  -13.5526 H   0  0  0  0  0  0  0  0  0  0  0  0
    4.4866    1.7300  -12.1968 H   0  0  0  0  0  0  0  0  0  0  0  0
    8.2012    4.0205  -13.0650 H   0  0  0  0  0  0  0  0  0  0  0  0
    6.9486    4.9758  -13.8518 H   0  0  0  0  0  0  0  0  0  0  0  0
    7.7513    6.4446  -12.2075 H   0  0  0  0  0  0  0  0  0  0  0  0
    6.3272    5.7691  -11.4470 H   0  0  0  0  0  0  0  0  0  0  0  0
    7.6861    4.1915  -10.1477 H   0  0  0  0  0  0  0  0  0  0  0  0
    9.1307    4.6088  -10.9897 H   0  0  0  0  0  0  0  0  0  0  0  0
   10.5198    6.2131  -10.2158 H   0  0  0  0  0  0  0  0  0  0  0  0
    9.4928    7.3991  -10.9760 H   0  0  0  0  0  0  0  0  0  0  0  0
   11.0428    8.4096   -9.2810 H   0  0  0  0  0  0  0  0  0  0  0  0
    9.3586    8.7269   -8.9424 H   0  0  0  0  0  0  0  0  0  0  0  0
   11.0320    6.5287   -7.6413 H   0  0  0  0  0  0  0  0  0  0  0  0
   12.0849   10.3798   -2.8294 H   0  0  0  0  0  0  0  0  0  0  0  0
   12.4910    6.0759   -2.7472 H   0  0  0  0  0  0  0  0  0  0  0  0
   11.5557    5.9206   -5.0527 H   0  0  0  0  0  0  0  0  0  0  0  0
    9.0156    6.1728   -6.2276 H   0  0  0  0  0  0  0  0  0  0  0  0
    8.1372    7.3644   -7.1457 H   0  0  0  0  0  0  0  0  0  0  0  0
    7.6840    5.0535   -7.9669 H   0  0  0  0  0  0  0  0  0  0  0  0
    9.3802    4.7796   -8.2488 H   0  0  0  0  0  0  0  0  0  0  0  0
    7.7256    2.8241  -14.8131 H   0  0  0  0  0  0  0  0  0  0  0  0
    7.4150    0.7710  -16.0903 H   0  0  0  0  0  0  0  0  0  0  0  0
    6.0849   -3.5938  -16.5834 H   0  0  0  0  0  0  0  0  0  0  0  0
    6.3400   -5.0856  -18.5296 H   0  0  0  0  0  0  0  0  0  0  0  0
    4.9425   -4.7401  -20.5666 H   0  0  0  0  0  0  0  0  0  0  0  0
    3.2870   -2.8923  -20.6310 H   0  0  0  0  0  0  0  0  0  0  0  0
    3.0065   -1.3905  -18.6759 H   0  0  0  0  0  0  0  0  0  0  0  0
    7.6885    6.7428   -9.6371 H   0  0  0  0  0  0  0  0  0  0  0  0
  2  1  2  0
  3  2  1  0
  4  3  1  0
  5  4  1  0
  6  5  2  0
  7  6  1  0
  8  7  1  0
  9  8  1  0
 10  9  1  0
 11 10  1  0
 12 11  1  0
 13 12  1  0
 14 13  1  0
 15 14  1  0
 16 15  1  0
 17 16  2  0
 18 17  1  0
 19 18  1  0
 20 19  2  0
 21 20  1  0
 22 21  1  0
 23 21  2  0
 24 23  1  0
 25 16  1  0
 25 19  1  0
 25 24  2  0
 26 15  1  0
 27 12  1  0
 27 26  1  0
 28  7  2  0
 29  4  2  0
 29 28  1  0
 30  2  1  0
 31 30  2  0
 32 31  1  0
 33 32  2  0
 34 33  1  0
 35 30  1  0
 35 34  2  0
 36  3  1  0
 37  5  1  0
 38  6  1  0
 39  9  1  0
 40  9  1  0
 41 10  1  0
 42 10  1  0
 43 11  1  0
 44 11  1  0
 45 13  1  0
 46 13  1  0
 47 14  1  0
 48 14  1  0
 15 49  1  6
 50 20  1  0
 51 23  1  0
 52 24  1  0
 53 26  1  0
 54 26  1  0
 55 27  1  0
 56 27  1  0
 57 28  1  0
 58 29  1  0
 59 31  1  0
 60 32  1  0
 61 33  1  0
 62 34  1  0
 63 35  1  0
 12 64  1  1
M  CHG  1  12   1
M  END
>  <b_m_subgroup_collapsed>  (193) 
0

>  <r_i_docking_score>  (193) 
-8.6379754322753097

>  <s_m_subgroup_title>  (193) 
glide-dock_SP_D22_pv

>  <s_m_subgroupid>  (193) 
glide-dock_SP_D22_pv

>  <Molecule ChEMBL ID>  (193) 
CHEMBL4760590

>  <Standard Type>  (193) 
Ki

>  <Standard Value>  (193) 
10000.0

>  <label>  (193) 
0

$$$$
CHEMBL492034
     RDKit          3D

 56 59  0  0  1  0  0  0  0  0999 V2000
   12.6087    8.1661   -1.8207 C   0  0  0  0  0  0  0  0  0  0  0  0
   12.0854    8.0765   -3.2365 C   0  0  0  0  0  0  0  0  0  0  0  0
   11.6861    6.8494   -3.7869 C   0  0  0  0  0  0  0  0  0  0  0  0
   11.1110    6.8113   -5.0712 C   0  0  0  0  0  0  0  0  0  0  0  0
   10.9214    7.9807   -5.8440 C   0  0  0  0  0  0  0  0  0  0  0  0
   10.2356    7.8489   -7.0787 N   0  0  0  0  0  0  0  0  0  0  0  0
    8.9847    7.0929   -7.1549 C   0  0  0  0  0  0  0  0  0  0  0  0
    8.9819    6.1408   -8.3732 C   0  0  0  0  0  0  0  0  0  0  0  0
    9.3333    6.8384   -9.6422 N   0  0  0  0  0  0  0  0  0  0  0  0
    9.4617    5.9198  -10.8088 C   0  0  0  0  0  0  0  0  0  0  0  0
    8.1439    5.4749  -11.4316 C   0  0  1  0  0  0  0  0  0  0  0  0
    7.3980    6.3164  -12.4385 C   0  0  0  0  0  0  0  0  0  0  0  0
    8.0617    5.0334  -12.9037 C   0  0  1  0  0  0  0  0  0  0  0  0
    9.2674    5.1872  -13.8294 C   0  0  0  0  0  0  0  0  0  0  0  0
    7.2299    3.7972  -13.2552 C   0  0  0  0  0  0  0  0  0  0  0  0
    7.6338    2.8530  -14.2409 C   0  0  0  0  0  0  0  0  0  0  0  0
    6.8947    1.6770  -14.4781 C   0  0  0  0  0  0  0  0  0  0  0  0
    5.7262    1.4169  -13.7438 C   0  0  0  0  0  0  0  0  0  0  0  0
    5.2855    2.3564  -12.7970 C   0  0  0  0  0  0  0  0  0  0  0  0
    6.0224    3.5331  -12.5628 C   0  0  0  0  0  0  0  0  0  0  0  0
   10.5814    7.6485   -9.5071 C   0  0  0  0  0  0  0  0  0  0  0  0
   10.5924    8.5784   -8.2842 C   0  0  0  0  0  0  0  0  0  0  0  0
   11.4157    9.2093   -5.3039 C   0  0  0  0  0  0  0  0  0  0  0  0
   11.3557   10.5368   -6.0256 C   0  0  0  0  0  0  0  0  0  0  0  0
   11.9755    9.2402   -4.0095 C   0  0  0  0  0  0  0  0  0  0  0  0
   13.4800    8.8198   -1.7704 H   0  0  0  0  0  0  0  0  0  0  0  0
   11.8415    8.5752   -1.1644 H   0  0  0  0  0  0  0  0  0  0  0  0
   12.8858    7.1816   -1.4466 H   0  0  0  0  0  0  0  0  0  0  0  0
   11.7803    5.9378   -3.2149 H   0  0  0  0  0  0  0  0  0  0  0  0
   10.7949    5.8553   -5.4570 H   0  0  0  0  0  0  0  0  0  0  0  0
    8.1624    7.8050   -7.2402 H   0  0  0  0  0  0  0  0  0  0  0  0
    8.7925    6.5282   -6.2440 H   0  0  0  0  0  0  0  0  0  0  0  0
    8.0028    5.6726   -8.4703 H   0  0  0  0  0  0  0  0  0  0  0  0
    9.6990    5.3383   -8.1955 H   0  0  0  0  0  0  0  0  0  0  0  0
   10.0363    5.0362  -10.5289 H   0  0  0  0  0  0  0  0  0  0  0  0
   10.0480    6.4291  -11.5691 H   0  0  0  0  0  0  0  0  0  0  0  0
    7.5222    4.9242  -10.7298 H   0  0  0  0  0  0  0  0  0  0  0  0
    7.8566    7.2665  -12.7049 H   0  0  0  0  0  0  0  0  0  0  0  0
    6.3135    6.3467  -12.3574 H   0  0  0  0  0  0  0  0  0  0  0  0
    9.8188    6.1030  -13.6349 H   0  0  0  0  0  0  0  0  0  0  0  0
    9.9595    4.3541  -13.7004 H   0  0  0  0  0  0  0  0  0  0  0  0
    8.9458    5.2333  -14.8703 H   0  0  0  0  0  0  0  0  0  0  0  0
    8.5361    2.9838  -14.8165 H   0  0  0  0  0  0  0  0  0  0  0  0
    7.2347    0.9659  -15.2168 H   0  0  0  0  0  0  0  0  0  0  0  0
    5.1621    0.5130  -13.9215 H   0  0  0  0  0  0  0  0  0  0  0  0
    4.3782    2.1726  -12.2455 H   0  0  0  0  0  0  0  0  0  0  0  0
    5.6573    4.2180  -11.8117 H   0  0  0  0  0  0  0  0  0  0  0  0
   11.4337    6.9713   -9.4355 H   0  0  0  0  0  0  0  0  0  0  0  0
   10.7338    8.2478  -10.4060 H   0  0  0  0  0  0  0  0  0  0  0  0
    9.8643    9.3736   -8.4359 H   0  0  0  0  0  0  0  0  0  0  0  0
   11.5776    9.0354   -8.1900 H   0  0  0  0  0  0  0  0  0  0  0  0
   11.2863   11.3718   -5.3288 H   0  0  0  0  0  0  0  0  0  0  0  0
   12.2406   10.6729   -6.6457 H   0  0  0  0  0  0  0  0  0  0  0  0
   10.4812   10.5802   -6.6468 H   0  0  0  0  0  0  0  0  0  0  0  0
   12.3098   10.1719   -3.5821 H   0  0  0  0  0  0  0  0  0  0  0  0
    8.5661    7.4723   -9.8412 H   0  0  0  0  0  0  0  0  0  0  0  0
  2  1  1  0
  3  2  1  0
  4  3  2  0
  5  4  1  0
  6  5  1  0
  7  6  1  0
  8  7  1  0
  9  8  1  0
 10  9  1  0
 11 10  1  0
 12 11  1  0
 13 11  1  0
 13 12  1  0
 13 14  1  6
 15 13  1  0
 16 15  2  0
 17 16  1  0
 18 17  2  0
 19 18  1  0
 20 15  1  0
 20 19  2  0
 21  9  1  0
 22  6  1  0
 22 21  1  0
 23  5  2  0
 24 23  1  0
 25  2  2  0
 25 23  1  0
 26  1  1  0
 27  1  1  0
 28  1  1  0
 29  3  1  0
 30  4  1  0
 31  7  1  0
 32  7  1  0
 33  8  1  0
 34  8  1  0
 35 10  1  0
 36 10  1  0
 11 37  1  1
 38 12  1  0
 39 12  1  0
 40 14  1  0
 41 14  1  0
 42 14  1  0
 43 16  1  0
 44 17  1  0
 45 18  1  0
 46 19  1  0
 47 20  1  0
 48 21  1  0
 49 21  1  0
 50 22  1  0
 51 22  1  0
 52 24  1  0
 53 24  1  0
 54 24  1  0
 55 25  1  0
 56  9  1  0
M  CHG  1   9   1
M  END
>  <b_m_subgroup_collapsed>  (194) 
0

>  <r_i_docking_score>  (194) 
-8.6318032150047408

>  <s_m_subgroup_title>  (194) 
glide-dock_SP_D22_pv

>  <s_m_subgroupid>  (194) 
glide-dock_SP_D22_pv

>  <Molecule ChEMBL ID>  (194) 
CHEMBL492034

>  <Standard Type>  (194) 
Ki

>  <Standard Value>  (194) 
10000.0

>  <label>  (194) 
0

$$$$
CHEMBL3819434
     RDKit          3D

 57 61  0  0  1  0  0  0  0  0999 V2000
   12.5921    8.0539   -8.2469 O   0  0  0  0  0  0  0  0  0  0  0  0
   11.3808    7.7857   -7.5691 C   0  0  1  0  0  0  0  0  0  0  0  0
   11.5881    7.9479   -6.0434 C   0  0  0  0  0  0  0  0  0  0  0  0
   12.0859    9.1716   -5.5396 C   0  0  0  0  0  0  0  0  0  0  0  0
   12.3860    9.2995   -4.1725 C   0  0  0  0  0  0  0  0  0  0  0  0
   12.1547    8.2591   -3.2718 C   0  0  0  0  0  0  0  0  0  0  0  0
   12.4860    8.5212   -1.6057 Cl  0  0  0  0  0  0  0  0  0  0  0  0
   11.6860    7.0284   -3.7465 C   0  0  0  0  0  0  0  0  0  0  0  0
   11.4258    6.8759   -5.1204 C   0  0  0  0  0  0  0  0  0  0  0  0
   10.4218    8.8633   -8.1624 C   0  0  0  0  0  0  0  0  0  0  0  0
    8.9626    8.3876   -8.2611 C   0  0  2  0  0  0  0  0  0  0  0  0
    8.4859    7.9856   -6.8540 C   0  0  0  0  0  0  0  0  0  0  0  0
    8.6627    6.4744   -6.8068 C   0  0  0  0  0  0  0  0  0  0  0  0
    9.4232    6.1341   -8.0905 C   0  0  2  0  0  0  0  0  0  0  0  0
   10.9460    6.3465   -8.0022 C   0  0  0  0  0  0  0  0  0  0  0  0
    8.8860    7.1266   -9.0338 N   0  0  2  0  0  0  0  0  0  0  0  0
    9.3483    7.1131  -10.4520 C   0  0  0  0  0  0  0  0  0  0  0  0
    9.2068    5.7177  -11.1049 C   0  0  0  0  0  0  0  0  0  0  0  0
    9.7486    5.6471  -12.5449 C   0  0  0  0  0  0  0  0  0  0  0  0
    8.6647    5.5686  -13.6310 C   0  0  0  0  0  0  0  0  0  0  0  0
    8.0100    4.2327  -13.7486 C   0  0  0  0  0  0  0  0  0  0  0  0
    6.8222    3.9603  -13.1945 N   0  0  0  0  0  0  0  0  0  0  0  0
    6.4521    2.6507  -13.4875 C   0  0  0  0  0  0  0  0  0  0  0  0
    5.2816    1.9829  -13.0627 C   0  0  0  0  0  0  0  0  0  0  0  0
    5.0224    0.6512  -13.4468 C   0  0  0  0  0  0  0  0  0  0  0  0
    5.9507   -0.0564  -14.2325 C   0  0  0  0  0  0  0  0  0  0  0  0
    7.1375    0.5728  -14.6473 C   0  0  0  0  0  0  0  0  0  0  0  0
    7.3797    1.9101  -14.2804 C   0  0  0  0  0  0  0  0  0  0  0  0
    8.7755    2.9149  -14.6469 S   0  0  0  0  0  0  0  0  0  0  0  0
   13.2748    7.5213   -7.8683 H   0  0  0  0  0  0  0  0  0  0  0  0
   12.3010    9.9937   -6.2072 H   0  0  0  0  0  0  0  0  0  0  0  0
   12.8433   10.1723   -3.7722 H   0  0  0  0  0  0  0  0  0  0  0  0
   11.5385    6.1999   -3.0682 H   0  0  0  0  0  0  0  0  0  0  0  0
   11.1272    5.8893   -5.4262 H   0  0  0  0  0  0  0  0  0  0  0  0
   10.4678    9.7723   -7.5709 H   0  0  0  0  0  0  0  0  0  0  0  0
   10.7379    9.1691   -9.1611 H   0  0  0  0  0  0  0  0  0  0  0  0
    8.3355    9.1664   -8.6959 H   0  0  0  0  0  0  0  0  0  0  0  0
    9.0365    8.5024   -6.0730 H   0  0  0  0  0  0  0  0  0  0  0  0
    7.4412    8.1723   -6.6469 H   0  0  0  0  0  0  0  0  0  0  0  0
    9.1127    6.1723   -5.8733 H   0  0  0  0  0  0  0  0  0  0  0  0
    7.6860    5.9935   -6.8400 H   0  0  0  0  0  0  0  0  0  0  0  0
    9.1920    5.1131   -8.3946 H   0  0  0  0  0  0  0  0  0  0  0  0
   11.2860    6.1723   -9.0172 H   0  0  0  0  0  0  0  0  0  0  0  0
   11.4405    5.5585   -7.4403 H   0  0  0  0  0  0  0  0  0  0  0  0
    8.7506    7.8344  -11.0112 H   0  0  0  0  0  0  0  0  0  0  0  0
   10.3799    7.4514  -10.5372 H   0  0  0  0  0  0  0  0  0  0  0  0
    9.7653    4.9820  -10.5278 H   0  0  0  0  0  0  0  0  0  0  0  0
    8.1657    5.3927  -11.0661 H   0  0  0  0  0  0  0  0  0  0  0  0
   10.3749    6.5194  -12.7355 H   0  0  0  0  0  0  0  0  0  0  0  0
   10.4147    4.7889  -12.6478 H   0  0  0  0  0  0  0  0  0  0  0  0
    7.9077    6.3353  -13.4595 H   0  0  0  0  0  0  0  0  0  0  0  0
    9.1163    5.7723  -14.6011 H   0  0  0  0  0  0  0  0  0  0  0  0
    4.5649    2.5169  -12.4584 H   0  0  0  0  0  0  0  0  0  0  0  0
    4.1053    0.1724  -13.1399 H   0  0  0  0  0  0  0  0  0  0  0  0
    5.7559   -1.0813  -14.5185 H   0  0  0  0  0  0  0  0  0  0  0  0
    7.8572    0.0297  -15.2434 H   0  0  0  0  0  0  0  0  0  0  0  0
    7.8838    6.9602   -9.1048 H   0  0  0  0  0  0  0  0  0  0  0  0
  2  1  1  6
  3  2  1  0
  4  3  1  0
  5  4  2  0
  6  5  1  0
  7  6  1  0
  8  6  2  0
  9  3  2  0
  9  8  1  0
 10  2  1  0
 11 10  1  0
 12 11  1  0
 13 12  1  0
 14 13  1  0
 15  2  1  0
 15 14  1  0
 16 11  1  0
 16 14  1  0
 17 16  1  0
 18 17  1  0
 19 18  1  0
 20 19  1  0
 21 20  1  0
 22 21  2  0
 23 22  1  0
 24 23  2  0
 25 24  1  0
 26 25  2  0
 27 26  1  0
 28 23  1  0
 28 27  2  0
 29 21  1  0
 29 28  1  0
 30  1  1  0
 31  4  1  0
 32  5  1  0
 33  8  1  0
 34  9  1  0
 35 10  1  0
 36 10  1  0
 11 37  1  6
 38 12  1  0
 39 12  1  0
 40 13  1  0
 41 13  1  0
 14 42  1  6
 43 15  1  0
 44 15  1  0
 45 17  1  0
 46 17  1  0
 47 18  1  0
 48 18  1  0
 49 19  1  0
 50 19  1  0
 51 20  1  0
 52 20  1  0
 53 24  1  0
 54 25  1  0
 55 26  1  0
 56 27  1  0
 16 57  1  6
M  CHG  1  16   1
M  END
>  <b_m_subgroup_collapsed>  (195) 
0

>  <r_i_docking_score>  (195) 
-8.6259744407497294

>  <s_m_subgroup_title>  (195) 
glide-dock_SP_D22_pv

>  <s_m_subgroupid>  (195) 
glide-dock_SP_D22_pv

>  <Molecule ChEMBL ID>  (195) 
CHEMBL3819434

>  <Standard Type>  (195) 
Ki

>  <Standard Value>  (195) 
44.67

>  <label>  (195) 
1

$$$$
CHEMBL486336
     RDKit          3D

 67 70  0  0  1  0  0  0  0  0999 V2000
    3.6808   -2.1228  -18.4036 C   0  0  0  0  0  0  0  0  0  0  0  0
    4.8699   -1.5190  -17.9158 O   0  0  0  0  0  0  0  0  0  0  0  0
    4.8716   -1.0254  -16.6292 C   0  0  0  0  0  0  0  0  0  0  0  0
    3.7768   -1.1125  -15.7337 C   0  0  0  0  0  0  0  0  0  0  0  0
    3.8653   -0.5555  -14.4420 C   0  0  0  0  0  0  0  0  0  0  0  0
    5.0540    0.0721  -14.0205 C   0  0  0  0  0  0  0  0  0  0  0  0
    6.1535    0.1509  -14.8983 C   0  0  0  0  0  0  0  0  0  0  0  0
    7.4397    0.8364  -14.4740 C   0  0  0  0  0  0  0  0  0  0  0  0
    7.3462    2.3614  -14.6463 C   0  0  0  0  0  0  0  0  0  0  0  0
    8.6658    3.0924  -14.4271 C   0  0  0  0  0  0  0  0  0  0  0  0
    9.7427    2.7957  -15.2898 C   0  0  0  0  0  0  0  0  0  0  0  0
   10.9655    3.4796  -15.1803 C   0  0  0  0  0  0  0  0  0  0  0  0
   11.1120    4.4884  -14.2181 C   0  0  0  0  0  0  0  0  0  0  0  0
   10.0421    4.7993  -13.3581 C   0  0  0  0  0  0  0  0  0  0  0  0
    8.8105    4.0972  -13.4316 C   0  0  0  0  0  0  0  0  0  0  0  0
    7.7445    4.3384  -12.5820 O   0  0  0  0  0  0  0  0  0  0  0  0
    7.7776    5.4652  -11.7045 C   0  0  0  0  0  0  0  0  0  0  0  0
    8.6240    5.2001  -10.4330 C   0  0  0  0  0  0  0  0  0  0  0  0
    8.8850    6.4238   -9.6273 N   0  0  2  0  0  0  0  0  0  0  0  0
    9.8401    7.3570  -10.2770 C   0  0  0  0  0  0  0  0  0  0  0  0
    9.9027    8.6678   -9.4983 C   0  0  0  0  0  0  0  0  0  0  0  0
   10.3133    8.4085   -8.0715 C   0  0  0  0  0  0  0  0  0  0  0  0
   11.0493    9.3722   -7.3691 C   0  0  0  0  0  0  0  0  0  0  0  0
   11.5102    9.1503   -6.0637 C   0  0  0  0  0  0  0  0  0  0  0  0
   12.2503   10.1592   -5.4953 O   0  0  0  0  0  0  0  0  0  0  0  0
   13.3364    9.7821   -4.6567 C   0  0  0  0  0  0  0  0  0  0  0  0
   11.1858    7.9349   -5.4184 C   0  0  0  0  0  0  0  0  0  0  0  0
   11.6080    7.7660   -4.1155 O   0  0  0  0  0  0  0  0  0  0  0  0
   11.5241    6.4858   -3.5333 C   0  0  0  0  0  0  0  0  0  0  0  0
   10.4210    6.9715   -6.1223 C   0  0  0  0  0  0  0  0  0  0  0  0
    9.9913    7.1900   -7.4499 C   0  0  0  0  0  0  0  0  0  0  0  0
    9.2375    6.0961   -8.2104 C   0  0  0  0  0  0  0  0  0  0  0  0
    6.0511   -0.3921  -16.1964 C   0  0  0  0  0  0  0  0  0  0  0  0
    3.8242   -2.4111  -19.4454 H   0  0  0  0  0  0  0  0  0  0  0  0
    3.4313   -3.0266  -17.8474 H   0  0  0  0  0  0  0  0  0  0  0  0
    2.8427   -1.4292  -18.3679 H   0  0  0  0  0  0  0  0  0  0  0  0
    2.8601   -1.6021  -16.0176 H   0  0  0  0  0  0  0  0  0  0  0  0
    3.0148   -0.6135  -13.7782 H   0  0  0  0  0  0  0  0  0  0  0  0
    5.1202    0.4979  -13.0304 H   0  0  0  0  0  0  0  0  0  0  0  0
    8.2522    0.4320  -15.0790 H   0  0  0  0  0  0  0  0  0  0  0  0
    7.6766    0.5719  -13.4470 H   0  0  0  0  0  0  0  0  0  0  0  0
    6.5636    2.7582  -14.0004 H   0  0  0  0  0  0  0  0  0  0  0  0
    7.0262    2.5721  -15.6697 H   0  0  0  0  0  0  0  0  0  0  0  0
    9.6330    2.0416  -16.0550 H   0  0  0  0  0  0  0  0  0  0  0  0
   11.7836    3.2385  -15.8440 H   0  0  0  0  0  0  0  0  0  0  0  0
   12.0443    5.0278  -14.1382 H   0  0  0  0  0  0  0  0  0  0  0  0
   10.2088    5.5870  -12.6429 H   0  0  0  0  0  0  0  0  0  0  0  0
    8.0956    6.3410  -12.2653 H   0  0  0  0  0  0  0  0  0  0  0  0
    6.7507    5.6827  -11.4076 H   0  0  0  0  0  0  0  0  0  0  0  0
    8.0852    4.4756   -9.8191 H   0  0  0  0  0  0  0  0  0  0  0  0
    9.5757    4.7244  -10.6664 H   0  0  0  0  0  0  0  0  0  0  0  0
   10.8266    6.8958  -10.3261 H   0  0  0  0  0  0  0  0  0  0  0  0
    9.5474    7.5850  -11.2998 H   0  0  0  0  0  0  0  0  0  0  0  0
    8.9309    9.1667   -9.5053 H   0  0  0  0  0  0  0  0  0  0  0  0
   10.6134    9.3469   -9.9724 H   0  0  0  0  0  0  0  0  0  0  0  0
   11.2862   10.2879   -7.8609 H   0  0  0  0  0  0  0  0  0  0  0  0
   14.0855   10.5717   -4.6425 H   0  0  0  0  0  0  0  0  0  0  0  0
   13.0367    9.6029   -3.6218 H   0  0  0  0  0  0  0  0  0  0  0  0
   13.9071    8.9710   -5.0483 H   0  0  0  0  0  0  0  0  0  0  0  0
   11.9876    6.5003   -2.5458 H   0  0  0  0  0  0  0  0  0  0  0  0
   10.4903    6.1719   -3.4043 H   0  0  0  0  0  0  0  0  0  0  0  0
   12.0672    5.7720   -4.1433 H   0  0  0  0  0  0  0  0  0  0  0  0
   10.1524    6.0417   -5.6537 H   0  0  0  0  0  0  0  0  0  0  0  0
    8.3251    5.8436   -7.6685 H   0  0  0  0  0  0  0  0  0  0  0  0
    9.8716    5.2081   -8.1973 H   0  0  0  0  0  0  0  0  0  0  0  0
    6.8904   -0.3287  -16.8756 H   0  0  0  0  0  0  0  0  0  0  0  0
    7.9945    6.9256   -9.5851 H   0  0  0  0  0  0  0  0  0  0  0  0
  2  1  1  0
  3  2  1  0
  4  3  1  0
  5  4  2  0
  6  5  1  0
  7  6  2  0
  8  7  1  0
  9  8  1  0
 10  9  1  0
 11 10  2  0
 12 11  1  0
 13 12  2  0
 14 13  1  0
 15 10  1  0
 15 14  2  0
 16 15  1  0
 17 16  1  0
 18 17  1  0
 19 18  1  0
 20 19  1  0
 21 20  1  0
 22 21  1  0
 23 22  1  0
 24 23  2  0
 25 24  1  0
 26 25  1  0
 27 24  1  0
 28 27  1  0
 29 28  1  0
 30 27  2  0
 31 22  2  0
 31 30  1  0
 32 19  1  0
 32 31  1  0
 33  3  2  0
 33  7  1  0
 34  1  1  0
 35  1  1  0
 36  1  1  0
 37  4  1  0
 38  5  1  0
 39  6  1  0
 40  8  1  0
 41  8  1  0
 42  9  1  0
 43  9  1  0
 44 11  1  0
 45 12  1  0
 46 13  1  0
 47 14  1  0
 48 17  1  0
 49 17  1  0
 50 18  1  0
 51 18  1  0
 52 20  1  0
 53 20  1  0
 54 21  1  0
 55 21  1  0
 56 23  1  0
 57 26  1  0
 58 26  1  0
 59 26  1  0
 60 29  1  0
 61 29  1  0
 62 29  1  0
 63 30  1  0
 64 32  1  0
 65 32  1  0
 66 33  1  0
 19 67  1  1
M  CHG  1  19   1
M  END
>  <b_m_subgroup_collapsed>  (196) 
0

>  <r_i_docking_score>  (196) 
-8.6254552310044197

>  <s_m_subgroup_title>  (196) 
glide-dock_SP_D22_pv

>  <s_m_subgroupid>  (196) 
glide-dock_SP_D22_pv

>  <Molecule ChEMBL ID>  (196) 
CHEMBL486336

>  <Standard Type>  (196) 
Ki

>  <Standard Value>  (196) 
1000000.0

>  <label>  (196) 
0

$$$$
CHEMBL182721
     RDKit          3D

 53 57  0  0  1  0  0  0  0  0999 V2000
    9.2773    2.3314  -15.8570 C   0  0  0  0  0  0  0  0  0  0  0  0
    8.3978    2.5452  -14.7809 C   0  0  0  0  0  0  0  0  0  0  0  0
    8.6686    3.5553  -13.8396 C   0  0  0  0  0  0  0  0  0  0  0  0
    9.8266    4.3636  -13.9511 C   0  0  0  0  0  0  0  0  0  0  0  0
   10.1301    5.3829  -13.0059 C   0  0  0  0  0  0  0  0  0  0  0  0
    9.3340    5.6108  -11.8663 N   0  0  0  0  0  0  0  0  0  0  0  0
    9.1895    4.5943  -10.8293 C   0  0  0  0  0  0  0  0  0  0  0  0
    9.6579    5.1240   -9.4552 C   0  0  0  0  0  0  0  0  0  0  0  0
    8.9825    6.3817   -9.1396 N   0  0  0  0  0  0  0  0  0  0  0  0
    9.2436    6.8664   -7.7812 C   0  0  0  0  0  0  0  0  0  0  0  0
   10.7435    7.0553   -7.4720 C   0  0  0  0  0  0  0  0  0  0  0  0
   11.0021    7.8030   -6.1836 C   0  0  0  0  0  0  0  0  0  0  0  0
   10.9653    9.2196   -6.1862 C   0  0  0  0  0  0  0  0  0  0  0  0
   11.3051    9.9472   -5.0279 C   0  0  0  0  0  0  0  0  0  0  0  0
   11.6876    9.2269   -3.8831 C   0  0  0  0  0  0  0  0  0  0  0  0
   11.7029    7.8444   -3.8725 C   0  0  0  0  0  0  0  0  0  0  0  0
   11.3502    7.0969   -5.0088 C   0  0  0  0  0  0  0  0  0  0  0  0
   12.0868    7.3688   -2.6316 N   0  0  0  0  0  0  0  0  0  0  0  0
   12.4917    8.5569   -1.8747 C   0  0  0  0  0  0  0  0  0  0  0  0
   12.0847    9.7281   -2.6536 N   0  0  0  0  0  0  0  0  0  0  0  0
    9.3221    7.3866  -10.1571 C   0  0  0  0  0  0  0  0  0  0  0  0
    8.8292    6.9389  -11.5456 C   0  0  0  0  0  0  0  0  0  0  0  0
   11.2661    6.1983  -13.2110 C   0  0  0  0  0  0  0  0  0  0  0  0
   12.1036    6.0012  -14.3205 C   0  0  0  0  0  0  0  0  0  0  0  0
   11.8258    4.9724  -15.2369 C   0  0  0  0  0  0  0  0  0  0  0  0
   10.6924    4.1566  -15.0582 C   0  0  0  0  0  0  0  0  0  0  0  0
   10.4209    3.1383  -15.9971 C   0  0  0  0  0  0  0  0  0  0  0  0
    9.0697    1.5524  -16.5776 H   0  0  0  0  0  0  0  0  0  0  0  0
    7.5115    1.9352  -14.6767 H   0  0  0  0  0  0  0  0  0  0  0  0
    7.9675    3.7037  -13.0333 H   0  0  0  0  0  0  0  0  0  0  0  0
    9.7635    3.7085  -11.0972 H   0  0  0  0  0  0  0  0  0  0  0  0
    8.1403    4.3017  -10.7706 H   0  0  0  0  0  0  0  0  0  0  0  0
   10.7310    5.3020   -9.4540 H   0  0  0  0  0  0  0  0  0  0  0  0
    9.4488    4.3835   -8.6810 H   0  0  0  0  0  0  0  0  0  0  0  0
    8.8022    6.1725   -7.0642 H   0  0  0  0  0  0  0  0  0  0  0  0
    8.7068    7.8080   -7.6526 H   0  0  0  0  0  0  0  0  0  0  0  0
   11.2519    7.6147   -8.2531 H   0  0  0  0  0  0  0  0  0  0  0  0
   11.2429    6.0872   -7.4195 H   0  0  0  0  0  0  0  0  0  0  0  0
   10.6985    9.7508   -7.0881 H   0  0  0  0  0  0  0  0  0  0  0  0
   11.2853   11.0258   -5.0301 H   0  0  0  0  0  0  0  0  0  0  0  0
   11.3719    6.0176   -4.9912 H   0  0  0  0  0  0  0  0  0  0  0  0
   12.5608    6.4853   -2.5244 H   0  0  0  0  0  0  0  0  0  0  0  0
   13.5707    8.5813   -1.7138 H   0  0  0  0  0  0  0  0  0  0  0  0
   12.0003    8.5742   -0.9020 H   0  0  0  0  0  0  0  0  0  0  0  0
   12.6404   10.5742   -2.5701 H   0  0  0  0  0  0  0  0  0  0  0  0
    8.8715    8.3457   -9.8963 H   0  0  0  0  0  0  0  0  0  0  0  0
   10.3989    7.5428  -10.2084 H   0  0  0  0  0  0  0  0  0  0  0  0
    9.1258    7.6685  -12.2979 H   0  0  0  0  0  0  0  0  0  0  0  0
    7.7418    6.8957  -11.5631 H   0  0  0  0  0  0  0  0  0  0  0  0
   11.5055    6.9796  -12.5054 H   0  0  0  0  0  0  0  0  0  0  0  0
   12.9694    6.6278  -14.4608 H   0  0  0  0  0  0  0  0  0  0  0  0
   12.4804    4.8232  -16.0841 H   0  0  0  0  0  0  0  0  0  0  0  0
   11.0845    2.9748  -16.8329 H   0  0  0  0  0  0  0  0  0  0  0  0
  2  1  2  0
  3  2  1  0
  4  3  2  0
  5  4  1  0
  6  5  1  0
  7  6  1  0
  8  7  1  0
  9  8  1  0
 10  9  1  0
 11 10  1  0
 12 11  1  0
 13 12  1  0
 14 13  2  0
 15 14  1  0
 16 15  2  0
 17 12  2  0
 17 16  1  0
 18 16  1  0
 19 18  1  0
 20 15  1  0
 20 19  1  0
 21  9  1  0
 22  6  1  0
 22 21  1  0
 23  5  2  0
 24 23  1  0
 25 24  2  0
 26  4  1  0
 26 25  1  0
 27  1  1  0
 27 26  2  0
 28  1  1  0
 29  2  1  0
 30  3  1  0
 31  7  1  0
 32  7  1  0
 33  8  1  0
 34  8  1  0
 35 10  1  0
 36 10  1  0
 37 11  1  0
 38 11  1  0
 39 13  1  0
 40 14  1  0
 41 17  1  0
 42 18  1  0
 43 19  1  0
 44 19  1  0
 45 20  1  0
 46 21  1  0
 47 21  1  0
 48 22  1  0
 49 22  1  0
 50 23  1  0
 51 24  1  0
 52 25  1  0
 53 27  1  0
M  END
>  <b_m_subgroup_collapsed>  (197) 
0

>  <r_i_docking_score>  (197) 
-8.6230612283503607

>  <s_m_subgroup_title>  (197) 
glide-dock_SP_D22_pv

>  <s_m_subgroupid>  (197) 
glide-dock_SP_D22_pv

>  <Molecule ChEMBL ID>  (197) 
CHEMBL182721

>  <Standard Type>  (197) 
Ki

>  <Standard Value>  (197) 
1.66

>  <label>  (197) 
1

$$$$
CHEMBL4783987
     RDKit          3D

 58 61  0  0  1  0  0  0  0  0999 V2000
   12.7315    8.5724   -1.0469 F   0  0  0  0  0  0  0  0  0  0  0  0
   12.3014    8.4209   -2.3148 C   0  0  0  0  0  0  0  0  0  0  0  0
   12.0859    9.5601   -3.1073 C   0  0  0  0  0  0  0  0  0  0  0  0
   11.7220    9.4168   -4.4564 C   0  0  0  0  0  0  0  0  0  0  0  0
   11.5428    8.1320   -5.0023 C   0  0  0  0  0  0  0  0  0  0  0  0
   11.2422    7.9728   -6.4746 C   0  0  0  0  0  0  0  0  0  0  0  0
    9.9361    8.6646   -6.8975 C   0  0  0  0  0  0  0  0  0  0  0  0
    9.5586    8.3941   -8.3568 C   0  0  0  0  0  0  0  0  0  0  0  0
    9.2891    6.8985   -8.6144 C   0  0  0  0  0  0  0  0  0  0  0  0
    8.8859    6.5796   -9.9994 N   0  0  0  0  0  0  0  0  0  0  0  0
    8.4713    5.1568  -10.0976 C   0  0  0  0  0  0  0  0  0  0  0  0
    7.9660    4.8217  -11.5014 C   0  0  0  0  0  0  0  0  0  0  0  0
    9.0225    5.1425  -12.4464 N   0  0  0  0  0  0  0  0  0  0  0  0
    9.4299    4.2142  -13.4188 C   0  0  0  0  0  0  0  0  0  0  0  0
   10.7684    4.1667  -13.8567 C   0  0  0  0  0  0  0  0  0  0  0  0
   11.1331    3.2078  -14.8184 C   0  0  0  0  0  0  0  0  0  0  0  0
   10.1640    2.3172  -15.3312 C   0  0  0  0  0  0  0  0  0  0  0  0
   10.4998    1.3049  -16.3537 C   0  0  0  0  0  0  0  0  0  0  0  0
   11.5272    1.5399  -17.2980 C   0  0  0  0  0  0  0  0  0  0  0  0
   11.8464    0.5818  -18.2789 C   0  0  0  0  0  0  0  0  0  0  0  0
   11.1336   -0.6278  -18.3397 C   0  0  0  0  0  0  0  0  0  0  0  0
   10.1025   -0.8761  -17.4164 C   0  0  0  0  0  0  0  0  0  0  0  0
    9.7977    0.0799  -16.4265 C   0  0  0  0  0  0  0  0  0  0  0  0
    8.8555    2.4555  -14.8204 C   0  0  0  0  0  0  0  0  0  0  0  0
    8.4924    3.3707  -13.8953 N   0  0  0  0  0  0  0  0  0  0  0  0
    9.5117    6.5130  -12.4391 C   0  0  0  0  0  0  0  0  0  0  0  0
    9.8997    6.9619  -11.0205 C   0  0  0  0  0  0  0  0  0  0  0  0
   11.6893    6.9890   -4.1859 C   0  0  0  0  0  0  0  0  0  0  0  0
   12.0863    7.1348   -2.8430 C   0  0  0  0  0  0  0  0  0  0  0  0
   12.2259   10.5405   -2.6819 H   0  0  0  0  0  0  0  0  0  0  0  0
   11.6010   10.2969   -5.0723 H   0  0  0  0  0  0  0  0  0  0  0  0
   11.2143    6.9031   -6.6736 H   0  0  0  0  0  0  0  0  0  0  0  0
   12.0826    8.3685   -7.0472 H   0  0  0  0  0  0  0  0  0  0  0  0
   10.0610    9.7371   -6.7598 H   0  0  0  0  0  0  0  0  0  0  0  0
    9.1175    8.3538   -6.2480 H   0  0  0  0  0  0  0  0  0  0  0  0
   10.3615    8.7665   -8.9925 H   0  0  0  0  0  0  0  0  0  0  0  0
    8.6666    8.9681   -8.6095 H   0  0  0  0  0  0  0  0  0  0  0  0
    8.5038    6.5652   -7.9299 H   0  0  0  0  0  0  0  0  0  0  0  0
   10.1694    6.2935   -8.4032 H   0  0  0  0  0  0  0  0  0  0  0  0
    7.6910    4.9505   -9.3689 H   0  0  0  0  0  0  0  0  0  0  0  0
    9.3151    4.5147   -9.8423 H   0  0  0  0  0  0  0  0  0  0  0  0
    7.0758    5.4047  -11.7384 H   0  0  0  0  0  0  0  0  0  0  0  0
    7.6845    3.7725  -11.5461 H   0  0  0  0  0  0  0  0  0  0  0  0
   11.5215    4.8318  -13.4547 H   0  0  0  0  0  0  0  0  0  0  0  0
   12.1606    3.1593  -15.1479 H   0  0  0  0  0  0  0  0  0  0  0  0
   12.0806    2.4667  -17.2880 H   0  0  0  0  0  0  0  0  0  0  0  0
   12.6370    0.7804  -18.9889 H   0  0  0  0  0  0  0  0  0  0  0  0
   11.3749   -1.3651  -19.0903 H   0  0  0  0  0  0  0  0  0  0  0  0
    9.5553   -1.8056  -17.4596 H   0  0  0  0  0  0  0  0  0  0  0  0
    9.0112   -0.1488  -15.7200 H   0  0  0  0  0  0  0  0  0  0  0  0
    8.0540    1.8207  -15.1704 H   0  0  0  0  0  0  0  0  0  0  0  0
   10.3597    6.6457  -13.1083 H   0  0  0  0  0  0  0  0  0  0  0  0
    8.7013    7.1425  -12.8033 H   0  0  0  0  0  0  0  0  0  0  0  0
   10.0314    8.0450  -11.0369 H   0  0  0  0  0  0  0  0  0  0  0  0
   10.8655    6.5370  -10.7482 H   0  0  0  0  0  0  0  0  0  0  0  0
   11.5450    5.9985   -4.5908 H   0  0  0  0  0  0  0  0  0  0  0  0
   12.2354    6.2637   -2.2244 H   0  0  0  0  0  0  0  0  0  0  0  0
    8.0316    7.1150  -10.1850 H   0  0  0  0  0  0  0  0  0  0  0  0
  2  1  1  0
  3  2  1  0
  4  3  2  0
  5  4  1  0
  6  5  1  0
  7  6  1  0
  8  7  1  0
  9  8  1  0
 10  9  1  0
 11 10  1  0
 12 11  1  0
 13 12  1  0
 14 13  1  0
 15 14  2  0
 16 15  1  0
 17 16  2  0
 18 17  1  0
 19 18  2  0
 20 19  1  0
 21 20  2  0
 22 21  1  0
 23 18  1  0
 23 22  2  0
 24 17  1  0
 25 14  1  0
 25 24  2  0
 26 13  1  0
 27 10  1  0
 27 26  1  0
 28  5  2  0
 29  2  2  0
 29 28  1  0
 30  3  1  0
 31  4  1  0
 32  6  1  0
 33  6  1  0
 34  7  1  0
 35  7  1  0
 36  8  1  0
 37  8  1  0
 38  9  1  0
 39  9  1  0
 40 11  1  0
 41 11  1  0
 42 12  1  0
 43 12  1  0
 44 15  1  0
 45 16  1  0
 46 19  1  0
 47 20  1  0
 48 21  1  0
 49 22  1  0
 50 23  1  0
 51 24  1  0
 52 26  1  0
 53 26  1  0
 54 27  1  0
 55 27  1  0
 56 28  1  0
 57 29  1  0
 58 10  1  0
M  CHG  1  10   1
M  END
>  <b_m_subgroup_collapsed>  (198) 
0

>  <r_i_docking_score>  (198) 
-8.6128256622980306

>  <s_m_subgroup_title>  (198) 
glide-dock_SP_D22_pv

>  <s_m_subgroupid>  (198) 
glide-dock_SP_D22_pv

>  <Molecule ChEMBL ID>  (198) 
CHEMBL4783987

>  <Standard Type>  (198) 
Ki

>  <Standard Value>  (198) 
10000.0

>  <label>  (198) 
0

$$$$
CHEMBL197408
     RDKit          3D

 72 76  0  0  1  0  0  0  0  0999 V2000
   10.4310   -0.9120  -18.1706 C   0  0  0  0  0  0  0  0  0  0  0  0
    9.4468   -0.5984  -17.1976 O   0  0  0  0  0  0  0  0  0  0  0  0
    9.6479    0.4946  -16.3751 C   0  0  0  0  0  0  0  0  0  0  0  0
   10.8856    1.1745  -16.2860 C   0  0  0  0  0  0  0  0  0  0  0  0
   11.0400    2.2737  -15.4247 C   0  0  0  0  0  0  0  0  0  0  0  0
    9.9629    2.7145  -14.6257 C   0  0  0  0  0  0  0  0  0  0  0  0
   10.0576    3.8084  -13.7245 N   0  0  0  0  0  0  0  0  0  0  0  0
   10.8051    4.9237  -13.8483 C   0  0  0  0  0  0  0  0  0  0  0  0
   11.6287    5.0845  -14.7497 O   0  0  0  0  0  0  0  0  0  0  0  0
   10.5957    5.8447  -12.8743 N   0  0  0  0  0  0  0  0  0  0  0  0
    9.4907    5.7663  -11.8936 C   0  0  0  0  0  0  0  0  0  0  0  0
    9.2487    7.0920  -11.1517 C   0  0  0  0  0  0  0  0  0  0  0  0
   10.4851    7.6115  -10.5844 N   0  0  0  0  0  0  0  0  0  0  0  0
   10.6509    7.7566   -9.1941 C   0  0  0  0  0  0  0  0  0  0  0  0
    9.9669    6.9461   -8.2579 C   0  0  0  0  0  0  0  0  0  0  0  0
   10.2177    7.0769   -6.8787 C   0  0  0  0  0  0  0  0  0  0  0  0
   11.1478    8.0241   -6.3976 C   0  0  0  0  0  0  0  0  0  0  0  0
   11.4932    8.1153   -4.9685 C   0  0  0  0  0  0  0  0  0  0  0  0
   11.6866    6.9467   -4.1972 C   0  0  0  0  0  0  0  0  0  0  0  0
   12.0817    7.0215   -2.8479 C   0  0  0  0  0  0  0  0  0  0  0  0
   12.2864    8.2764   -2.2471 C   0  0  0  0  0  0  0  0  0  0  0  0
   12.0852    9.4467   -2.9999 C   0  0  0  0  0  0  0  0  0  0  0  0
   11.6884    9.3689   -4.3464 C   0  0  0  0  0  0  0  0  0  0  0  0
   11.7954    8.8581   -7.3319 C   0  0  0  0  0  0  0  0  0  0  0  0
   11.5573    8.7219   -8.7086 C   0  0  0  0  0  0  0  0  0  0  0  0
   11.6913    7.5860  -11.3997 C   0  0  0  0  0  0  0  0  0  0  0  0
   11.4385    7.0552  -12.8233 C   0  0  0  0  0  0  0  0  0  0  0  0
    8.7357    2.0253  -14.6897 C   0  0  0  0  0  0  0  0  0  0  0  0
    8.5643    0.9355  -15.5730 C   0  0  0  0  0  0  0  0  0  0  0  0
    7.3142    0.3037  -15.6933 N   0  0  0  0  0  0  0  0  0  0  0  0
    6.6255    0.4906  -16.9649 C   0  0  0  0  0  0  0  0  0  0  0  0
    5.6141   -0.6438  -17.1853 C   0  0  0  0  0  0  0  0  0  0  0  0
    4.7011   -0.7744  -16.0234 N   0  0  0  0  0  0  0  0  0  0  0  0
    3.6859   -1.8212  -16.2445 C   0  0  0  0  0  0  0  0  0  0  0  0
    5.4327   -0.9549  -14.7402 C   0  0  0  0  0  0  0  0  0  0  0  0
    6.4629    0.1686  -14.5189 C   0  0  0  0  0  0  0  0  0  0  0  0
   10.0795   -1.7471  -18.7766 H   0  0  0  0  0  0  0  0  0  0  0  0
   10.6135   -0.0663  -18.8377 H   0  0  0  0  0  0  0  0  0  0  0  0
   11.3692   -1.2187  -17.7145 H   0  0  0  0  0  0  0  0  0  0  0  0
   11.7441    0.8678  -16.8634 H   0  0  0  0  0  0  0  0  0  0  0  0
   12.0054    2.7564  -15.3775 H   0  0  0  0  0  0  0  0  0  0  0  0
    9.3886    3.8199  -12.9718 H   0  0  0  0  0  0  0  0  0  0  0  0
    9.7203    4.9857  -11.1647 H   0  0  0  0  0  0  0  0  0  0  0  0
    8.5592    5.4820  -12.3849 H   0  0  0  0  0  0  0  0  0  0  0  0
    8.4862    6.9709  -10.3889 H   0  0  0  0  0  0  0  0  0  0  0  0
    8.8526    7.8379  -11.8421 H   0  0  0  0  0  0  0  0  0  0  0  0
    9.2699    6.1867   -8.5804 H   0  0  0  0  0  0  0  0  0  0  0  0
    9.6997    6.4287   -6.1868 H   0  0  0  0  0  0  0  0  0  0  0  0
   11.5474    5.9731   -4.6462 H   0  0  0  0  0  0  0  0  0  0  0  0
   12.2277    6.1154   -2.2756 H   0  0  0  0  0  0  0  0  0  0  0  0
   12.5888    8.3456   -1.2131 H   0  0  0  0  0  0  0  0  0  0  0  0
   12.2172   10.4146   -2.5415 H   0  0  0  0  0  0  0  0  0  0  0  0
   11.5428   10.2800   -4.9078 H   0  0  0  0  0  0  0  0  0  0  0  0
   12.5235    9.5847   -6.9996 H   0  0  0  0  0  0  0  0  0  0  0  0
   12.0875    9.3719   -9.3916 H   0  0  0  0  0  0  0  0  0  0  0  0
   12.1254    8.5818  -11.4470 H   0  0  0  0  0  0  0  0  0  0  0  0
   12.4361    6.9726  -10.8969 H   0  0  0  0  0  0  0  0  0  0  0  0
   12.4070    6.9087  -13.3042 H   0  0  0  0  0  0  0  0  0  0  0  0
   10.9237    7.8179  -13.3976 H   0  0  0  0  0  0  0  0  0  0  0  0
    7.9120    2.3683  -14.0833 H   0  0  0  0  0  0  0  0  0  0  0  0
    6.1145    1.4518  -16.9536 H   0  0  0  0  0  0  0  0  0  0  0  0
    7.3264    0.5243  -17.7992 H   0  0  0  0  0  0  0  0  0  0  0  0
    5.0422   -0.4526  -18.0940 H   0  0  0  0  0  0  0  0  0  0  0  0
    6.1496   -1.5833  -17.3343 H   0  0  0  0  0  0  0  0  0  0  0  0
    4.1695   -2.7947  -16.3008 H   0  0  0  0  0  0  0  0  0  0  0  0
    2.9573   -1.8334  -15.4345 H   0  0  0  0  0  0  0  0  0  0  0  0
    3.1465   -1.6495  -17.1762 H   0  0  0  0  0  0  0  0  0  0  0  0
    4.7260   -0.9777  -13.9089 H   0  0  0  0  0  0  0  0  0  0  0  0
    5.9435   -1.9191  -14.7469 H   0  0  0  0  0  0  0  0  0  0  0  0
    7.0683   -0.0500  -13.6365 H   0  0  0  0  0  0  0  0  0  0  0  0
    5.9508    1.1128  -14.3324 H   0  0  0  0  0  0  0  0  0  0  0  0
    4.2079    0.1032  -15.9514 H   0  0  0  0  0  0  0  0  0  0  0  0
  2  1  1  0
  3  2  1  0
  4  3  1  0
  5  4  2  0
  6  5  1  0
  7  6  1  0
  8  7  1  0
  9  8  2  0
 10  8  1  0
 11 10  1  0
 12 11  1  0
 13 12  1  0
 14 13  1  0
 15 14  1  0
 16 15  2  0
 17 16  1  0
 18 17  1  0
 19 18  2  0
 20 19  1  0
 21 20  2  0
 22 21  1  0
 23 18  1  0
 23 22  2  0
 24 17  2  0
 25 14  2  0
 25 24  1  0
 26 13  1  0
 27 10  1  0
 27 26  1  0
 28  6  2  0
 29  3  2  0
 29 28  1  0
 30 29  1  0
 31 30  1  0
 32 31  1  0
 33 32  1  0
 34 33  1  0
 35 33  1  0
 36 30  1  0
 36 35  1  0
 37  1  1  0
 38  1  1  0
 39  1  1  0
 40  4  1  0
 41  5  1  0
 42  7  1  0
 43 11  1  0
 44 11  1  0
 45 12  1  0
 46 12  1  0
 47 15  1  0
 48 16  1  0
 49 19  1  0
 50 20  1  0
 51 21  1  0
 52 22  1  0
 53 23  1  0
 54 24  1  0
 55 25  1  0
 56 26  1  0
 57 26  1  0
 58 27  1  0
 59 27  1  0
 60 28  1  0
 61 31  1  0
 62 31  1  0
 63 32  1  0
 64 32  1  0
 65 34  1  0
 66 34  1  0
 67 34  1  0
 68 35  1  0
 69 35  1  0
 70 36  1  0
 71 36  1  0
 72 33  1  0
M  CHG  1  33   1
M  END
>  <b_m_subgroup_collapsed>  (199) 
0

>  <r_i_docking_score>  (199) 
-8.6069860885841099

>  <s_m_subgroup_title>  (199) 
glide-dock_SP_D22_pv

>  <s_m_subgroupid>  (199) 
glide-dock_SP_D22_pv

>  <Molecule ChEMBL ID>  (199) 
CHEMBL197408

>  <Standard Type>  (199) 
Ki

>  <Standard Value>  (199) 
10000.0

>  <label>  (199) 
0

$$$$
CHEMBL4755062
     RDKit          3D

 60 63  0  0  1  0  0  0  0  0999 V2000
    3.7315   -1.7162  -16.4080 C   0  0  0  0  0  0  0  0  0  0  0  0
    5.0636   -1.8245  -15.6561 C   0  0  0  0  0  0  0  0  0  0  0  0
    5.3131   -0.6103  -14.7655 C   0  0  0  0  0  0  0  0  0  0  0  0
    4.4867   -0.2894  -13.9102 O   0  0  0  0  0  0  0  0  0  0  0  0
    6.4848    0.0101  -14.9791 N   0  0  0  0  0  0  0  0  0  0  0  0
    6.9449    1.2677  -14.5100 C   0  0  0  0  0  0  0  0  0  0  0  0
    8.2900    1.5905  -14.7830 C   0  0  0  0  0  0  0  0  0  0  0  0
    8.8187    2.8336  -14.3956 C   0  0  0  0  0  0  0  0  0  0  0  0
    8.0068    3.7813  -13.7303 C   0  0  0  0  0  0  0  0  0  0  0  0
    8.4497    5.0134  -13.3171 O   0  0  0  0  0  0  0  0  0  0  0  0
    9.8511    5.2149  -13.2175 C   0  0  0  0  0  0  0  0  0  0  0  0
   10.0867    6.3901  -12.2666 C   0  0  0  0  0  0  0  0  0  0  0  0
    9.5735    6.0738  -10.8498 C   0  0  0  0  0  0  0  0  0  0  0  0
    9.6539    7.2252   -9.9202 N   0  0  2  0  0  0  0  0  0  0  0  0
   11.0387    7.6936   -9.6342 C   0  0  0  0  0  0  0  0  0  0  0  0
   11.0537    8.9345   -8.7223 C   0  0  0  0  0  0  0  0  0  0  0  0
   10.2038    8.7687   -7.4461 C   0  0  2  0  0  0  0  0  0  0  0  0
   10.8727    7.9880   -6.3428 C   0  0  0  0  0  0  0  0  0  0  0  0
   11.1472    6.6932   -6.4782 N   0  0  0  0  0  0  0  0  0  0  0  0
   11.6856    6.2380   -5.2473 O   0  0  0  0  0  0  0  0  0  0  0  0
   11.7864    7.2950   -4.3629 C   0  0  0  0  0  0  0  0  0  0  0  0
   12.3027    7.3680   -3.0636 C   0  0  0  0  0  0  0  0  0  0  0  0
   12.3316    8.6381   -2.4529 C   0  0  0  0  0  0  0  0  0  0  0  0
   12.8604    8.7707   -1.2186 F   0  0  0  0  0  0  0  0  0  0  0  0
   11.8238    9.7710   -3.1317 C   0  0  0  0  0  0  0  0  0  0  0  0
   11.2866    9.6657   -4.4339 C   0  0  0  0  0  0  0  0  0  0  0  0
   11.2888    8.3995   -5.0578 C   0  0  0  0  0  0  0  0  0  0  0  0
    8.8150    8.2066   -7.7955 C   0  0  0  0  0  0  0  0  0  0  0  0
    8.9055    6.9429   -8.6747 C   0  0  0  0  0  0  0  0  0  0  0  0
    6.6587    3.4637  -13.4673 C   0  0  0  0  0  0  0  0  0  0  0  0
    6.1291    2.2153  -13.8467 C   0  0  0  0  0  0  0  0  0  0  0  0
    3.6446   -2.5158  -17.1436 H   0  0  0  0  0  0  0  0  0  0  0  0
    2.8860   -1.7973  -15.7281 H   0  0  0  0  0  0  0  0  0  0  0  0
    3.6451   -0.7685  -16.9421 H   0  0  0  0  0  0  0  0  0  0  0  0
    5.8709   -1.9282  -16.3827 H   0  0  0  0  0  0  0  0  0  0  0  0
    5.0885   -2.7255  -15.0479 H   0  0  0  0  0  0  0  0  0  0  0  0
    7.1107   -0.4729  -15.6108 H   0  0  0  0  0  0  0  0  0  0  0  0
    8.9254    0.8823  -15.2990 H   0  0  0  0  0  0  0  0  0  0  0  0
    9.8536    3.0425  -14.6294 H   0  0  0  0  0  0  0  0  0  0  0  0
   10.3588    4.3364  -12.8181 H   0  0  0  0  0  0  0  0  0  0  0  0
   10.2622    5.4278  -14.2024 H   0  0  0  0  0  0  0  0  0  0  0  0
   11.1549    6.6081  -12.2514 H   0  0  0  0  0  0  0  0  0  0  0  0
    9.5864    7.2797  -12.6461 H   0  0  0  0  0  0  0  0  0  0  0  0
    8.5243    5.7862  -10.9311 H   0  0  0  0  0  0  0  0  0  0  0  0
   10.0861    5.2092  -10.4277 H   0  0  0  0  0  0  0  0  0  0  0  0
   11.6151    6.8953   -9.1730 H   0  0  0  0  0  0  0  0  0  0  0  0
   11.5517    7.9541  -10.5588 H   0  0  0  0  0  0  0  0  0  0  0  0
   12.0769    9.2036   -8.4603 H   0  0  0  0  0  0  0  0  0  0  0  0
   10.6599    9.7717   -9.2986 H   0  0  0  0  0  0  0  0  0  0  0  0
   10.0493    9.7722   -7.0558 H   0  0  0  0  0  0  0  0  0  0  0  0
   12.6882    6.4935   -2.5653 H   0  0  0  0  0  0  0  0  0  0  0  0
   11.8595   10.7370   -2.6482 H   0  0  0  0  0  0  0  0  0  0  0  0
   10.9031   10.5405   -4.9400 H   0  0  0  0  0  0  0  0  0  0  0  0
    8.2377    8.0058   -6.8918 H   0  0  0  0  0  0  0  0  0  0  0  0
    8.2596    8.9715   -8.3386 H   0  0  0  0  0  0  0  0  0  0  0  0
    7.9191    6.5723   -8.9462 H   0  0  0  0  0  0  0  0  0  0  0  0
    9.3629    6.1100   -8.1422 H   0  0  0  0  0  0  0  0  0  0  0  0
    6.0290    4.1795  -12.9640 H   0  0  0  0  0  0  0  0  0  0  0  0
    5.0910    2.0193  -13.6344 H   0  0  0  0  0  0  0  0  0  0  0  0
    9.1516    7.9798  -10.3690 H   0  0  0  0  0  0  0  0  0  0  0  0
  2  1  1  0
  3  2  1  0
  4  3  2  0
  5  3  1  0
  6  5  1  0
  7  6  1  0
  8  7  2  0
  9  8  1  0
 10  9  1  0
 11 10  1  0
 12 11  1  0
 13 12  1  0
 14 13  1  0
 15 14  1  0
 16 15  1  0
 17 16  1  0
 18 17  1  0
 19 18  2  0
 20 19  1  0
 21 20  1  0
 22 21  2  0
 23 22  1  0
 24 23  1  0
 25 23  2  0
 26 25  1  0
 27 18  1  0
 27 21  1  0
 27 26  2  0
 28 17  1  0
 29 14  1  0
 29 28  1  0
 30  9  2  0
 31  6  2  0
 31 30  1  0
 32  1  1  0
 33  1  1  0
 34  1  1  0
 35  2  1  0
 36  2  1  0
 37  5  1  0
 38  7  1  0
 39  8  1  0
 40 11  1  0
 41 11  1  0
 42 12  1  0
 43 12  1  0
 44 13  1  0
 45 13  1  0
 46 15  1  0
 47 15  1  0
 48 16  1  0
 49 16  1  0
 17 50  1  1
 51 22  1  0
 52 25  1  0
 53 26  1  0
 54 28  1  0
 55 28  1  0
 56 29  1  0
 57 29  1  0
 58 30  1  0
 59 31  1  0
 14 60  1  6
M  CHG  1  14   1
M  END
>  <b_m_subgroup_collapsed>  (200) 
0

>  <r_i_docking_score>  (200) 
-8.6041904315398092

>  <s_m_subgroup_title>  (200) 
glide-dock_SP_D22_pv

>  <s_m_subgroupid>  (200) 
glide-dock_SP_D22_pv

>  <Molecule ChEMBL ID>  (200) 
CHEMBL4755062

>  <Standard Type>  (200) 
Ki

>  <Standard Value>  (200) 
10000.0

>  <label>  (200) 
0

$$$$
CHEMBL6026858
     RDKit          3D

 56 58  0  0  1  0  0  0  0  0999 V2000
    5.6275    2.5727  -12.3473 C   0  0  0  0  0  0  0  0  0  0  0  0
    5.9695    4.0649  -12.5214 C   0  0  0  0  0  0  0  0  0  0  0  0
    5.1949    4.6549  -13.7017 C   0  0  0  0  0  0  0  0  0  0  0  0
    7.4246    4.3604  -12.6225 N   0  0  0  0  0  0  0  0  0  0  0  0
    7.8517    5.4698  -11.7439 C   0  0  0  0  0  0  0  0  0  0  0  0
    8.4038    4.9743  -10.3909 C   0  0  0  0  0  0  0  0  0  0  0  0
    8.7070    6.0941   -9.4594 N   0  0  2  0  0  0  0  0  0  0  0  0
   10.0434    6.6893   -9.7440 C   0  0  0  0  0  0  0  0  0  0  0  0
   10.4262    7.8006   -8.7559 C   0  0  0  0  0  0  0  0  0  0  0  0
   10.3373    7.2918   -7.3075 C   0  0  1  0  0  0  0  0  0  0  0  0
   10.7522    8.3137   -6.2863 C   0  0  0  0  0  0  0  0  0  0  0  0
   10.4922    9.6054   -6.4587 N   0  0  0  0  0  0  0  0  0  0  0  0
   10.9499   10.2936   -5.3008 O   0  0  0  0  0  0  0  0  0  0  0  0
   11.4581    9.3807   -4.3932 C   0  0  0  0  0  0  0  0  0  0  0  0
   11.9914    9.5399   -3.1085 C   0  0  0  0  0  0  0  0  0  0  0  0
   12.3741    8.3783   -2.4107 C   0  0  0  0  0  0  0  0  0  0  0  0
   12.8860    8.4878   -1.1651 F   0  0  0  0  0  0  0  0  0  0  0  0
   12.2167    7.1018   -3.0022 C   0  0  0  0  0  0  0  0  0  0  0  0
   11.6863    6.9716   -4.3067 C   0  0  0  0  0  0  0  0  0  0  0  0
   11.3158    8.1373   -5.0079 C   0  0  0  0  0  0  0  0  0  0  0  0
    8.9202    6.7860   -7.0472 C   0  0  0  0  0  0  0  0  0  0  0  0
    8.5614    5.6739   -8.0382 C   0  0  0  0  0  0  0  0  0  0  0  0
    8.2410    3.7730  -13.5454 C   0  0  0  0  0  0  0  0  0  0  0  0
    7.8154    2.9743  -14.3823 O   0  0  0  0  0  0  0  0  0  0  0  0
    9.7580    4.0773  -13.5534 C   0  0  1  0  0  0  0  0  0  0  0  0
   10.5898    2.9879  -14.2553 C   0  0  0  0  0  0  0  0  0  0  0  0
   10.0070    5.2868  -14.2392 O   0  0  0  0  0  0  0  0  0  0  0  0
    4.5518    2.4328  -12.2455 H   0  0  0  0  0  0  0  0  0  0  0  0
    5.9345    1.9543  -13.1885 H   0  0  0  0  0  0  0  0  0  0  0  0
    6.0837    2.1792  -11.4474 H   0  0  0  0  0  0  0  0  0  0  0  0
    5.5727    4.5396  -11.6224 H   0  0  0  0  0  0  0  0  0  0  0  0
    4.1338    4.4293  -13.6217 H   0  0  0  0  0  0  0  0  0  0  0  0
    5.2854    5.7386  -13.7302 H   0  0  0  0  0  0  0  0  0  0  0  0
    5.5437    4.2451  -14.6468 H   0  0  0  0  0  0  0  0  0  0  0  0
    8.5812    6.1020  -12.2438 H   0  0  0  0  0  0  0  0  0  0  0  0
    7.0130    6.1414  -11.5639 H   0  0  0  0  0  0  0  0  0  0  0  0
    7.6861    4.2975   -9.9386 H   0  0  0  0  0  0  0  0  0  0  0  0
    9.2957    4.3626  -10.5261 H   0  0  0  0  0  0  0  0  0  0  0  0
   10.7980    5.9042   -9.6907 H   0  0  0  0  0  0  0  0  0  0  0  0
   10.0680    7.0849  -10.7597 H   0  0  0  0  0  0  0  0  0  0  0  0
   11.4381    8.1477   -8.9682 H   0  0  0  0  0  0  0  0  0  0  0  0
    9.7645    8.6569   -8.8990 H   0  0  0  0  0  0  0  0  0  0  0  0
   11.0170    6.4427   -7.2127 H   0  0  0  0  0  0  0  0  0  0  0  0
   12.0865   10.5181   -2.6593 H   0  0  0  0  0  0  0  0  0  0  0  0
   12.5027    6.2175   -2.4504 H   0  0  0  0  0  0  0  0  0  0  0  0
   11.5686    5.9938   -4.7517 H   0  0  0  0  0  0  0  0  0  0  0  0
    8.8636    6.3933   -6.0330 H   0  0  0  0  0  0  0  0  0  0  0  0
    8.1992    7.6033   -7.1072 H   0  0  0  0  0  0  0  0  0  0  0  0
    7.5352    5.3715   -7.8468 H   0  0  0  0  0  0  0  0  0  0  0  0
    9.1916    4.8039   -7.8479 H   0  0  0  0  0  0  0  0  0  0  0  0
   10.1225    4.1701  -12.5321 H   0  0  0  0  0  0  0  0  0  0  0  0
   10.3961    1.9978  -13.8426 H   0  0  0  0  0  0  0  0  0  0  0  0
   10.3664    2.9417  -15.3219 H   0  0  0  0  0  0  0  0  0  0  0  0
   11.6573    3.1868  -14.1524 H   0  0  0  0  0  0  0  0  0  0  0  0
    9.5087    5.9810  -13.8367 H   0  0  0  0  0  0  0  0  0  0  0  0
    7.9912    6.8051   -9.6123 H   0  0  0  0  0  0  0  0  0  0  0  0
  2  1  1  0
  3  2  1  0
  4  2  1  0
  5  4  1  0
  6  5  1  0
  7  6  1  0
  8  7  1  0
  9  8  1  0
 10  9  1  0
 11 10  1  0
 12 11  2  0
 13 12  1  0
 14 13  1  0
 15 14  2  0
 16 15  1  0
 17 16  1  0
 18 16  2  0
 19 18  1  0
 20 11  1  0
 20 14  1  0
 20 19  2  0
 21 10  1  0
 22  7  1  0
 22 21  1  0
 23  4  1  0
 24 23  2  0
 25 23  1  0
 26 25  1  0
 27 25  1  0
 28  1  1  0
 29  1  1  0
 30  1  1  0
 31  2  1  0
 32  3  1  0
 33  3  1  0
 34  3  1  0
 35  5  1  0
 36  5  1  0
 37  6  1  0
 38  6  1  0
 39  8  1  0
 40  8  1  0
 41  9  1  0
 42  9  1  0
 10 43  1  6
 44 15  1  0
 45 18  1  0
 46 19  1  0
 47 21  1  0
 48 21  1  0
 49 22  1  0
 50 22  1  0
 25 51  1  1
 52 26  1  0
 53 26  1  0
 54 26  1  0
 55 27  1  0
  7 56  1  6
M  CHG  1   7   1
M  END
>  <b_m_subgroup_collapsed>  (201) 
0

>  <r_i_docking_score>  (201) 
-8.6028349153515702

>  <s_m_subgroup_title>  (201) 
glide-dock_SP_D22_pv

>  <s_m_subgroupid>  (201) 
glide-dock_SP_D22_pv

>  <Molecule ChEMBL ID>  (201) 
CHEMBL6026858

>  <Standard Type>  (201) 
Ki

>  <Standard Value>  (201) 
74.0

>  <label>  (201) 
1

$$$$
CHEMBL5830481
     RDKit          3D

 59 63  0  0  1  0  0  0  0  0999 V2000
   12.1591    4.2125  -16.4825 C   0  0  0  0  0  0  0  0  0  0  0  0
   12.1476    5.2729  -15.4856 N   0  0  0  0  0  0  0  0  0  0  0  0
   11.4727    5.3184  -14.3225 C   0  0  0  0  0  0  0  0  0  0  0  0
   10.4201    4.0054  -13.7978 S   0  0  0  0  0  0  0  0  0  0  0  0
    8.8086    4.8612  -13.8148 C   0  0  0  0  0  0  0  0  0  0  0  0
    8.6061    5.8503  -12.6505 C   0  0  0  0  0  0  0  0  0  0  0  0
    8.7415    5.1944  -11.2676 C   0  0  0  0  0  0  0  0  0  0  0  0
    8.6696    6.1723  -10.1590 N   0  0  1  0  0  0  0  0  0  0  0  0
    8.6216    5.5263   -8.8408 C   0  0  0  0  0  0  0  0  0  0  0  0
    8.9430    6.6342   -7.8639 C   0  0  0  0  0  0  0  0  0  0  0  0
    9.8112    7.6142   -8.6291 C   0  0  1  0  0  0  0  0  0  0  0  0
    9.6473    9.0941   -8.3644 C   0  0  0  0  0  0  0  0  0  0  0  0
   10.9332    8.4221   -7.9829 C   0  0  1  0  0  0  0  0  0  0  0  0
   11.2860    8.2193   -6.5405 C   0  0  0  0  0  0  0  0  0  0  0  0
   11.4765    6.9089   -6.0643 C   0  0  0  0  0  0  0  0  0  0  0  0
   11.6860    6.6696   -4.7043 C   0  0  0  0  0  0  0  0  0  0  0  0
   11.8108    7.7335   -3.8033 C   0  0  0  0  0  0  0  0  0  0  0  0
   12.0360    7.3922   -2.3485 C   0  0  0  0  0  0  0  0  0  0  0  0
   12.4860    8.4328   -1.6475 F   0  0  0  0  0  0  0  0  0  0  0  0
   10.8860    6.9723   -1.8469 F   0  0  0  0  0  0  0  0  0  0  0  0
   12.8860    6.3760   -2.2469 F   0  0  0  0  0  0  0  0  0  0  0  0
   11.6860    9.0595   -4.2710 C   0  0  0  0  0  0  0  0  0  0  0  0
   11.4132    9.2994   -5.6356 C   0  0  0  0  0  0  0  0  0  0  0  0
   11.2703   10.5723   -6.0729 F   0  0  0  0  0  0  0  0  0  0  0  0
    9.7984    7.1279  -10.0697 C   0  0  0  0  0  0  0  0  0  0  0  0
   11.6860    6.4318  -13.6216 N   0  0  0  0  0  0  0  0  0  0  0  0
   12.5070    7.2038  -14.4068 N   0  0  0  0  0  0  0  0  0  0  0  0
   12.7766    6.4702  -15.4951 C   0  0  0  0  0  0  0  0  0  0  0  0
   13.6683    6.9347  -16.5547 C   0  0  0  0  0  0  0  0  0  0  0  0
   14.7093    6.1205  -17.0469 C   0  0  0  0  0  0  0  0  0  0  0  0
   15.4934    6.6655  -18.0777 C   0  0  0  0  0  0  0  0  0  0  0  0
   15.2642    7.8983  -18.5677 N   0  0  0  0  0  0  0  0  0  0  0  0
   14.2555    8.5830  -18.0291 C   0  0  0  0  0  0  0  0  0  0  0  0
   13.4551    8.1723  -17.0469 N   0  0  0  0  0  0  0  0  0  0  0  0
   11.1848    3.7262  -16.5317 H   0  0  0  0  0  0  0  0  0  0  0  0
   12.3801    4.6173  -17.4701 H   0  0  0  0  0  0  0  0  0  0  0  0
   12.9135    3.4702  -16.2205 H   0  0  0  0  0  0  0  0  0  0  0  0
    8.6952    5.3723  -14.7708 H   0  0  0  0  0  0  0  0  0  0  0  0
    8.0292    4.0994  -13.7794 H   0  0  0  0  0  0  0  0  0  0  0  0
    9.3034    6.6781  -12.7394 H   0  0  0  0  0  0  0  0  0  0  0  0
    7.6153    6.2989  -12.7353 H   0  0  0  0  0  0  0  0  0  0  0  0
    7.9422    4.4618  -11.1433 H   0  0  0  0  0  0  0  0  0  0  0  0
    9.6806    4.6464  -11.1840 H   0  0  0  0  0  0  0  0  0  0  0  0
    7.6860    5.0375   -8.6154 H   0  0  0  0  0  0  0  0  0  0  0  0
    9.4009    4.7636   -8.7837 H   0  0  0  0  0  0  0  0  0  0  0  0
    8.0860    7.1814   -7.5168 H   0  0  0  0  0  0  0  0  0  0  0  0
    9.3640    6.2030   -6.9679 H   0  0  0  0  0  0  0  0  0  0  0  0
    9.6595    9.7566   -9.2275 H   0  0  0  0  0  0  0  0  0  0  0  0
    8.9577    9.3723   -7.5709 H   0  0  0  0  0  0  0  0  0  0  0  0
   11.8171    8.6423   -8.5792 H   0  0  0  0  0  0  0  0  0  0  0  0
   11.4550    6.0676   -6.7414 H   0  0  0  0  0  0  0  0  0  0  0  0
   11.7926    5.6622   -4.3472 H   0  0  0  0  0  0  0  0  0  0  0  0
   11.7726    9.8908   -3.5865 H   0  0  0  0  0  0  0  0  0  0  0  0
   10.7454    6.6299  -10.2835 H   0  0  0  0  0  0  0  0  0  0  0  0
    9.6757    7.9546  -10.7703 H   0  0  0  0  0  0  0  0  0  0  0  0
   14.9005    5.1329  -16.6522 H   0  0  0  0  0  0  0  0  0  0  0  0
   16.3119    6.1088  -18.5096 H   0  0  0  0  0  0  0  0  0  0  0  0
   14.0860    9.5766  -18.4158 H   0  0  0  0  0  0  0  0  0  0  0  0
    7.8145    6.7268  -10.2469 H   0  0  0  0  0  0  0  0  0  0  0  0
  2  1  1  0
  3  2  1  0
  4  3  1  0
  5  4  1  0
  6  5  1  0
  7  6  1  0
  8  7  1  0
  9  8  1  0
 10  9  1  0
 11 10  1  1
 12 11  1  0
 13 11  1  0
 13 12  1  0
 14 13  1  0
 15 14  1  0
 16 15  2  0
 17 16  1  0
 18 17  1  0
 19 18  1  0
 20 18  1  0
 21 18  1  0
 22 17  2  0
 23 14  2  0
 23 22  1  0
 24 23  1  0
 25  8  1  0
 25 11  1  0
 26  3  2  0
 27 26  1  0
 28  2  1  0
 28 27  2  0
 29 28  1  0
 30 29  1  0
 31 30  2  0
 32 31  1  0
 33 32  2  0
 34 29  2  0
 34 33  1  0
 35  1  1  0
 36  1  1  0
 37  1  1  0
 38  5  1  0
 39  5  1  0
 40  6  1  0
 41  6  1  0
 42  7  1  0
 43  7  1  0
 44  9  1  0
 45  9  1  0
 46 10  1  0
 47 10  1  0
 48 12  1  0
 49 12  1  0
 13 50  1  6
 51 15  1  0
 52 16  1  0
 53 22  1  0
 54 25  1  0
 55 25  1  0
 56 30  1  0
 57 31  1  0
 58 33  1  0
  8 59  1  6
M  CHG  1   8   1
M  END
>  <b_m_subgroup_collapsed>  (202) 
0

>  <r_i_docking_score>  (202) 
-8.60281319872308

>  <s_m_subgroup_title>  (202) 
glide-dock_SP_D22_pv

>  <s_m_subgroupid>  (202) 
glide-dock_SP_D22_pv

>  <Molecule ChEMBL ID>  (202) 
CHEMBL5830481

>  <Standard Type>  (202) 
Ki

>  <Standard Value>  (202) 
81.3

>  <label>  (202) 
1

$$$$
CHEMBL2111528
     RDKit          3D

 57 60  0  0  1  0  0  0  0  0999 V2000
    5.2353    0.1980  -13.7841 C   0  0  0  0  0  0  0  0  0  0  0  0
    6.0721    1.3411  -13.6750 O   0  0  0  0  0  0  0  0  0  0  0  0
    7.2319    1.3933  -14.4199 C   0  0  0  0  0  0  0  0  0  0  0  0
    7.6691    0.2899  -15.1985 C   0  0  0  0  0  0  0  0  0  0  0  0
    8.8715    0.3407  -15.9227 C   0  0  0  0  0  0  0  0  0  0  0  0
    9.6587    1.4993  -15.8864 C   0  0  0  0  0  0  0  0  0  0  0  0
   11.2860    1.5744  -16.8675 Br  0  0  0  0  0  0  0  0  0  0  0  0
    9.2388    2.6044  -15.1283 C   0  0  0  0  0  0  0  0  0  0  0  0
    8.0307    2.5743  -14.3895 C   0  0  0  0  0  0  0  0  0  0  0  0
    7.6830    3.7835  -13.6186 C   0  0  0  0  0  0  0  0  0  0  0  0
    8.5576    4.7502  -13.3079 N   0  0  0  0  0  0  0  0  0  0  0  0
    7.9873    5.8271  -12.6282 C   0  0  0  0  0  0  0  0  0  0  0  0
    8.8428    6.9921  -12.2375 C   0  0  0  0  0  0  0  0  0  0  0  0
    8.8860    7.1088  -10.7715 N   0  0  0  0  0  0  0  0  0  0  0  0
    9.8191    8.1216  -10.2406 C   0  0  0  0  0  0  0  0  0  0  0  0
   11.0126    7.4544   -9.5315 C   0  0  1  0  0  0  0  0  0  0  0  0
   12.0859    8.4617   -9.1051 C   0  0  0  0  0  0  0  0  0  0  0  0
   11.7977    8.7267   -7.6325 C   0  0  0  0  0  0  0  0  0  0  0  0
   11.2860    7.4440   -7.1085 N   0  0  1  0  0  0  0  0  0  0  0  0
   10.4641    7.5578   -5.8856 C   0  0  0  0  0  0  0  0  0  0  0  0
   11.2860    7.9315   -4.6676 C   0  0  0  0  0  0  0  0  0  0  0  0
   11.8280    6.9119   -3.8601 C   0  0  0  0  0  0  0  0  0  0  0  0
   12.4620    7.2306   -2.6470 C   0  0  0  0  0  0  0  0  0  0  0  0
   12.5455    8.5721   -2.2314 C   0  0  0  0  0  0  0  0  0  0  0  0
   12.0293    9.5942   -3.0467 C   0  0  0  0  0  0  0  0  0  0  0  0
   11.4051    9.2800   -4.2684 C   0  0  0  0  0  0  0  0  0  0  0  0
   10.5989    6.7514   -8.2211 C   0  0  0  0  0  0  0  0  0  0  0  0
    6.6458    5.6680  -12.3956 C   0  0  0  0  0  0  0  0  0  0  0  0
    6.0507    4.1685  -13.0485 S   0  0  0  0  0  0  0  0  0  0  0  0
    4.3593    0.3365  -13.1522 H   0  0  0  0  0  0  0  0  0  0  0  0
    4.8829    0.0566  -14.8068 H   0  0  0  0  0  0  0  0  0  0  0  0
    5.7436   -0.7062  -13.4464 H   0  0  0  0  0  0  0  0  0  0  0  0
    7.1043   -0.6277  -15.2548 H   0  0  0  0  0  0  0  0  0  0  0  0
    9.1882   -0.5133  -16.5030 H   0  0  0  0  0  0  0  0  0  0  0  0
    9.8641    3.4851  -15.1235 H   0  0  0  0  0  0  0  0  0  0  0  0
    9.8564    6.8746  -12.6249 H   0  0  0  0  0  0  0  0  0  0  0  0
    8.4411    7.9193  -12.6467 H   0  0  0  0  0  0  0  0  0  0  0  0
    7.9299    7.3722  -10.4925 H   0  0  0  0  0  0  0  0  0  0  0  0
   10.1642    8.7727  -11.0457 H   0  0  0  0  0  0  0  0  0  0  0  0
    9.2738    8.7613   -9.5442 H   0  0  0  0  0  0  0  0  0  0  0  0
   11.4606    6.7389  -10.2207 H   0  0  0  0  0  0  0  0  0  0  0  0
   13.0749    8.0118   -9.2048 H   0  0  0  0  0  0  0  0  0  0  0  0
   12.0859    9.3723   -9.7048 H   0  0  0  0  0  0  0  0  0  0  0  0
   12.6797    9.0701   -7.0899 H   0  0  0  0  0  0  0  0  0  0  0  0
   11.0303    9.4976   -7.5460 H   0  0  0  0  0  0  0  0  0  0  0  0
    9.6583    8.2788   -6.0345 H   0  0  0  0  0  0  0  0  0  0  0  0
    9.9801    6.5992   -5.6865 H   0  0  0  0  0  0  0  0  0  0  0  0
   11.7292    5.8750   -4.1482 H   0  0  0  0  0  0  0  0  0  0  0  0
   12.8692    6.4437   -2.0275 H   0  0  0  0  0  0  0  0  0  0  0  0
   13.0160    8.8226   -1.2917 H   0  0  0  0  0  0  0  0  0  0  0  0
   12.0860   10.6192   -2.7120 H   0  0  0  0  0  0  0  0  0  0  0  0
   10.9769   10.0717   -4.8662 H   0  0  0  0  0  0  0  0  0  0  0  0
    9.5159    6.7825   -8.0829 H   0  0  0  0  0  0  0  0  0  0  0  0
   10.8858    5.6992   -8.2228 H   0  0  0  0  0  0  0  0  0  0  0  0
    5.9704    6.3390  -11.8803 H   0  0  0  0  0  0  0  0  0  0  0  0
   12.0893    6.8773   -6.8760 H   0  0  0  0  0  0  0  0  0  0  0  0
    9.0795    6.2006  -10.3774 H   0  0  0  0  0  0  0  0  0  0  0  0
  2  1  1  0
  3  2  1  0
  4  3  1  0
  5  4  2  0
  6  5  1  0
  7  6  1  0
  8  6  2  0
  9  3  2  0
  9  8  1  0
 10  9  1  0
 11 10  2  0
 12 11  1  0
 13 12  1  0
 14 13  1  0
 15 14  1  0
 16 15  1  0
 17 16  1  0
 18 17  1  0
 19 18  1  0
 20 19  1  0
 21 20  1  0
 22 21  2  0
 23 22  1  0
 24 23  2  0
 25 24  1  0
 26 21  1  0
 26 25  2  0
 27 16  1  0
 27 19  1  0
 28 12  2  0
 29 10  1  0
 29 28  1  0
 30  1  1  0
 31  1  1  0
 32  1  1  0
 33  4  1  0
 34  5  1  0
 35  8  1  0
 36 13  1  0
 37 13  1  0
 38 14  1  0
 39 15  1  0
 40 15  1  0
 16 41  1  6
 42 17  1  0
 43 17  1  0
 44 18  1  0
 45 18  1  0
 46 20  1  0
 47 20  1  0
 48 22  1  0
 49 23  1  0
 50 24  1  0
 51 25  1  0
 52 26  1  0
 53 27  1  0
 54 27  1  0
 55 28  1  0
 19 56  1  1
 57 14  1  0
M  CHG  2  14   1  19   1
M  END
>  <b_m_subgroup_collapsed>  (203) 
0

>  <r_i_docking_score>  (203) 
-8.6002558402896803

>  <s_m_subgroup_title>  (203) 
glide-dock_SP_D22_pv

>  <s_m_subgroupid>  (203) 
glide-dock_SP_D22_pv

>  <Molecule ChEMBL ID>  (203) 
CHEMBL2111528

>  <Standard Type>  (203) 
Ki

>  <Standard Value>  (203) 
92.0

>  <label>  (203) 
1

$$$$
CHEMBL127807
     RDKit          3D

 67 71  0  0  1  0  0  0  0  0999 V2000
    5.1727    0.9021  -19.7096 C   0  0  0  0  0  0  0  0  0  0  0  0
    5.9998    0.9575  -18.5561 O   0  0  0  0  0  0  0  0  0  0  0  0
    5.6447    0.1960  -17.4577 C   0  0  0  0  0  0  0  0  0  0  0  0
    4.4890   -0.6282  -17.4226 C   0  0  0  0  0  0  0  0  0  0  0  0
    4.1639   -1.3573  -16.2635 C   0  0  0  0  0  0  0  0  0  0  0  0
    4.9867   -1.2701  -15.1269 C   0  0  0  0  0  0  0  0  0  0  0  0
    6.1419   -0.4722  -15.1547 C   0  0  0  0  0  0  0  0  0  0  0  0
    6.4875    0.2491  -16.3171 C   0  0  0  0  0  0  0  0  0  0  0  0
    7.6456    1.0411  -16.3407 N   0  0  0  0  0  0  0  0  0  0  0  0
    7.4988    2.4653  -16.1105 C   0  0  0  0  0  0  0  0  0  0  0  0
    8.1042    2.8895  -14.7579 C   0  0  0  0  0  0  0  0  0  0  0  0
    9.5009    2.4028  -14.6554 N   0  0  0  0  0  0  0  0  0  0  0  0
   10.2176    2.8664  -13.4482 C   0  0  0  0  0  0  0  0  0  0  0  0
   10.4987    4.3542  -13.3550 C   0  0  0  0  0  0  0  0  0  0  0  0
   11.6721    4.8684  -13.9416 C   0  0  0  0  0  0  0  0  0  0  0  0
   12.0861    6.1787  -13.6480 C   0  0  0  0  0  0  0  0  0  0  0  0
   11.3348    6.9724  -12.7635 C   0  0  0  0  0  0  0  0  0  0  0  0
   10.1105    6.5055  -12.2455 C   0  0  0  0  0  0  0  0  0  0  0  0
    9.2689    7.4152  -11.3598 C   0  0  0  0  0  0  0  0  0  0  0  0
    9.6856    7.4172   -9.9601 N   0  0  0  0  0  0  0  0  0  0  0  0
   10.5647    8.2618   -9.3937 C   0  0  0  0  0  0  0  0  0  0  0  0
   11.1484    9.1556  -10.0002 O   0  0  0  0  0  0  0  0  0  0  0  0
   10.7977    8.0624   -7.9265 C   0  0  0  0  0  0  0  0  0  0  0  0
   10.9574    6.7578   -7.4250 C   0  0  0  0  0  0  0  0  0  0  0  0
   11.2857    6.5664   -6.0764 C   0  0  0  0  0  0  0  0  0  0  0  0
   11.3976    7.6375   -5.1911 C   0  0  0  0  0  0  0  0  0  0  0  0
   11.7421    7.3886   -3.8480 C   0  0  0  0  0  0  0  0  0  0  0  0
   11.9037    8.4672   -2.9646 C   0  0  0  0  0  0  0  0  0  0  0  0
   11.6860    9.7739   -3.4290 C   0  0  0  0  0  0  0  0  0  0  0  0
   11.3277   10.0228   -4.7721 C   0  0  0  0  0  0  0  0  0  0  0  0
   11.2141    8.9500   -5.6749 C   0  0  0  0  0  0  0  0  0  0  0  0
   10.9481    9.1623   -7.0474 C   0  0  0  0  0  0  0  0  0  0  0  0
    9.6949    5.1874  -12.5400 C   0  0  0  0  0  0  0  0  0  0  0  0
    9.5635    0.9194  -14.7820 C   0  0  0  0  0  0  0  0  0  0  0  0
    8.9516    0.4432  -16.1104 C   0  0  0  0  0  0  0  0  0  0  0  0
    5.5768    1.5640  -20.4756 H   0  0  0  0  0  0  0  0  0  0  0  0
    5.1375   -0.1062  -20.1266 H   0  0  0  0  0  0  0  0  0  0  0  0
    4.1562    1.2318  -19.4908 H   0  0  0  0  0  0  0  0  0  0  0  0
    3.8252   -0.7113  -18.2708 H   0  0  0  0  0  0  0  0  0  0  0  0
    3.2831   -1.9838  -16.2452 H   0  0  0  0  0  0  0  0  0  0  0  0
    4.7345   -1.8275  -14.2389 H   0  0  0  0  0  0  0  0  0  0  0  0
    6.7716   -0.4246  -14.2790 H   0  0  0  0  0  0  0  0  0  0  0  0
    8.0018    2.9721  -16.9331 H   0  0  0  0  0  0  0  0  0  0  0  0
    6.4452    2.7322  -16.1518 H   0  0  0  0  0  0  0  0  0  0  0  0
    8.0749    3.9742  -14.6504 H   0  0  0  0  0  0  0  0  0  0  0  0
    7.5116    2.4793  -13.9381 H   0  0  0  0  0  0  0  0  0  0  0  0
    9.6857    2.5729  -12.5490 H   0  0  0  0  0  0  0  0  0  0  0  0
   11.1827    2.3578  -13.4468 H   0  0  0  0  0  0  0  0  0  0  0  0
   12.2986    4.2446  -14.5631 H   0  0  0  0  0  0  0  0  0  0  0  0
   13.0109    6.5575  -14.0573 H   0  0  0  0  0  0  0  0  0  0  0  0
   11.7108    7.9411  -12.4805 H   0  0  0  0  0  0  0  0  0  0  0  0
    9.2810    8.4303  -11.7607 H   0  0  0  0  0  0  0  0  0  0  0  0
    8.2293    7.0901  -11.4185 H   0  0  0  0  0  0  0  0  0  0  0  0
    9.2027    6.7717   -9.3520 H   0  0  0  0  0  0  0  0  0  0  0  0
   10.8869    5.8969   -8.0747 H   0  0  0  0  0  0  0  0  0  0  0  0
   11.4923    5.5782   -5.7139 H   0  0  0  0  0  0  0  0  0  0  0  0
   11.8979    6.3784   -3.4956 H   0  0  0  0  0  0  0  0  0  0  0  0
   12.1733    8.2930   -1.9327 H   0  0  0  0  0  0  0  0  0  0  0  0
   11.7988   10.5991   -2.7423 H   0  0  0  0  0  0  0  0  0  0  0  0
   11.1778   11.0381   -5.1115 H   0  0  0  0  0  0  0  0  0  0  0  0
   10.8841   10.1720   -7.4229 H   0  0  0  0  0  0  0  0  0  0  0  0
    8.7941    4.7988  -12.0851 H   0  0  0  0  0  0  0  0  0  0  0  0
   10.5977    0.5721  -14.7227 H   0  0  0  0  0  0  0  0  0  0  0  0
    9.0322    0.4621  -13.9459 H   0  0  0  0  0  0  0  0  0  0  0  0
    8.8768   -0.6393  -16.1258 H   0  0  0  0  0  0  0  0  0  0  0  0
    9.6025    0.7170  -16.9401 H   0  0  0  0  0  0  0  0  0  0  0  0
    9.9969    2.7795  -15.4496 H   0  0  0  0  0  0  0  0  0  0  0  0
  2  1  1  0
  3  2  1  0
  4  3  2  0
  5  4  1  0
  6  5  2  0
  7  6  1  0
  8  3  1  0
  8  7  2  0
  9  8  1  0
 10  9  1  0
 11 10  1  0
 12 11  1  0
 13 12  1  0
 14 13  1  0
 15 14  2  0
 16 15  1  0
 17 16  2  0
 18 17  1  0
 19 18  1  0
 20 19  1  0
 21 20  1  0
 22 21  2  0
 23 21  1  0
 24 23  1  0
 25 24  2  0
 26 25  1  0
 27 26  2  0
 28 27  1  0
 29 28  2  0
 30 29  1  0
 31 26  1  0
 31 30  2  0
 32 23  2  0
 32 31  1  0
 33 14  1  0
 33 18  2  0
 34 12  1  0
 35  9  1  0
 35 34  1  0
 36  1  1  0
 37  1  1  0
 38  1  1  0
 39  4  1  0
 40  5  1  0
 41  6  1  0
 42  7  1  0
 43 10  1  0
 44 10  1  0
 45 11  1  0
 46 11  1  0
 47 13  1  0
 48 13  1  0
 49 15  1  0
 50 16  1  0
 51 17  1  0
 52 19  1  0
 53 19  1  0
 54 20  1  0
 55 24  1  0
 56 25  1  0
 57 27  1  0
 58 28  1  0
 59 29  1  0
 60 30  1  0
 61 32  1  0
 62 33  1  0
 63 34  1  0
 64 34  1  0
 65 35  1  0
 66 35  1  0
 67 12  1  0
M  CHG  1  12   1
M  END
>  <b_m_subgroup_collapsed>  (204) 
0

>  <r_i_docking_score>  (204) 
-8.5950217838264305

>  <s_m_subgroup_title>  (204) 
glide-dock_SP_D22_pv

>  <s_m_subgroupid>  (204) 
glide-dock_SP_D22_pv

>  <Molecule ChEMBL ID>  (204) 
CHEMBL127807

>  <Standard Type>  (204) 
Ki

>  <Standard Value>  (204) 
45.0

>  <label>  (204) 
1

$$$$
CHEMBL4521525
     RDKit          3D

 63 66  0  0  1  0  0  0  0  0999 V2000
   11.0043    7.3726  -11.4609 O   0  0  0  0  0  0  0  0  0  0  0  0
   10.1081    7.2283  -10.6276 C   0  0  0  0  0  0  0  0  0  0  0  0
    8.8863    6.7683  -10.9417 N   0  0  0  0  0  0  0  0  0  0  0  0
    8.5167    6.1973  -12.2308 C   0  0  0  0  0  0  0  0  0  0  0  0
    9.0785    4.7706  -12.3904 C   0  0  0  0  0  0  0  0  0  0  0  0
    8.9652    4.2064  -13.8165 C   0  0  0  0  0  0  0  0  0  0  0  0
    9.7242    2.8691  -13.9565 C   0  0  0  0  0  0  0  0  0  0  0  0
    9.6562    2.2440  -15.3055 N   0  0  0  0  0  0  0  0  0  0  0  0
   10.2504    3.0751  -16.3924 C   0  0  0  0  0  0  0  0  0  0  0  0
   10.0899    2.3895  -17.7610 C   0  0  0  0  0  0  0  0  0  0  0  0
   10.6366    1.0368  -17.7282 N   0  0  0  0  0  0  0  0  0  0  0  0
   11.8384    0.7086  -18.3990 C   0  0  0  0  0  0  0  0  0  0  0  0
   12.7930    1.7004  -18.7341 C   0  0  0  0  0  0  0  0  0  0  0  0
   13.9615    1.3700  -19.4492 C   0  0  0  0  0  0  0  0  0  0  0  0
   14.2114    0.0384  -19.8402 C   0  0  0  0  0  0  0  0  0  0  0  0
   15.4783   -0.3180  -20.6083 C   0  0  0  0  0  0  0  0  0  0  0  0
   16.4477   -0.6246  -19.7463 F   0  0  0  0  0  0  0  0  0  0  0  0
   15.2712   -1.3589  -21.4179 F   0  0  0  0  0  0  0  0  0  0  0  0
   15.8850    0.7107  -21.3526 F   0  0  0  0  0  0  0  0  0  0  0  0
   13.2812   -0.9604  -19.4869 C   0  0  0  0  0  0  0  0  0  0  0  0
   12.1051   -0.6280  -18.7810 C   0  0  0  0  0  0  0  0  0  0  0  0
   10.1138    0.1771  -16.6698 C   0  0  0  0  0  0  0  0  0  0  0  0
   10.2321    0.8684  -15.2967 C   0  0  0  0  0  0  0  0  0  0  0  0
   10.3561    7.5487   -9.1801 C   0  0  0  0  0  0  0  0  0  0  0  0
   11.3538    8.4844   -8.8284 C   0  0  0  0  0  0  0  0  0  0  0  0
   11.6942    8.6895   -7.4771 C   0  0  0  0  0  0  0  0  0  0  0  0
   11.0504    7.9583   -6.4567 C   0  0  0  0  0  0  0  0  0  0  0  0
   11.4651    8.1041   -5.0606 C   0  0  0  0  0  0  0  0  0  0  0  0
   11.7175    9.3868   -4.4832 C   0  0  0  0  0  0  0  0  0  0  0  0
   12.0849    9.3272   -3.1647 C   0  0  0  0  0  0  0  0  0  0  0  0
   12.0967    7.6885   -2.5831 S   0  0  0  0  0  0  0  0  0  0  0  0
   11.6815    7.0890   -4.1613 C   0  0  0  0  0  0  0  0  0  0  0  0
   10.0332    7.0465   -6.8032 C   0  0  0  0  0  0  0  0  0  0  0  0
    9.6859    6.8434   -8.1528 C   0  0  0  0  0  0  0  0  0  0  0  0
    8.1479    6.8493  -10.2475 H   0  0  0  0  0  0  0  0  0  0  0  0
    7.4281    6.1869  -12.3083 H   0  0  0  0  0  0  0  0  0  0  0  0
    8.8782    6.8440  -13.0287 H   0  0  0  0  0  0  0  0  0  0  0  0
   10.1314    4.7703  -12.1112 H   0  0  0  0  0  0  0  0  0  0  0  0
    8.5809    4.1062  -11.6833 H   0  0  0  0  0  0  0  0  0  0  0  0
    7.9163    4.0785  -14.0844 H   0  0  0  0  0  0  0  0  0  0  0  0
    9.3749    4.9500  -14.4999 H   0  0  0  0  0  0  0  0  0  0  0  0
   10.7714    2.9976  -13.6748 H   0  0  0  0  0  0  0  0  0  0  0  0
    9.2868    2.1722  -13.2415 H   0  0  0  0  0  0  0  0  0  0  0  0
    9.7670    4.0495  -16.4455 H   0  0  0  0  0  0  0  0  0  0  0  0
   11.3078    3.2515  -16.1779 H   0  0  0  0  0  0  0  0  0  0  0  0
    9.0304    2.3133  -18.0066 H   0  0  0  0  0  0  0  0  0  0  0  0
   10.5272    2.9929  -18.5565 H   0  0  0  0  0  0  0  0  0  0  0  0
   12.6527    2.7303  -18.4447 H   0  0  0  0  0  0  0  0  0  0  0  0
   14.6704    2.1480  -19.6923 H   0  0  0  0  0  0  0  0  0  0  0  0
   13.4644   -1.9867  -19.7707 H   0  0  0  0  0  0  0  0  0  0  0  0
   11.3943   -1.4117  -18.5657 H   0  0  0  0  0  0  0  0  0  0  0  0
    9.0658   -0.0389  -16.8871 H   0  0  0  0  0  0  0  0  0  0  0  0
   10.6196   -0.7860  -16.6309 H   0  0  0  0  0  0  0  0  0  0  0  0
   11.2847    0.9275  -15.0125 H   0  0  0  0  0  0  0  0  0  0  0  0
    9.7338    0.2602  -14.5397 H   0  0  0  0  0  0  0  0  0  0  0  0
   11.8940    9.0252   -9.5941 H   0  0  0  0  0  0  0  0  0  0  0  0
   12.4935    9.3739   -7.2291 H   0  0  0  0  0  0  0  0  0  0  0  0
   11.6193   10.3021   -5.0496 H   0  0  0  0  0  0  0  0  0  0  0  0
   12.3295   10.1415   -2.4953 H   0  0  0  0  0  0  0  0  0  0  0  0
   11.5756    6.0258   -4.3212 H   0  0  0  0  0  0  0  0  0  0  0  0
    9.5234    6.4833   -6.0334 H   0  0  0  0  0  0  0  0  0  0  0  0
    8.9239    6.1127   -8.3876 H   0  0  0  0  0  0  0  0  0  0  0  0
    8.6764    2.1384  -15.5287 H   0  0  0  0  0  0  0  0  0  0  0  0
  2  1  2  0
  3  2  1  0
  4  3  1  0
  5  4  1  0
  6  5  1  0
  7  6  1  0
  8  7  1  0
  9  8  1  0
 10  9  1  0
 11 10  1  0
 12 11  1  0
 13 12  1  0
 14 13  2  0
 15 14  1  0
 16 15  1  0
 17 16  1  0
 18 16  1  0
 19 16  1  0
 20 15  2  0
 21 12  2  0
 21 20  1  0
 22 11  1  0
 23  8  1  0
 23 22  1  0
 24  2  1  0
 25 24  1  0
 26 25  2  0
 27 26  1  0
 28 27  1  0
 29 28  1  0
 30 29  2  0
 31 30  1  0
 32 28  2  0
 32 31  1  0
 33 27  2  0
 34 24  2  0
 34 33  1  0
 35  3  1  0
 36  4  1  0
 37  4  1  0
 38  5  1  0
 39  5  1  0
 40  6  1  0
 41  6  1  0
 42  7  1  0
 43  7  1  0
 44  9  1  0
 45  9  1  0
 46 10  1  0
 47 10  1  0
 48 13  1  0
 49 14  1  0
 50 20  1  0
 51 21  1  0
 52 22  1  0
 53 22  1  0
 54 23  1  0
 55 23  1  0
 56 25  1  0
 57 26  1  0
 58 29  1  0
 59 30  1  0
 60 32  1  0
 61 33  1  0
 62 34  1  0
 63  8  1  0
M  CHG  1   8   1
M  END
>  <b_m_subgroup_collapsed>  (205) 
0

>  <r_i_docking_score>  (205) 
-8.5923181550622605

>  <s_m_subgroup_title>  (205) 
glide-dock_SP_D22_pv

>  <s_m_subgroupid>  (205) 
glide-dock_SP_D22_pv

>  <Molecule ChEMBL ID>  (205) 
CHEMBL4521525

>  <Standard Type>  (205) 
Ki

>  <Standard Value>  (205) 
30000.0

>  <label>  (205) 
0

$$$$
CHEMBL2207634
     RDKit          3D

 61 64  0  0  1  0  0  0  0  0999 V2000
    6.9829   -0.2466  -13.5511 C   0  0  0  0  0  0  0  0  0  0  0  0
    5.6614    0.3851  -14.0109 C   0  0  0  0  0  0  0  0  0  0  0  0
    5.1552    1.5199  -13.1035 C   0  0  0  0  0  0  0  0  0  0  0  0
    6.0382    2.6975  -13.0477 C   0  0  0  0  0  0  0  0  0  0  0  0
    6.8410    3.6111  -12.9347 C   0  0  0  0  0  0  0  0  0  0  0  0
    7.8922    4.5912  -12.7134 C   0  0  0  0  0  0  0  0  0  0  0  0
    7.7647    5.6556  -11.7777 C   0  0  0  0  0  0  0  0  0  0  0  0
    9.0095    6.3820  -11.7915 C   0  0  0  0  0  0  0  0  0  0  0  0
    9.2750    7.6052  -10.9174 C   0  0  0  0  0  0  0  0  0  0  0  0
    9.2860    7.2804   -9.4685 N   0  0  0  0  0  0  0  0  0  0  0  0
   10.4420    6.4327   -9.0600 C   0  0  0  0  0  0  0  0  0  0  0  0
   10.4093    6.0793   -7.5562 C   0  0  0  0  0  0  0  0  0  0  0  0
   10.1772    7.2714   -6.7562 N   0  0  0  0  0  0  0  0  0  0  0  0
   10.9607    7.5803   -5.6225 C   0  0  0  0  0  0  0  0  0  0  0  0
   11.2693    6.5874   -4.6675 C   0  0  0  0  0  0  0  0  0  0  0  0
   11.9724    6.8831   -3.4879 C   0  0  0  0  0  0  0  0  0  0  0  0
   12.3984    8.1944   -3.2502 C   0  0  0  0  0  0  0  0  0  0  0  0
   12.1454    9.1865   -4.2096 C   0  0  0  0  0  0  0  0  0  0  0  0
   11.4438    8.8938   -5.4132 C   0  0  0  0  0  0  0  0  0  0  0  0
   11.2358    9.8169   -6.4168 O   0  0  0  0  0  0  0  0  0  0  0  0
   11.8140   11.0848   -6.2258 C   0  0  0  0  0  0  0  0  0  0  0  0
    9.0345    8.0948   -7.1298 C   0  0  0  0  0  0  0  0  0  0  0  0
    9.1531    8.4902   -8.6128 C   0  0  0  0  0  0  0  0  0  0  0  0
    9.8757    5.7715  -12.7409 C   0  0  0  0  0  0  0  0  0  0  0  0
   11.1606    6.2334  -13.0472 C   0  0  0  0  0  0  0  0  0  0  0  0
   12.0858    5.6800  -13.9927 C   0  0  0  0  0  0  0  0  0  0  0  0
   11.9547    4.5226  -14.8306 C   0  0  0  0  0  0  0  0  0  0  0  0
   10.8481    3.6189  -14.9541 C   0  0  0  0  0  0  0  0  0  0  0  0
    9.5834    3.6566  -14.2812 C   0  0  0  0  0  0  0  0  0  0  0  0
    9.1537    4.5904  -13.3307 C   0  0  0  0  0  0  0  0  0  0  0  0
    7.2871   -1.0261  -14.2463 H   0  0  0  0  0  0  0  0  0  0  0  0
    7.7952    0.4788  -13.5147 H   0  0  0  0  0  0  0  0  0  0  0  0
    6.8850   -0.6986  -12.5636 H   0  0  0  0  0  0  0  0  0  0  0  0
    4.8984   -0.3931  -14.0603 H   0  0  0  0  0  0  0  0  0  0  0  0
    5.7813    0.7545  -15.0296 H   0  0  0  0  0  0  0  0  0  0  0  0
    5.0355    1.1568  -12.0818 H   0  0  0  0  0  0  0  0  0  0  0  0
    4.1730    1.8455  -13.4386 H   0  0  0  0  0  0  0  0  0  0  0  0
    6.8965    5.8560  -11.1611 H   0  0  0  0  0  0  0  0  0  0  0  0
   10.2008    8.1110  -11.1884 H   0  0  0  0  0  0  0  0  0  0  0  0
    8.4860    8.3263  -11.1240 H   0  0  0  0  0  0  0  0  0  0  0  0
   10.4574    5.5125   -9.6455 H   0  0  0  0  0  0  0  0  0  0  0  0
   11.3642    6.9708   -9.2884 H   0  0  0  0  0  0  0  0  0  0  0  0
    9.6017    5.3720   -7.3654 H   0  0  0  0  0  0  0  0  0  0  0  0
   11.3406    5.5930   -7.2655 H   0  0  0  0  0  0  0  0  0  0  0  0
   10.8962    5.5946   -4.7998 H   0  0  0  0  0  0  0  0  0  0  0  0
   12.1554    6.1087   -2.7560 H   0  0  0  0  0  0  0  0  0  0  0  0
   12.9236    8.4431   -2.3394 H   0  0  0  0  0  0  0  0  0  0  0  0
   12.5163   10.1721   -3.9881 H   0  0  0  0  0  0  0  0  0  0  0  0
   11.6859   11.7666   -7.0543 H   0  0  0  0  0  0  0  0  0  0  0  0
   11.3268   11.5392   -5.3643 H   0  0  0  0  0  0  0  0  0  0  0  0
   12.8826   10.9725   -6.0623 H   0  0  0  0  0  0  0  0  0  0  0  0
    8.1243    7.5137   -6.9715 H   0  0  0  0  0  0  0  0  0  0  0  0
    8.9402    8.9723   -6.4922 H   0  0  0  0  0  0  0  0  0  0  0  0
   10.0229    9.1325   -8.7581 H   0  0  0  0  0  0  0  0  0  0  0  0
    8.2801    9.0745   -8.9044 H   0  0  0  0  0  0  0  0  0  0  0  0
   11.5183    7.1128  -12.5319 H   0  0  0  0  0  0  0  0  0  0  0  0
   13.0286    6.2071  -14.0821 H   0  0  0  0  0  0  0  0  0  0  0  0
   12.8088    4.2995  -15.4574 H   0  0  0  0  0  0  0  0  0  0  0  0
   10.9818    2.8058  -15.6572 H   0  0  0  0  0  0  0  0  0  0  0  0
    8.8908    2.8671  -14.5463 H   0  0  0  0  0  0  0  0  0  0  0  0
    8.4349    6.7587   -9.3014 H   0  0  0  0  0  0  0  0  0  0  0  0
  2  1  1  0
  3  2  1  0
  4  3  1  0
  5  4  3  0
  6  5  1  0
  7  6  2  0
  8  7  1  0
  9  8  1  0
 10  9  1  0
 11 10  1  0
 12 11  1  0
 13 12  1  0
 14 13  1  0
 15 14  2  0
 16 15  1  0
 17 16  2  0
 18 17  1  0
 19 14  1  0
 19 18  2  0
 20 19  1  0
 21 20  1  0
 22 13  1  0
 23 10  1  0
 23 22  1  0
 24  8  2  0
 25 24  1  0
 26 25  2  0
 27 26  1  0
 28 27  2  0
 29 28  1  0
 30  6  1  0
 30 24  1  0
 30 29  2  0
 31  1  1  0
 32  1  1  0
 33  1  1  0
 34  2  1  0
 35  2  1  0
 36  3  1  0
 37  3  1  0
 38  7  1  0
 39  9  1  0
 40  9  1  0
 41 11  1  0
 42 11  1  0
 43 12  1  0
 44 12  1  0
 45 15  1  0
 46 16  1  0
 47 17  1  0
 48 18  1  0
 49 21  1  0
 50 21  1  0
 51 21  1  0
 52 22  1  0
 53 22  1  0
 54 23  1  0
 55 23  1  0
 56 25  1  0
 57 26  1  0
 58 27  1  0
 59 28  1  0
 60 29  1  0
 61 10  1  0
M  CHG  1  10   1
M  END
>  <b_m_subgroup_collapsed>  (206) 
0

>  <r_i_docking_score>  (206) 
-8.5870018485585007

>  <s_m_subgroup_title>  (206) 
glide-dock_SP_D22_pv

>  <s_m_subgroupid>  (206) 
glide-dock_SP_D22_pv

>  <Molecule ChEMBL ID>  (206) 
CHEMBL2207634

>  <Standard Type>  (206) 
Ki

>  <Standard Value>  (206) 
60.0

>  <label>  (206) 
1

$$$$
CHEMBL455318
     RDKit          3D

 94101  0  0  1  0  0  0  0  0999 V2000
    9.9882    7.1262   -7.3773 C   0  0  0  0  0  0  0  0  0  0  0  0
    9.7879    7.6938   -8.7892 C   0  0  0  0  0  0  0  0  0  0  0  0
    9.3177    6.6204   -9.7898 C   0  0  0  0  0  0  0  0  0  0  0  0
    8.8861    7.1622  -11.1173 N   0  0  1  0  0  0  0  0  0  0  0  0
    9.8572    8.0566  -11.7803 C   0  0  0  0  0  0  0  0  0  0  0  0
   11.0904    7.2477  -12.2103 C   0  0  0  0  0  0  0  0  0  0  0  0
   10.7984    6.0064  -13.0426 C   0  0  0  0  0  0  0  0  0  0  0  0
   11.7502    5.3614  -13.8472 C   0  0  0  0  0  0  0  0  0  0  0  0
   11.4100    4.1801  -14.5172 C   0  0  0  0  0  0  0  0  0  0  0  0
   10.1208    3.6372  -14.3801 C   0  0  0  0  0  0  0  0  0  0  0  0
    9.1051    4.2409  -13.5907 C   0  0  0  0  0  0  0  0  0  0  0  0
    9.5008    5.4332  -12.9224 C   0  0  0  0  0  0  0  0  0  0  0  0
    8.4026    6.1525  -12.1021 C   0  0  1  0  0  0  0  0  0  0  0  0
    7.3443    5.2100  -11.5038 C   0  0  0  0  0  0  0  0  0  0  0  0
    6.8866    4.1388  -12.4550 C   0  0  0  0  0  0  0  0  0  0  0  0
    5.6297    3.5581  -12.2467 C   0  0  0  0  0  0  0  0  0  0  0  0
    5.2422    2.4156  -12.9601 C   0  0  0  0  0  0  0  0  0  0  0  0
    6.1032    1.8484  -13.9272 C   0  0  0  0  0  0  0  0  0  0  0  0
    5.8228    0.7074  -14.6689 O   0  0  0  0  0  0  0  0  0  0  0  0
    4.7561   -0.1306  -14.4687 C   0  0  0  0  0  0  0  0  0  0  0  0
    4.0864   -0.2276  -13.4469 O   0  0  0  0  0  0  0  0  0  0  0  0
    4.3517   -0.9256  -15.7128 C   0  0  0  0  0  0  0  0  0  0  0  0
    5.5119   -1.6911  -16.3781 C   0  0  0  0  0  0  0  0  0  0  0  0
    5.6492   -1.4186  -17.8764 C   0  0  0  0  0  0  0  0  0  0  0  0
    5.8813   -2.3257  -18.6753 O   0  0  0  0  0  0  0  0  0  0  0  0
    5.6070   -0.0989  -18.1653 O   0  0  0  0  0  0  0  0  0  0  0  0
    6.0812    0.3561  -19.3691 C   0  0  0  0  0  0  0  0  0  0  0  0
    5.1471    0.4989  -20.4170 C   0  0  0  0  0  0  0  0  0  0  0  0
    5.5508    0.9718  -21.6751 C   0  0  0  0  0  0  0  0  0  0  0  0
    6.8914    1.3225  -21.8847 C   0  0  0  0  0  0  0  0  0  0  0  0
    7.8281    1.1958  -20.8396 C   0  0  0  0  0  0  0  0  0  0  0  0
    7.4502    0.7267  -19.5574 C   0  0  0  0  0  0  0  0  0  0  0  0
    8.5158    0.5985  -18.5181 C   0  0  0  0  0  0  0  0  0  0  0  0
    8.2473    0.5462  -17.1262 C   0  0  0  0  0  0  0  0  0  0  0  0
    9.2279    0.2986  -16.1527 C   0  0  0  0  0  0  0  0  0  0  0  0
   10.5656    0.1714  -16.5281 C   0  0  0  0  0  0  0  0  0  0  0  0
   10.9273    0.2747  -17.8791 C   0  0  0  0  0  0  0  0  0  0  0  0
    9.8991    0.5078  -18.8395 C   0  0  0  0  0  0  0  0  0  0  0  0
   10.2457    0.6401  -20.3355 C   0  0  1  0  0  0  0  0  0  0  0  0
    9.2719    1.5605  -21.1028 C   0  0  0  0  0  0  0  0  0  0  0  0
   11.6778    0.9509  -20.6158 N   0  0  1  0  0  0  0  0  0  0  0  0
   12.0713    2.3814  -20.4365 C   0  0  0  0  0  0  0  0  0  0  0  0
   13.5525    2.6790  -20.7434 C   0  0  0  0  0  0  0  0  0  0  0  0
   13.9504    2.3742  -22.1950 C   0  0  0  0  0  0  0  0  0  0  0  0
   12.5191   -0.0204  -19.8850 C   0  0  0  0  0  0  0  0  0  0  0  0
   12.3640    0.1856  -18.3793 C   0  0  0  0  0  0  0  0  0  0  0  0
    7.3149    2.5265  -14.2045 C   0  0  0  0  0  0  0  0  0  0  0  0
    7.7557    3.6444  -13.4469 C   0  0  0  0  0  0  0  0  0  0  0  0
   10.3298    7.9019   -6.6904 H   0  0  0  0  0  0  0  0  0  0  0  0
   10.7320    6.3270   -7.3733 H   0  0  0  0  0  0  0  0  0  0  0  0
    9.0570    6.7213   -6.9785 H   0  0  0  0  0  0  0  0  0  0  0  0
    9.0532    8.5006   -8.7430 H   0  0  0  0  0  0  0  0  0  0  0  0
   10.7277    8.1375   -9.1170 H   0  0  0  0  0  0  0  0  0  0  0  0
   10.0843    5.8551   -9.9191 H   0  0  0  0  0  0  0  0  0  0  0  0
    8.4631    6.1358   -9.3187 H   0  0  0  0  0  0  0  0  0  0  0  0
    9.3815    8.5142  -12.6464 H   0  0  0  0  0  0  0  0  0  0  0  0
   10.1366    8.8918  -11.1374 H   0  0  0  0  0  0  0  0  0  0  0  0
   11.7746    7.8444  -12.8049 H   0  0  0  0  0  0  0  0  0  0  0  0
   11.6630    6.9723  -11.3269 H   0  0  0  0  0  0  0  0  0  0  0  0
   12.7470    5.7687  -13.9390 H   0  0  0  0  0  0  0  0  0  0  0  0
   12.1454    3.6774  -15.1276 H   0  0  0  0  0  0  0  0  0  0  0  0
    9.9337    2.7168  -14.9037 H   0  0  0  0  0  0  0  0  0  0  0  0
    7.8661    6.7311  -12.8558 H   0  0  0  0  0  0  0  0  0  0  0  0
    7.7492    4.6494  -10.6616 H   0  0  0  0  0  0  0  0  0  0  0  0
    6.4870    5.7722  -11.1334 H   0  0  0  0  0  0  0  0  0  0  0  0
    4.9842    3.9635  -11.4827 H   0  0  0  0  0  0  0  0  0  0  0  0
    4.2707    2.0083  -12.7357 H   0  0  0  0  0  0  0  0  0  0  0  0
    3.5737   -1.6381  -15.4330 H   0  0  0  0  0  0  0  0  0  0  0  0
    3.8803   -0.2309  -16.4068 H   0  0  0  0  0  0  0  0  0  0  0  0
    6.4621   -1.4278  -15.9114 H   0  0  0  0  0  0  0  0  0  0  0  0
    5.3825   -2.7624  -16.2256 H   0  0  0  0  0  0  0  0  0  0  0  0
    4.1142    0.2224  -20.2603 H   0  0  0  0  0  0  0  0  0  0  0  0
    4.8374    1.0516  -22.4813 H   0  0  0  0  0  0  0  0  0  0  0  0
    7.2004    1.6783  -22.8564 H   0  0  0  0  0  0  0  0  0  0  0  0
    7.2507    0.6918  -16.7559 H   0  0  0  0  0  0  0  0  0  0  0  0
    8.9508    0.2190  -15.1117 H   0  0  0  0  0  0  0  0  0  0  0  0
   11.3041    0.0044  -15.7639 H   0  0  0  0  0  0  0  0  0  0  0  0
   10.0785   -0.3612  -20.7375 H   0  0  0  0  0  0  0  0  0  0  0  0
    9.4809    1.5263  -22.1734 H   0  0  0  0  0  0  0  0  0  0  0  0
    9.3749    2.5972  -20.7849 H   0  0  0  0  0  0  0  0  0  0  0  0
   11.4825    3.0100  -21.1037 H   0  0  0  0  0  0  0  0  0  0  0  0
   11.8317    2.7099  -19.4246 H   0  0  0  0  0  0  0  0  0  0  0  0
   13.7331    3.7386  -20.5570 H   0  0  0  0  0  0  0  0  0  0  0  0
   14.2137    2.1562  -20.0531 H   0  0  0  0  0  0  0  0  0  0  0  0
   14.9891    2.6527  -22.3752 H   0  0  0  0  0  0  0  0  0  0  0  0
   13.3336    2.9322  -22.8990 H   0  0  0  0  0  0  0  0  0  0  0  0
   13.8532    1.3139  -22.4275 H   0  0  0  0  0  0  0  0  0  0  0  0
   12.2010   -1.0278  -20.1518 H   0  0  0  0  0  0  0  0  0  0  0  0
   13.5643    0.0378  -20.1849 H   0  0  0  0  0  0  0  0  0  0  0  0
   12.8885    1.0874  -18.0610 H   0  0  0  0  0  0  0  0  0  0  0  0
   12.8515   -0.6387  -17.8591 H   0  0  0  0  0  0  0  0  0  0  0  0
    7.9356    2.1385  -14.9835 H   0  0  0  0  0  0  0  0  0  0  0  0
    8.0439    7.6989  -10.8877 H   0  0  0  0  0  0  0  0  0  0  0  0
   11.8174    0.7577  -21.5984 H   0  0  0  0  0  0  0  0  0  0  0  0
  2  1  1  0
  3  2  1  0
  4  3  1  0
  5  4  1  0
  6  5  1  0
  7  6  1  0
  8  7  2  0
  9  8  1  0
 10  9  2  0
 11 10  1  0
 12  7  1  0
 12 11  2  0
 13  4  1  0
 13 12  1  0
 14 13  1  0
 15 14  1  0
 16 15  2  0
 17 16  1  0
 18 17  2  0
 19 18  1  0
 20 19  1  0
 21 20  2  0
 22 20  1  0
 23 22  1  0
 24 23  1  0
 25 24  2  0
 26 24  1  0
 27 26  1  0
 28 27  1  0
 29 28  2  0
 30 29  1  0
 31 30  2  0
 32 27  2  0
 32 31  1  0
 33 32  1  0
 34 33  1  0
 35 34  2  0
 36 35  1  0
 37 36  2  0
 38 33  2  0
 38 37  1  0
 39 38  1  0
 40 31  1  0
 40 39  1  0
 41 39  1  0
 42 41  1  0
 43 42  1  0
 44 43  1  0
 45 41  1  0
 46 37  1  0
 46 45  1  0
 47 18  1  0
 48 11  1  0
 48 15  1  0
 48 47  2  0
 49  1  1  0
 50  1  1  0
 51  1  1  0
 52  2  1  0
 53  2  1  0
 54  3  1  0
 55  3  1  0
 56  5  1  0
 57  5  1  0
 58  6  1  0
 59  6  1  0
 60  8  1  0
 61  9  1  0
 62 10  1  0
 13 63  1  6
 64 14  1  0
 65 14  1  0
 66 16  1  0
 67 17  1  0
 68 22  1  0
 69 22  1  0
 70 23  1  0
 71 23  1  0
 72 28  1  0
 73 29  1  0
 74 30  1  0
 75 34  1  0
 76 35  1  0
 77 36  1  0
 39 78  1  6
 79 40  1  0
 80 40  1  0
 81 42  1  0
 82 42  1  0
 83 43  1  0
 84 43  1  0
 85 44  1  0
 86 44  1  0
 87 44  1  0
 88 45  1  0
 89 45  1  0
 90 46  1  0
 91 46  1  0
 92 47  1  0
  4 93  1  1
 41 94  1  6
M  CHG  2   4   1  41   1
M  END
>  <b_m_subgroup_collapsed>  (207) 
0

>  <r_i_docking_score>  (207) 
-8.5727883914152994

>  <s_m_subgroup_title>  (207) 
glide-dock_SP_D22_pv

>  <s_m_subgroupid>  (207) 
glide-dock_SP_D22_pv

>  <Molecule ChEMBL ID>  (207) 
CHEMBL455318

>  <Standard Type>  (207) 
Ki

>  <Standard Value>  (207) 
10000.0

>  <label>  (207) 
0

$$$$
CHEMBL7806
     RDKit          3D

 48 50  0  0  1  0  0  0  0  0999 V2000
    8.4978    3.4218   -8.2469 C   0  0  0  0  0  0  0  0  0  0  0  0
    9.2583    4.4664   -9.0886 C   0  0  0  0  0  0  0  0  0  0  0  0
    8.3267    5.6688   -9.3262 C   0  0  0  0  0  0  0  0  0  0  0  0
    8.9695    6.9882   -9.5358 N   0  0  2  0  0  0  0  0  0  0  0  0
    9.3719    7.2255  -10.9607 C   0  0  0  0  0  0  0  0  0  0  0  0
   10.8917    7.2064  -11.2595 C   0  0  0  0  0  0  0  0  0  0  0  0
   11.2605    6.7727  -12.6533 C   0  0  0  0  0  0  0  0  0  0  0  0
   12.2982    7.3722  -13.4323 C   0  0  0  0  0  0  0  0  0  0  0  0
   12.4860    6.7712  -14.6482 C   0  0  0  0  0  0  0  0  0  0  0  0
   11.4280    5.4090  -14.8613 S   0  0  0  0  0  0  0  0  0  0  0  0
   10.7114    5.6891  -13.2989 C   0  0  0  0  0  0  0  0  0  0  0  0
    9.9084    7.4355   -8.4542 C   0  0  1  0  0  0  0  0  0  0  0  0
   10.0642    8.9645   -8.4381 C   0  0  0  0  0  0  0  0  0  0  0  0
   11.2491    9.3593   -7.5495 C   0  0  0  0  0  0  0  0  0  0  0  0
   11.3086    8.6130   -6.2235 C   0  0  0  0  0  0  0  0  0  0  0  0
   12.1668    9.0659   -5.2118 C   0  0  0  0  0  0  0  0  0  0  0  0
   12.8860   10.1723   -5.4469 O   0  0  0  0  0  0  0  0  0  0  0  0
   12.3478    8.3687   -4.0058 C   0  0  0  0  0  0  0  0  0  0  0  0
   11.7159    7.1315   -3.8413 C   0  0  0  0  0  0  0  0  0  0  0  0
   10.8639    6.6677   -4.8546 C   0  0  0  0  0  0  0  0  0  0  0  0
   10.5907    7.4260   -6.0120 C   0  0  0  0  0  0  0  0  0  0  0  0
    9.5392    6.9846   -7.0152 C   0  0  0  0  0  0  0  0  0  0  0  0
    9.1289    2.6224   -7.8561 H   0  0  0  0  0  0  0  0  0  0  0  0
    7.9558    3.9023   -7.4469 H   0  0  0  0  0  0  0  0  0  0  0  0
    7.6860    2.9724   -8.7962 H   0  0  0  0  0  0  0  0  0  0  0  0
    9.5990    4.0576  -10.0397 H   0  0  0  0  0  0  0  0  0  0  0  0
   10.1712    4.7454   -8.5683 H   0  0  0  0  0  0  0  0  0  0  0  0
    7.6860    5.7960   -8.4594 H   0  0  0  0  0  0  0  0  0  0  0  0
    7.6535    5.4441  -10.1515 H   0  0  0  0  0  0  0  0  0  0  0  0
    8.8460    6.5176  -11.5993 H   0  0  0  0  0  0  0  0  0  0  0  0
    8.9762    8.1956  -11.2633 H   0  0  0  0  0  0  0  0  0  0  0  0
   11.2997    8.1990  -11.0702 H   0  0  0  0  0  0  0  0  0  0  0  0
   11.4138    6.5723  -10.5609 H   0  0  0  0  0  0  0  0  0  0  0  0
   12.8844    8.2071  -13.0765 H   0  0  0  0  0  0  0  0  0  0  0  0
   13.2027    7.0254  -15.4155 H   0  0  0  0  0  0  0  0  0  0  0  0
    9.9418    5.0153  -12.9517 H   0  0  0  0  0  0  0  0  0  0  0  0
   10.8831    6.9879   -8.6294 H   0  0  0  0  0  0  0  0  0  0  0  0
    9.1449    9.4085   -8.0532 H   0  0  0  0  0  0  0  0  0  0  0  0
   10.2099    9.3820   -9.4333 H   0  0  0  0  0  0  0  0  0  0  0  0
   11.2860   10.4318   -7.3715 H   0  0  0  0  0  0  0  0  0  0  0  0
   12.1714    9.1187   -8.0802 H   0  0  0  0  0  0  0  0  0  0  0  0
   13.7470   10.0553   -5.8467 H   0  0  0  0  0  0  0  0  0  0  0  0
   12.9957    8.7556   -3.2341 H   0  0  0  0  0  0  0  0  0  0  0  0
   11.8552    6.5561   -2.9374 H   0  0  0  0  0  0  0  0  0  0  0  0
   10.3148    5.7723   -4.6730 H   0  0  0  0  0  0  0  0  0  0  0  0
    9.4353    5.9091   -6.9107 H   0  0  0  0  0  0  0  0  0  0  0  0
    8.5792    7.4114   -6.7182 H   0  0  0  0  0  0  0  0  0  0  0  0
    8.1523    7.5875   -9.4503 H   0  0  0  0  0  0  0  0  0  0  0  0
  2  1  1  0
  3  2  1  0
  4  3  1  0
  5  4  1  0
  6  5  1  0
  7  6  1  0
  8  7  1  0
  9  8  2  0
 10  9  1  0
 11  7  2  0
 11 10  1  0
 12  4  1  0
 13 12  1  0
 14 13  1  0
 15 14  1  0
 16 15  2  0
 17 16  1  0
 18 16  1  0
 19 18  2  0
 20 19  1  0
 21 15  1  0
 21 20  2  0
 22 12  1  0
 22 21  1  0
 23  1  1  0
 24  1  1  0
 25  1  1  0
 26  2  1  0
 27  2  1  0
 28  3  1  0
 29  3  1  0
 30  5  1  0
 31  5  1  0
 32  6  1  0
 33  6  1  0
 34  8  1  0
 35  9  1  0
 36 11  1  0
 12 37  1  6
 38 13  1  0
 39 13  1  0
 40 14  1  0
 41 14  1  0
 42 17  1  0
 43 18  1  0
 44 19  1  0
 45 20  1  0
 46 22  1  0
 47 22  1  0
  4 48  1  1
M  CHG  1   4   1
M  END
>  <b_m_subgroup_collapsed>  (208) 
0

>  <r_i_docking_score>  (208) 
-8.5711671882738507

>  <s_m_subgroup_title>  (208) 
glide-dock_SP_D22_pv

>  <s_m_subgroupid>  (208) 
glide-dock_SP_D22_pv

>  <Molecule ChEMBL ID>  (208) 
CHEMBL7806

>  <Standard Type>  (208) 
Ki

>  <Standard Value>  (208) 
0.14

>  <label>  (208) 
1

$$$$
CHEMBL495075
     RDKit          3D

 59 62  0  0  1  0  0  0  0  0999 V2000
   11.1235    8.8044   -8.7300 O   0  0  0  0  0  0  0  0  0  0  0  0
   10.7297    8.0760   -7.8208 C   0  0  0  0  0  0  0  0  0  0  0  0
   10.0543    6.9385   -7.9985 N   0  0  0  0  0  0  0  0  0  0  0  0
    9.8581    6.2341   -9.2480 C   0  0  1  0  0  0  0  0  0  0  0  0
    8.8865    5.0787   -9.0892 C   0  0  0  0  0  0  0  0  0  0  0  0
    8.4881    4.8347  -10.5330 C   0  0  0  0  0  0  0  0  0  0  0  0
    8.4049    6.1704  -11.1629 N   0  0  2  0  0  0  0  0  0  0  0  0
    8.5237    6.2098  -12.6465 C   0  0  0  0  0  0  0  0  0  0  0  0
    8.3470    4.8650  -13.3497 C   0  0  0  0  0  0  0  0  0  0  0  0
    7.0825    4.2455  -13.4468 C   0  0  0  0  0  0  0  0  0  0  0  0
    6.9485    2.9971  -14.0910 C   0  0  0  0  0  0  0  0  0  0  0  0
    8.0772    2.3517  -14.6614 C   0  0  0  0  0  0  0  0  0  0  0  0
    8.0379    1.1489  -15.3428 O   0  0  0  0  0  0  0  0  0  0  0  0
    6.7876    0.5817  -15.7178 C   0  0  0  0  0  0  0  0  0  0  0  0
    6.9908   -0.2279  -17.0113 C   0  0  0  0  0  0  0  0  0  0  0  0
    5.7237   -1.0195  -17.3937 C   0  0  0  0  0  0  0  0  0  0  0  0
    5.2867   -1.8859  -16.2758 N   0  0  0  0  0  0  0  0  0  0  0  0
    5.0003   -1.1148  -15.0467 C   0  0  0  0  0  0  0  0  0  0  0  0
    6.2430   -0.3239  -14.5920 C   0  0  0  0  0  0  0  0  0  0  0  0
    9.3382    2.9773  -14.5489 C   0  0  0  0  0  0  0  0  0  0  0  0
   10.8852    2.1671  -15.3060 Br  0  0  0  0  0  0  0  0  0  0  0  0
    9.4720    4.2181  -13.9001 C   0  0  0  0  0  0  0  0  0  0  0  0
    9.2866    7.0829  -10.3952 C   0  0  0  0  0  0  0  0  0  0  0  0
   10.9778    8.4048   -6.3868 C   0  0  0  0  0  0  0  0  0  0  0  0
   10.9763    9.7468   -5.9585 C   0  0  0  0  0  0  0  0  0  0  0  0
   11.2862   10.0528   -4.6229 C   0  0  0  0  0  0  0  0  0  0  0  0
   11.6780    9.0336   -3.7385 C   0  0  0  0  0  0  0  0  0  0  0  0
   12.0907    9.3725   -2.1094 Cl  0  0  0  0  0  0  0  0  0  0  0  0
   11.6862    7.7023   -4.1622 C   0  0  0  0  0  0  0  0  0  0  0  0
   12.1271    6.4865   -3.0376 Cl  0  0  0  0  0  0  0  0  0  0  0  0
   11.2890    7.3752   -5.4682 C   0  0  0  0  0  0  0  0  0  0  0  0
    9.7148    6.4808   -7.1660 H   0  0  0  0  0  0  0  0  0  0  0  0
   10.8230    5.8346   -9.5594 H   0  0  0  0  0  0  0  0  0  0  0  0
    9.3346    4.1996   -8.6233 H   0  0  0  0  0  0  0  0  0  0  0  0
    8.0191    5.3803   -8.4992 H   0  0  0  0  0  0  0  0  0  0  0  0
    9.2777    4.2437  -11.0010 H   0  0  0  0  0  0  0  0  0  0  0  0
    7.5550    4.2796  -10.6268 H   0  0  0  0  0  0  0  0  0  0  0  0
    7.8012    6.9283  -13.0359 H   0  0  0  0  0  0  0  0  0  0  0  0
    9.5090    6.5862  -12.9203 H   0  0  0  0  0  0  0  0  0  0  0  0
    6.2103    4.7216  -13.0223 H   0  0  0  0  0  0  0  0  0  0  0  0
    5.9638    2.5590  -14.1356 H   0  0  0  0  0  0  0  0  0  0  0  0
    6.0861    1.3718  -15.9638 H   0  0  0  0  0  0  0  0  0  0  0  0
    7.2708    0.4430  -17.8250 H   0  0  0  0  0  0  0  0  0  0  0  0
    7.8261   -0.9167  -16.8931 H   0  0  0  0  0  0  0  0  0  0  0  0
    4.9147   -0.3384  -17.6622 H   0  0  0  0  0  0  0  0  0  0  0  0
    5.9184   -1.6373  -18.2694 H   0  0  0  0  0  0  0  0  0  0  0  0
    4.4614   -2.4091  -16.5457 H   0  0  0  0  0  0  0  0  0  0  0  0
    4.1606   -0.4415  -15.2270 H   0  0  0  0  0  0  0  0  0  0  0  0
    4.6913   -1.8099  -14.2650 H   0  0  0  0  0  0  0  0  0  0  0  0
    7.0200   -1.0265  -14.2861 H   0  0  0  0  0  0  0  0  0  0  0  0
    6.0062    0.2666  -13.7066 H   0  0  0  0  0  0  0  0  0  0  0  0
   10.4495    4.6737  -13.8335 H   0  0  0  0  0  0  0  0  0  0  0  0
    8.6910    7.9158  -10.0199 H   0  0  0  0  0  0  0  0  0  0  0  0
   10.0922    7.5082  -10.9945 H   0  0  0  0  0  0  0  0  0  0  0  0
   10.7381   10.5455   -6.6468 H   0  0  0  0  0  0  0  0  0  0  0  0
   11.2689   11.0730   -4.2884 H   0  0  0  0  0  0  0  0  0  0  0  0
   11.3074    6.3377   -5.7704 H   0  0  0  0  0  0  0  0  0  0  0  0
    6.0313   -2.5424  -16.0719 H   0  0  0  0  0  0  0  0  0  0  0  0
    7.4736    6.5180  -10.9371 H   0  0  0  0  0  0  0  0  0  0  0  0
  2  1  2  0
  3  2  1  0
  4  3  1  0
  5  4  1  0
  6  5  1  0
  7  6  1  0
  8  7  1  0
  9  8  1  0
 10  9  1  0
 11 10  2  0
 12 11  1  0
 13 12  1  0
 14 13  1  0
 15 14  1  0
 16 15  1  0
 17 16  1  0
 18 17  1  0
 19 14  1  0
 19 18  1  0
 20 12  2  0
 21 20  1  0
 22  9  2  0
 22 20  1  0
 23  4  1  0
 23  7  1  0
 24  2  1  0
 25 24  1  0
 26 25  2  0
 27 26  1  0
 28 27  1  0
 29 27  2  0
 30 29  1  0
 31 24  2  0
 31 29  1  0
 32  3  1  0
  4 33  1  6
 34  5  1  0
 35  5  1  0
 36  6  1  0
 37  6  1  0
 38  8  1  0
 39  8  1  0
 40 10  1  0
 41 11  1  0
 42 14  1  0
 43 15  1  0
 44 15  1  0
 45 16  1  0
 46 16  1  0
 47 17  1  0
 48 18  1  0
 49 18  1  0
 50 19  1  0
 51 19  1  0
 52 22  1  0
 53 23  1  0
 54 23  1  0
 55 25  1  0
 56 26  1  0
 57 31  1  0
 58 17  1  0
  7 59  1  6
M  CHG  2   7   1  17   1
M  END
>  <b_m_subgroup_collapsed>  (209) 
0

>  <r_i_docking_score>  (209) 
-8.5622336095574294

>  <s_m_subgroup_title>  (209) 
glide-dock_SP_D22_pv

>  <s_m_subgroupid>  (209) 
glide-dock_SP_D22_pv

>  <Molecule ChEMBL ID>  (209) 
CHEMBL495075

>  <Standard Type>  (209) 
Ki

>  <Standard Value>  (209) 
100.0

>  <label>  (209) 
1

$$$$
CHEMBL2159479
     RDKit          3D

 47 49  0  0  1  0  0  0  0  0999 V2000
    8.0870    5.9633  -13.4463 O   0  0  0  0  0  0  0  0  0  0  0  0
    8.7558    4.6573  -13.3837 S   0  0  0  0  0  0  0  0  0  0  0  0
    9.9011    4.3496  -14.2525 O   0  0  0  0  0  0  0  0  0  0  0  0
    9.2801    4.4549  -11.7563 N   0  0  0  0  0  0  0  0  0  0  0  0
    8.5764    5.1618  -10.6823 C   0  0  1  0  0  0  0  0  0  0  0  0
    8.8343    4.5480   -9.3081 C   0  0  0  0  0  0  0  0  0  0  0  0
    8.7270    5.7143   -8.3334 C   0  0  0  0  0  0  0  0  0  0  0  0
    8.8860    6.9507   -9.1293 N   0  0  1  0  0  0  0  0  0  0  0  0
    9.8468    7.9257   -8.5723 C   0  0  0  0  0  0  0  0  0  0  0  0
    9.2795    8.6068   -7.3217 C   0  0  0  0  0  0  0  0  0  0  0  0
   10.2958    9.3724   -6.6891 O   0  0  0  0  0  0  0  0  0  0  0  0
   10.9173    8.8399   -5.5842 C   0  0  0  0  0  0  0  0  0  0  0  0
   11.4038    9.7500   -4.6254 C   0  0  0  0  0  0  0  0  0  0  0  0
   12.0150    9.2897   -3.4435 C   0  0  0  0  0  0  0  0  0  0  0  0
   12.1498    7.9076   -3.2148 C   0  0  0  0  0  0  0  0  0  0  0  0
   11.6860    6.9893   -4.1756 C   0  0  0  0  0  0  0  0  0  0  0  0
   11.0792    7.4508   -5.3594 C   0  0  0  0  0  0  0  0  0  0  0  0
    9.1259    6.5797  -10.5340 C   0  0  0  0  0  0  0  0  0  0  0  0
    7.5228    3.3728  -13.5783 C   0  0  0  0  0  0  0  0  0  0  0  0
    6.2447    3.5326  -13.0050 C   0  0  0  0  0  0  0  0  0  0  0  0
    5.3289    2.4622  -13.0467 C   0  0  0  0  0  0  0  0  0  0  0  0
    5.6857    1.2467  -13.6653 C   0  0  0  0  0  0  0  0  0  0  0  0
    4.8105    0.2132  -13.6740 F   0  0  0  0  0  0  0  0  0  0  0  0
    6.9437    1.1115  -14.2850 C   0  0  0  0  0  0  0  0  0  0  0  0
    7.8645    2.1783  -14.2478 C   0  0  0  0  0  0  0  0  0  0  0  0
    9.6251    3.5181  -11.5420 H   0  0  0  0  0  0  0  0  0  0  0  0
    7.5034    5.1930  -10.8754 H   0  0  0  0  0  0  0  0  0  0  0  0
    9.8372    4.1211   -9.2571 H   0  0  0  0  0  0  0  0  0  0  0  0
    8.1171    3.7722   -9.0471 H   0  0  0  0  0  0  0  0  0  0  0  0
    9.4703    5.6152   -7.5435 H   0  0  0  0  0  0  0  0  0  0  0  0
    7.7454    5.7339   -7.8571 H   0  0  0  0  0  0  0  0  0  0  0  0
   10.0640    8.6921   -9.3179 H   0  0  0  0  0  0  0  0  0  0  0  0
   10.7919    7.4252   -8.3570 H   0  0  0  0  0  0  0  0  0  0  0  0
    8.8107    7.9028   -6.6324 H   0  0  0  0  0  0  0  0  0  0  0  0
    8.4860    9.2883   -7.6254 H   0  0  0  0  0  0  0  0  0  0  0  0
   11.2854   10.8107   -4.7901 H   0  0  0  0  0  0  0  0  0  0  0  0
   12.3715    9.9970   -2.7081 H   0  0  0  0  0  0  0  0  0  0  0  0
   12.6123    7.5525   -2.3056 H   0  0  0  0  0  0  0  0  0  0  0  0
   11.7938    5.9281   -4.0041 H   0  0  0  0  0  0  0  0  0  0  0  0
   10.7392    6.7207   -6.0747 H   0  0  0  0  0  0  0  0  0  0  0  0
    8.6437    7.2871  -11.2107 H   0  0  0  0  0  0  0  0  0  0  0  0
   10.1988    6.5932  -10.7373 H   0  0  0  0  0  0  0  0  0  0  0  0
    5.9796    4.4542  -12.5074 H   0  0  0  0  0  0  0  0  0  0  0  0
    4.3507    2.5701  -12.6057 H   0  0  0  0  0  0  0  0  0  0  0  0
    7.2092    0.1826  -14.7689 H   0  0  0  0  0  0  0  0  0  0  0  0
    8.8424    2.0585  -14.6907 H   0  0  0  0  0  0  0  0  0  0  0  0
    7.9573    7.3725   -9.1616 H   0  0  0  0  0  0  0  0  0  0  0  0
  2  1  2  0
  3  2  2  0
  4  2  1  0
  5  4  1  0
  6  5  1  0
  7  6  1  0
  8  7  1  0
  9  8  1  0
 10  9  1  0
 11 10  1  0
 12 11  1  0
 13 12  2  0
 14 13  1  0
 15 14  2  0
 16 15  1  0
 17 12  1  0
 17 16  2  0
 18  5  1  0
 18  8  1  0
 19  2  1  0
 20 19  1  0
 21 20  2  0
 22 21  1  0
 23 22  1  0
 24 22  2  0
 25 19  2  0
 25 24  1  0
 26  4  1  0
  5 27  1  6
 28  6  1  0
 29  6  1  0
 30  7  1  0
 31  7  1  0
 32  9  1  0
 33  9  1  0
 34 10  1  0
 35 10  1  0
 36 13  1  0
 37 14  1  0
 38 15  1  0
 39 16  1  0
 40 17  1  0
 41 18  1  0
 42 18  1  0
 43 20  1  0
 44 21  1  0
 45 24  1  0
 46 25  1  0
  8 47  1  6
M  CHG  1   8   1
M  END
>  <b_m_subgroup_collapsed>  (210) 
0

>  <r_i_docking_score>  (210) 
-8.5561949121106906

>  <s_m_subgroup_title>  (210) 
glide-dock_SP_D22_pv

>  <s_m_subgroupid>  (210) 
glide-dock_SP_D22_pv

>  <Molecule ChEMBL ID>  (210) 
CHEMBL2159479

>  <Standard Type>  (210) 
Ki

>  <Standard Value>  (210) 
11.0

>  <label>  (210) 
1

$$$$
CHEMBL2303762
     RDKit          3D

 59 62  0  0  1  0  0  0  0  0999 V2000
    4.3646   -0.5196  -19.5841 O   0  0  0  0  0  0  0  0  0  0  0  0
    5.1848    0.0843  -18.6099 C   0  0  0  0  0  0  0  0  0  0  0  0
    5.8512   -0.9869  -17.7094 C   0  0  1  0  0  0  0  0  0  0  0  0
    6.9478   -0.4110  -16.9883 O   0  0  0  0  0  0  0  0  0  0  0  0
    6.6495    0.5089  -15.9710 C   0  0  2  0  0  0  0  0  0  0  0  0
    7.8345    1.0064  -15.3992 O   0  0  0  0  0  0  0  0  0  0  0  0
    7.8052    2.1527  -14.6246 C   0  0  0  0  0  0  0  0  0  0  0  0
    9.0233    2.6479  -14.1182 C   0  0  0  0  0  0  0  0  0  0  0  0
    9.0464    3.7722  -13.2641 C   0  0  0  0  0  0  0  0  0  0  0  0
    7.8440    4.4357  -12.9126 C   0  0  0  0  0  0  0  0  0  0  0  0
    7.7632    5.6022  -11.9385 C   0  0  0  0  0  0  0  0  0  0  0  0
    8.7795    5.5471  -10.7826 C   0  0  2  0  0  0  0  0  0  0  0  0
    8.0860    5.7723   -9.5041 N   0  0  0  0  0  0  0  0  0  0  0  0
    8.9811    5.8840   -8.3404 C   0  0  0  0  0  0  0  0  0  0  0  0
    9.8684    7.1215   -8.4965 C   0  0  0  0  0  0  0  0  0  0  0  0
   10.5334    7.1768   -9.8619 C   0  0  0  0  0  0  0  0  0  0  0  0
   11.7257    7.9105  -10.0249 C   0  0  0  0  0  0  0  0  0  0  0  0
   12.3567    7.9447  -11.2816 C   0  0  0  0  0  0  0  0  0  0  0  0
   13.5497    8.5723  -11.4469 O   0  0  0  0  0  0  0  0  0  0  0  0
   11.7642    7.3289  -12.3937 C   0  0  0  0  0  0  0  0  0  0  0  0
   12.3879    7.3723  -13.6045 O   0  0  0  0  0  0  0  0  0  0  0  0
   10.5546    6.6387  -12.2469 C   0  0  0  0  0  0  0  0  0  0  0  0
    9.9616    6.5006  -10.9714 C   0  0  0  0  0  0  0  0  0  0  0  0
    6.6357    3.9698  -13.4469 C   0  0  0  0  0  0  0  0  0  0  0  0
    6.6281    2.8483  -14.2813 C   0  0  0  0  0  0  0  0  0  0  0  0
    5.7606   -0.1925  -14.9001 C   0  0  2  0  0  0  0  0  0  0  0  0
    6.4860   -1.1739  -14.1997 O   0  0  0  0  0  0  0  0  0  0  0  0
    4.5101   -0.7772  -15.5912 C   0  0  2  0  0  0  0  0  0  0  0  0
    3.6860   -1.4274  -14.6469 O   0  0  0  0  0  0  0  0  0  0  0  0
    4.9102   -1.7319  -16.7255 C   0  0  1  0  0  0  0  0  0  0  0  0
    3.7616   -2.2276  -17.4023 O   0  0  0  0  0  0  0  0  0  0  0  0
    3.8129   -1.1500  -19.1329 H   0  0  0  0  0  0  0  0  0  0  0  0
    4.5869    0.7932  -18.0403 H   0  0  0  0  0  0  0  0  0  0  0  0
    5.9486    0.6606  -19.1322 H   0  0  0  0  0  0  0  0  0  0  0  0
    6.2983   -1.7309  -18.3703 H   0  0  0  0  0  0  0  0  0  0  0  0
    6.1316    1.3413  -16.4466 H   0  0  0  0  0  0  0  0  0  0  0  0
    9.9455    2.1357  -14.3511 H   0  0  0  0  0  0  0  0  0  0  0  0
    9.9994    4.0695  -12.8570 H   0  0  0  0  0  0  0  0  0  0  0  0
    6.7540    5.5902  -11.5213 H   0  0  0  0  0  0  0  0  0  0  0  0
    7.8178    6.5480  -12.4795 H   0  0  0  0  0  0  0  0  0  0  0  0
    9.1903    4.5405  -10.6968 H   0  0  0  0  0  0  0  0  0  0  0  0
    7.5460    6.6385   -9.5938 H   0  0  0  0  0  0  0  0  0  0  0  0
    8.3868    5.9556   -7.4286 H   0  0  0  0  0  0  0  0  0  0  0  0
    9.5874    4.9802   -8.2623 H   0  0  0  0  0  0  0  0  0  0  0  0
   10.6250    7.1376   -7.7109 H   0  0  0  0  0  0  0  0  0  0  0  0
    9.2673    8.0244   -8.3755 H   0  0  0  0  0  0  0  0  0  0  0  0
   12.1752    8.4136   -9.1807 H   0  0  0  0  0  0  0  0  0  0  0  0
   13.7045    9.2505  -10.7901 H   0  0  0  0  0  0  0  0  0  0  0  0
   13.2674    7.7089  -13.4990 H   0  0  0  0  0  0  0  0  0  0  0  0
   10.1332    6.1728  -13.1220 H   0  0  0  0  0  0  0  0  0  0  0  0
    5.7008    4.4552  -13.2053 H   0  0  0  0  0  0  0  0  0  0  0  0
    5.6860    2.5314  -14.6468 H   0  0  0  0  0  0  0  0  0  0  0  0
    5.4284    0.5186  -14.1490 H   0  0  0  0  0  0  0  0  0  0  0  0
    6.9903   -1.6867  -14.8276 H   0  0  0  0  0  0  0  0  0  0  0  0
    3.9212    0.0435  -15.9930 H   0  0  0  0  0  0  0  0  0  0  0  0
    3.0299   -1.9170  -15.1233 H   0  0  0  0  0  0  0  0  0  0  0  0
    5.4450   -2.5888  -16.3120 H   0  0  0  0  0  0  0  0  0  0  0  0
    3.4106   -2.9861  -16.9309 H   0  0  0  0  0  0  0  0  0  0  0  0
    7.4207    5.0211   -9.3634 H   0  0  0  0  0  0  0  0  0  0  0  0
  2  1  1  0
  3  2  1  0
  4  3  1  0
  5  4  1  0
  6  5  1  0
  7  6  1  0
  8  7  1  0
  9  8  2  0
 10  9  1  0
 11 10  1  0
 12 11  1  0
 13 12  1  0
 14 13  1  0
 15 14  1  0
 16 15  1  0
 17 16  1  0
 18 17  2  0
 19 18  1  0
 20 18  1  0
 21 20  1  0
 22 20  2  0
 23 12  1  0
 23 16  2  0
 23 22  1  0
 24 10  2  0
 25  7  2  0
 25 24  1  0
 26  5  1  0
 27 26  1  0
 28 26  1  0
 29 28  1  0
 30  3  1  0
 30 28  1  0
 31 30  1  0
 32  1  1  0
 33  2  1  0
 34  2  1  0
  3 35  1  6
  5 36  1  6
 37  8  1  0
 38  9  1  0
 39 11  1  0
 40 11  1  0
 12 41  1  1
 42 13  1  0
 43 14  1  0
 44 14  1  0
 45 15  1  0
 46 15  1  0
 47 17  1  0
 48 19  1  0
 49 21  1  0
 50 22  1  0
 51 24  1  0
 52 25  1  0
 26 53  1  1
 54 27  1  0
 28 55  1  6
 56 29  1  0
 30 57  1  1
 58 31  1  0
 59 13  1  0
M  CHG  1  13   1
M  END
>  <b_m_subgroup_collapsed>  (211) 
0

>  <r_i_docking_score>  (211) 
-8.5419149641895107

>  <s_m_subgroup_title>  (211) 
glide-dock_SP_D22_pv

>  <s_m_subgroupid>  (211) 
glide-dock_SP_D22_pv

>  <Molecule ChEMBL ID>  (211) 
CHEMBL2303762

>  <Standard Type>  (211) 
Ki

>  <Standard Value>  (211) 
11400.0

>  <label>  (211) 
0

$$$$
CHEMBL4472382
     RDKit          3D

 52 55  0  0  1  0  0  0  0  0999 V2000
    8.6570    8.3180   -7.0878 O   0  0  0  0  0  0  0  0  0  0  0  0
    9.9205    7.6985   -7.2288 C   0  0  1  0  0  0  0  0  0  0  0  0
   10.7231    7.8957   -5.9292 C   0  0  0  0  0  0  0  0  0  0  0  0
   11.2070    6.8099   -5.1587 C   0  0  0  0  0  0  0  0  0  0  0  0
   11.8285    7.0183   -3.9137 C   0  0  0  0  0  0  0  0  0  0  0  0
   11.9938    8.3252   -3.4232 C   0  0  0  0  0  0  0  0  0  0  0  0
   12.6482    8.5734   -1.8488 Cl  0  0  0  0  0  0  0  0  0  0  0  0
   11.5680    9.4200   -4.1979 C   0  0  0  0  0  0  0  0  0  0  0  0
   10.9367    9.2069   -5.4409 C   0  0  0  0  0  0  0  0  0  0  0  0
    9.6602    6.2125   -7.5759 C   0  0  0  0  0  0  0  0  0  0  0  0
    9.0618    5.9874   -8.9759 C   0  0  0  0  0  0  0  0  0  0  0  0
    9.9136    6.6228  -10.0052 N   0  0  1  0  0  0  0  0  0  0  0  0
    9.5574    6.2128  -11.3844 C   0  0  0  0  0  0  0  0  0  0  0  0
   10.6086    6.6601  -12.4167 C   0  0  0  0  0  0  0  0  0  0  0  0
   10.5435    5.8740  -13.7134 C   0  0  1  0  0  0  0  0  0  0  0  0
   11.6072    6.0650  -14.7705 C   0  0  0  0  0  0  0  0  0  0  0  0
   11.5219    4.7605  -14.0141 C   0  0  2  0  0  0  0  0  0  0  0  0
   11.0674    3.4927  -14.6640 C   0  0  0  0  0  0  0  0  0  0  0  0
   11.6722    3.0459  -15.8587 C   0  0  0  0  0  0  0  0  0  0  0  0
   11.2878    1.8213  -16.4401 C   0  0  0  0  0  0  0  0  0  0  0  0
   10.2967    1.0308  -15.8289 C   0  0  0  0  0  0  0  0  0  0  0  0
    9.9562   -0.1654  -16.3669 F   0  0  0  0  0  0  0  0  0  0  0  0
    9.6728    1.4795  -14.6512 C   0  0  0  0  0  0  0  0  0  0  0  0
   10.0557    2.7062  -14.0739 C   0  0  0  0  0  0  0  0  0  0  0  0
    9.9884    8.0885   -9.7833 C   0  0  0  0  0  0  0  0  0  0  0  0
   10.6426    8.3781   -8.4183 C   0  0  0  0  0  0  0  0  0  0  0  0
    7.9600    7.7789   -7.4502 H   0  0  0  0  0  0  0  0  0  0  0  0
   11.0734    5.7872   -5.4685 H   0  0  0  0  0  0  0  0  0  0  0  0
   12.1501    6.1727   -3.3234 H   0  0  0  0  0  0  0  0  0  0  0  0
   11.6846   10.4213   -3.8135 H   0  0  0  0  0  0  0  0  0  0  0  0
   10.5698   10.0572   -5.9944 H   0  0  0  0  0  0  0  0  0  0  0  0
   10.6012    5.6601   -7.5553 H   0  0  0  0  0  0  0  0  0  0  0  0
    9.0101    5.7745   -6.8189 H   0  0  0  0  0  0  0  0  0  0  0  0
    8.0548    6.3938   -9.0379 H   0  0  0  0  0  0  0  0  0  0  0  0
    8.9780    4.9156   -9.1617 H   0  0  0  0  0  0  0  0  0  0  0  0
    9.4899    5.1249  -11.4088 H   0  0  0  0  0  0  0  0  0  0  0  0
    8.5678    6.5931  -11.6489 H   0  0  0  0  0  0  0  0  0  0  0  0
   10.4722    7.7163  -12.6452 H   0  0  0  0  0  0  0  0  0  0  0  0
   11.6167    6.5731  -12.0124 H   0  0  0  0  0  0  0  0  0  0  0  0
    9.5332    5.7698  -14.1095 H   0  0  0  0  0  0  0  0  0  0  0  0
   11.2752    6.0841  -15.8071 H   0  0  0  0  0  0  0  0  0  0  0  0
   12.4302    6.7350  -14.5327 H   0  0  0  0  0  0  0  0  0  0  0  0
   12.3129    4.5602  -13.2941 H   0  0  0  0  0  0  0  0  0  0  0  0
   12.4538    3.6309  -16.3212 H   0  0  0  0  0  0  0  0  0  0  0  0
   11.7744    1.4742  -17.3393 H   0  0  0  0  0  0  0  0  0  0  0  0
    8.9154    0.8725  -14.1766 H   0  0  0  0  0  0  0  0  0  0  0  0
    9.5884    3.0264  -13.1547 H   0  0  0  0  0  0  0  0  0  0  0  0
    8.9914    8.5285   -9.8411 H   0  0  0  0  0  0  0  0  0  0  0  0
   10.5862    8.5706  -10.5543 H   0  0  0  0  0  0  0  0  0  0  0  0
   10.6966    9.4545   -8.2688 H   0  0  0  0  0  0  0  0  0  0  0  0
   11.6767    8.0299   -8.4508 H   0  0  0  0  0  0  0  0  0  0  0  0
   10.8455    6.2635   -9.8525 H   0  0  0  0  0  0  0  0  0  0  0  0
  2  1  1  1
  3  2  1  0
  4  3  2  0
  5  4  1  0
  6  5  2  0
  7  6  1  0
  8  6  1  0
  9  3  1  0
  9  8  2  0
 10  2  1  0
 11 10  1  0
 12 11  1  0
 13 12  1  0
 14 13  1  0
 15 14  1  0
 16 15  1  0
 17 15  1  0
 17 16  1  0
 18 17  1  0
 19 18  1  0
 20 19  2  0
 21 20  1  0
 22 21  1  0
 23 21  2  0
 24 18  2  0
 24 23  1  0
 25 12  1  0
 26  2  1  0
 26 25  1  0
 27  1  1  0
 28  4  1  0
 29  5  1  0
 30  8  1  0
 31  9  1  0
 32 10  1  0
 33 10  1  0
 34 11  1  0
 35 11  1  0
 36 13  1  0
 37 13  1  0
 38 14  1  0
 39 14  1  0
 15 40  1  6
 41 16  1  0
 42 16  1  0
 17 43  1  1
 44 19  1  0
 45 20  1  0
 46 23  1  0
 47 24  1  0
 48 25  1  0
 49 25  1  0
 50 26  1  0
 51 26  1  0
 12 52  1  1
M  CHG  1  12   1
M  END
>  <b_m_subgroup_collapsed>  (212) 
0

>  <r_i_docking_score>  (212) 
-8.5372264067671608

>  <s_m_subgroup_title>  (212) 
glide-dock_SP_D22_pv

>  <s_m_subgroupid>  (212) 
glide-dock_SP_D22_pv

>  <Molecule ChEMBL ID>  (212) 
CHEMBL4472382

>  <Standard Type>  (212) 
Ki

>  <Standard Value>  (212) 
1.514

>  <label>  (212) 
1

$$$$
CHEMBL574595
     RDKit          3D

 92 97  0  0  1  0  0  0  0  0999 V2000
   11.7235   11.0371   -6.0900 C   0  0  0  0  0  0  0  0  0  0  0  0
   11.0043    9.8272   -6.1551 O   0  0  0  0  0  0  0  0  0  0  0  0
   11.2636    8.9006   -5.1729 C   0  0  0  0  0  0  0  0  0  0  0  0
   11.8691    9.2406   -3.9338 C   0  0  0  0  0  0  0  0  0  0  0  0
   12.2007    8.2553   -2.9902 C   0  0  0  0  0  0  0  0  0  0  0  0
   11.9279    6.9110   -3.2711 C   0  0  0  0  0  0  0  0  0  0  0  0
   11.2860    6.5724   -4.4747 C   0  0  0  0  0  0  0  0  0  0  0  0
   10.9177    7.5503   -5.4233 C   0  0  0  0  0  0  0  0  0  0  0  0
   10.2105    7.1426   -6.5696 N   0  0  0  0  0  0  0  0  0  0  0  0
    9.0411    7.8635   -7.0729 C   0  0  0  0  0  0  0  0  0  0  0  0
    9.3448    8.5821   -8.4125 C   0  0  0  0  0  0  0  0  0  0  0  0
    9.9546    7.6667   -9.3833 N   0  0  0  0  0  0  0  0  0  0  0  0
   10.2225    8.3652  -10.6384 C   0  0  0  0  0  0  0  0  0  0  0  0
   10.4263    7.3963  -11.8265 C   0  0  0  0  0  0  0  0  0  0  0  0
   11.8863    7.2248  -12.3015 C   0  0  0  0  0  0  0  0  0  0  0  0
   11.9932    6.5756  -13.5980 N   0  0  0  0  0  0  0  0  0  0  0  0
   12.0861    5.2307  -13.8979 C   0  0  0  0  0  0  0  0  0  0  0  0
   12.3064    5.2236  -15.2472 C   0  0  0  0  0  0  0  0  0  0  0  0
   12.6388    4.0844  -16.1665 C   0  0  0  0  0  0  0  0  0  0  0  0
   11.4250    3.3548  -16.7647 C   0  0  0  0  0  0  0  0  0  0  0  0
   10.5905    2.5774  -15.7294 C   0  0  0  0  0  0  0  0  0  0  0  0
    9.6438    1.6380  -16.3886 N   0  0  1  0  0  0  0  0  0  0  0  0
   10.2667    0.3551  -16.7997 C   0  0  0  0  0  0  0  0  0  0  0  0
    9.7717   -0.0930  -18.1896 C   0  0  0  0  0  0  0  0  0  0  0  0
    8.3254    0.2289  -18.5946 C   0  0  0  0  0  0  0  0  0  0  0  0
    8.0679    0.2769  -19.9826 C   0  0  0  0  0  0  0  0  0  0  0  0
    6.7834    0.5589  -20.4742 C   0  0  0  0  0  0  0  0  0  0  0  0
    6.5357    0.5574  -21.8143 O   0  0  0  0  0  0  0  0  0  0  0  0
    5.7377    0.8358  -19.5813 C   0  0  0  0  0  0  0  0  0  0  0  0
    4.4851    1.0742  -20.0713 O   0  0  0  0  0  0  0  0  0  0  0  0
    5.9859    0.8396  -18.1961 C   0  0  0  0  0  0  0  0  0  0  0  0
    7.2597    0.4827  -17.6812 C   0  0  0  0  0  0  0  0  0  0  0  0
    7.4662    0.3186  -16.1676 C   0  0  2  0  0  0  0  0  0  0  0  0
    6.1803    0.0843  -15.3413 C   0  0  0  0  0  0  0  0  0  0  0  0
    5.9076    0.9003  -14.2146 C   0  0  0  0  0  0  0  0  0  0  0  0
    4.7235    0.7513  -13.4720 C   0  0  0  0  0  0  0  0  0  0  0  0
    3.7771   -0.2146  -13.8473 C   0  0  0  0  0  0  0  0  0  0  0  0
    4.0430   -1.0619  -14.9311 C   0  0  0  0  0  0  0  0  0  0  0  0
    5.2429   -0.9468  -15.6625 C   0  0  0  0  0  0  0  0  0  0  0  0
    5.4408   -1.9520  -16.7891 C   0  0  0  0  0  0  0  0  0  0  0  0
    8.3940    1.4364  -15.6086 C   0  0  0  0  0  0  0  0  0  0  0  0
   12.2521    6.5345  -15.7139 N   0  0  0  0  0  0  0  0  0  0  0  0
   12.0867    7.3376  -14.7127 N   0  0  0  0  0  0  0  0  0  0  0  0
   11.1986    7.1710   -8.8032 C   0  0  0  0  0  0  0  0  0  0  0  0
   10.8954    6.3230   -7.5531 C   0  0  0  0  0  0  0  0  0  0  0  0
   11.6854   11.5772   -7.0358 H   0  0  0  0  0  0  0  0  0  0  0  0
   11.2860   11.6550   -5.3082 H   0  0  0  0  0  0  0  0  0  0  0  0
   12.7789   10.8613   -5.8784 H   0  0  0  0  0  0  0  0  0  0  0  0
   12.0868   10.2594   -3.6697 H   0  0  0  0  0  0  0  0  0  0  0  0
   12.6625    8.5339   -2.0541 H   0  0  0  0  0  0  0  0  0  0  0  0
   12.1716    6.1410   -2.5529 H   0  0  0  0  0  0  0  0  0  0  0  0
   11.0247    5.5474   -4.6470 H   0  0  0  0  0  0  0  0  0  0  0  0
    8.6759    8.5759   -6.3336 H   0  0  0  0  0  0  0  0  0  0  0  0
    8.2364    7.1426   -7.2199 H   0  0  0  0  0  0  0  0  0  0  0  0
   10.0060    9.4341   -8.2605 H   0  0  0  0  0  0  0  0  0  0  0  0
    8.4182    8.9840   -8.8213 H   0  0  0  0  0  0  0  0  0  0  0  0
   11.0544    9.0645  -10.5369 H   0  0  0  0  0  0  0  0  0  0  0  0
    9.3457    8.9717  -10.8695 H   0  0  0  0  0  0  0  0  0  0  0  0
    9.8507    7.8167  -12.6467 H   0  0  0  0  0  0  0  0  0  0  0  0
    9.9679    6.4275  -11.6240 H   0  0  0  0  0  0  0  0  0  0  0  0
   12.4775    6.6570  -11.5964 H   0  0  0  0  0  0  0  0  0  0  0  0
   12.4074    8.1724  -12.3611 H   0  0  0  0  0  0  0  0  0  0  0  0
   12.0604    4.4481  -13.1558 H   0  0  0  0  0  0  0  0  0  0  0  0
   13.2848    3.3723  -15.6580 H   0  0  0  0  0  0  0  0  0  0  0  0
   13.2454    4.4635  -16.9912 H   0  0  0  0  0  0  0  0  0  0  0  0
   11.7998    2.6639  -17.5197 H   0  0  0  0  0  0  0  0  0  0  0  0
   10.7905    4.0647  -17.2961 H   0  0  0  0  0  0  0  0  0  0  0  0
   10.0389    3.2986  -15.1231 H   0  0  0  0  0  0  0  0  0  0  0  0
   11.2330    2.0255  -15.0391 H   0  0  0  0  0  0  0  0  0  0  0  0
   11.3527    0.4477  -16.8518 H   0  0  0  0  0  0  0  0  0  0  0  0
   10.1078   -0.4131  -16.0419 H   0  0  0  0  0  0  0  0  0  0  0  0
    9.9316   -1.1667  -18.3008 H   0  0  0  0  0  0  0  0  0  0  0  0
   10.4200    0.3758  -18.9335 H   0  0  0  0  0  0  0  0  0  0  0  0
    8.8613    0.0730  -20.6884 H   0  0  0  0  0  0  0  0  0  0  0  0
    5.6073    0.6794  -21.9686 H   0  0  0  0  0  0  0  0  0  0  0  0
    3.8230    1.1147  -19.3975 H   0  0  0  0  0  0  0  0  0  0  0  0
    5.1634    1.0508  -17.5287 H   0  0  0  0  0  0  0  0  0  0  0  0
    7.9835   -0.6278  -16.0413 H   0  0  0  0  0  0  0  0  0  0  0  0
    6.5763    1.6819  -13.8929 H   0  0  0  0  0  0  0  0  0  0  0  0
    4.5275    1.4131  -12.6435 H   0  0  0  0  0  0  0  0  0  0  0  0
    2.8468   -0.3147  -13.3077 H   0  0  0  0  0  0  0  0  0  0  0  0
    3.3173   -1.8194  -15.2003 H   0  0  0  0  0  0  0  0  0  0  0  0
    5.0396   -2.9261  -16.5049 H   0  0  0  0  0  0  0  0  0  0  0  0
    4.9081   -1.6291  -17.6856 H   0  0  0  0  0  0  0  0  0  0  0  0
    6.4855   -2.1006  -17.0467 H   0  0  0  0  0  0  0  0  0  0  0  0
    7.8611    2.3884  -15.5995 H   0  0  0  0  0  0  0  0  0  0  0  0
    8.6686    1.1985  -14.5798 H   0  0  0  0  0  0  0  0  0  0  0  0
   11.6860    6.5720   -9.5583 H   0  0  0  0  0  0  0  0  0  0  0  0
   11.8731    7.9937   -8.5576 H   0  0  0  0  0  0  0  0  0  0  0  0
   11.8169    5.9188   -7.1320 H   0  0  0  0  0  0  0  0  0  0  0  0
   10.2652    5.4725   -7.8145 H   0  0  0  0  0  0  0  0  0  0  0  0
    9.3555    2.0881  -17.2455 H   0  0  0  0  0  0  0  0  0  0  0  0
  2  1  1  0
  3  2  1  0
  4  3  2  0
  5  4  1  0
  6  5  2  0
  7  6  1  0
  8  3  1  0
  8  7  2  0
  9  8  1  0
 10  9  1  0
 11 10  1  0
 12 11  1  0
 13 12  1  0
 14 13  1  0
 15 14  1  0
 16 15  1  0
 17 16  1  0
 18 17  2  0
 19 18  1  0
 20 19  1  0
 21 20  1  0
 22 21  1  0
 23 22  1  0
 24 23  1  0
 25 24  1  0
 26 25  1  0
 27 26  2  0
 28 27  1  0
 29 27  1  0
 30 29  1  0
 31 29  2  0
 32 25  2  0
 32 31  1  0
 33 32  1  0
 34 33  1  0
 35 34  2  0
 36 35  1  0
 37 36  2  0
 38 37  1  0
 39 34  1  0
 39 38  2  0
 40 39  1  0
 41 22  1  0
 41 33  1  0
 42 18  1  0
 43 16  1  0
 43 42  2  0
 44 12  1  0
 45  9  1  0
 45 44  1  0
 46  1  1  0
 47  1  1  0
 48  1  1  0
 49  4  1  0
 50  5  1  0
 51  6  1  0
 52  7  1  0
 53 10  1  0
 54 10  1  0
 55 11  1  0
 56 11  1  0
 57 13  1  0
 58 13  1  0
 59 14  1  0
 60 14  1  0
 61 15  1  0
 62 15  1  0
 63 17  1  0
 64 19  1  0
 65 19  1  0
 66 20  1  0
 67 20  1  0
 68 21  1  0
 69 21  1  0
 70 23  1  0
 71 23  1  0
 72 24  1  0
 73 24  1  0
 74 26  1  0
 75 28  1  0
 76 30  1  0
 77 31  1  0
 33 78  1  6
 79 35  1  0
 80 36  1  0
 81 37  1  0
 82 38  1  0
 83 40  1  0
 84 40  1  0
 85 40  1  0
 86 41  1  0
 87 41  1  0
 88 44  1  0
 89 44  1  0
 90 45  1  0
 91 45  1  0
 22 92  1  6
M  CHG  1  22   1
M  END
>  <b_m_subgroup_collapsed>  (213) 
0

>  <r_i_docking_score>  (213) 
-8.5344488641693008

>  <s_m_subgroup_title>  (213) 
glide-dock_SP_D22_pv

>  <s_m_subgroupid>  (213) 
glide-dock_SP_D22_pv

>  <Molecule ChEMBL ID>  (213) 
CHEMBL574595

>  <Standard Type>  (213) 
Ki

>  <Standard Value>  (213) 
39.1

>  <label>  (213) 
1

$$$$
CHEMBL3818994
     RDKit          3D

 43 45  0  0  1  0  0  0  0  0999 V2000
   10.7258    8.8212   -7.1723 O   0  0  0  0  0  0  0  0  0  0  0  0
   10.8500    7.8834   -6.3843 C   0  0  0  0  0  0  0  0  0  0  0  0
   10.4480    6.4628   -6.8089 C   0  0  0  0  0  0  0  0  0  0  0  0
   10.2703    6.2274   -8.3155 C   0  0  0  0  0  0  0  0  0  0  0  0
    8.9904    6.8324   -8.9359 C   0  0  0  0  0  0  0  0  0  0  0  0
    8.8769    6.5738  -10.3928 N   0  0  2  0  0  0  0  0  0  0  0  0
    8.6033    5.1514  -10.7349 C   0  0  0  0  0  0  0  0  0  0  0  0
    8.4545    4.9522  -12.2444 C   0  0  0  0  0  0  0  0  0  0  0  0
    9.7229    5.3920  -12.9352 C   0  0  0  0  0  0  0  0  0  0  0  0
   10.2228    4.6835  -14.0457 C   0  0  0  0  0  0  0  0  0  0  0  0
   11.4198    5.0977  -14.6591 C   0  0  0  0  0  0  0  0  0  0  0  0
   12.1150    6.2151  -14.1604 C   0  0  0  0  0  0  0  0  0  0  0  0
   11.6226    6.9184  -13.0447 C   0  0  0  0  0  0  0  0  0  0  0  0
   10.4181    6.5136  -12.4294 C   0  0  0  0  0  0  0  0  0  0  0  0
    9.8629    7.3033  -11.2467 C   0  0  0  0  0  0  0  0  0  0  0  0
   11.3746    8.0497   -4.9972 C   0  0  0  0  0  0  0  0  0  0  0  0
   11.6860    6.9371   -4.1749 C   0  0  0  0  0  0  0  0  0  0  0  0
   12.1861    7.1176   -2.8740 C   0  0  0  0  0  0  0  0  0  0  0  0
   12.3925    8.4140   -2.3779 C   0  0  0  0  0  0  0  0  0  0  0  0
   12.8862    8.5864   -1.1336 F   0  0  0  0  0  0  0  0  0  0  0  0
   12.0855    9.5277   -3.1773 C   0  0  0  0  0  0  0  0  0  0  0  0
   11.5887    9.3503   -4.4839 C   0  0  0  0  0  0  0  0  0  0  0  0
    9.5477    6.1720   -6.2675 H   0  0  0  0  0  0  0  0  0  0  0  0
   11.2435    5.7893   -6.4995 H   0  0  0  0  0  0  0  0  0  0  0  0
   10.2703    5.1483   -8.4636 H   0  0  0  0  0  0  0  0  0  0  0  0
   11.1612    6.5900   -8.8274 H   0  0  0  0  0  0  0  0  0  0  0  0
    8.9547    7.9110   -8.7835 H   0  0  0  0  0  0  0  0  0  0  0  0
    8.0921    6.4378   -8.4475 H   0  0  0  0  0  0  0  0  0  0  0  0
    7.6867    4.8282  -10.2385 H   0  0  0  0  0  0  0  0  0  0  0  0
    9.4087    4.5101  -10.3770 H   0  0  0  0  0  0  0  0  0  0  0  0
    7.6139    5.5305  -12.6307 H   0  0  0  0  0  0  0  0  0  0  0  0
    8.2522    3.9028  -12.4643 H   0  0  0  0  0  0  0  0  0  0  0  0
    9.6951    3.8223  -14.4291 H   0  0  0  0  0  0  0  0  0  0  0  0
   11.8066    4.5572  -15.5103 H   0  0  0  0  0  0  0  0  0  0  0  0
   13.0369    6.5284  -14.6290 H   0  0  0  0  0  0  0  0  0  0  0  0
   12.1690    7.7727  -12.6720 H   0  0  0  0  0  0  0  0  0  0  0  0
   10.6973    7.6810  -10.6580 H   0  0  0  0  0  0  0  0  0  0  0  0
    9.3606    8.1872  -11.6403 H   0  0  0  0  0  0  0  0  0  0  0  0
   11.5404    5.9206   -4.5033 H   0  0  0  0  0  0  0  0  0  0  0  0
   12.4131    6.2592   -2.2584 H   0  0  0  0  0  0  0  0  0  0  0  0
   12.2267   10.5219   -2.7801 H   0  0  0  0  0  0  0  0  0  0  0  0
   11.3642   10.2215   -5.0833 H   0  0  0  0  0  0  0  0  0  0  0  0
    7.9853    7.0296  -10.6022 H   0  0  0  0  0  0  0  0  0  0  0  0
  2  1  2  0
  3  2  1  0
  4  3  1  0
  5  4  1  0
  6  5  1  0
  7  6  1  0
  8  7  1  0
  9  8  1  0
 10  9  2  0
 11 10  1  0
 12 11  2  0
 13 12  1  0
 14  9  1  0
 14 13  2  0
 15  6  1  0
 15 14  1  0
 16  2  1  0
 17 16  1  0
 18 17  2  0
 19 18  1  0
 20 19  1  0
 21 19  2  0
 22 16  2  0
 22 21  1  0
 23  3  1  0
 24  3  1  0
 25  4  1  0
 26  4  1  0
 27  5  1  0
 28  5  1  0
 29  7  1  0
 30  7  1  0
 31  8  1  0
 32  8  1  0
 33 10  1  0
 34 11  1  0
 35 12  1  0
 36 13  1  0
 37 15  1  0
 38 15  1  0
 39 17  1  0
 40 18  1  0
 41 21  1  0
 42 22  1  0
  6 43  1  6
M  CHG  1   6   1
M  END
>  <b_m_subgroup_collapsed>  (214) 
0

>  <r_i_docking_score>  (214) 
-8.5325177437414208

>  <s_m_subgroup_title>  (214) 
glide-dock_SP_D22_pv

>  <s_m_subgroupid>  (214) 
glide-dock_SP_D22_pv

>  <Molecule ChEMBL ID>  (214) 
CHEMBL3818994

>  <Standard Type>  (214) 
Ki

>  <Standard Value>  (214) 
49.0

>  <label>  (214) 
1

$$$$
CHEMBL351550
     RDKit          3D

 56 60  0  0  1  0  0  0  0  0999 V2000
   12.0756    6.8713  -12.9015 C   0  0  0  0  0  0  0  0  0  0  0  0
   10.7444    6.1705  -12.9152 C   0  0  0  0  0  0  0  0  0  0  0  0
   10.5861    5.0605  -13.6010 N   0  0  0  0  0  0  0  0  0  0  0  0
    9.2583    4.7323  -13.4535 N   0  0  0  0  0  0  0  0  0  0  0  0
    8.6069    3.6639  -14.0180 C   0  0  0  0  0  0  0  0  0  0  0  0
    9.3225    2.6983  -14.8824 C   0  0  0  0  0  0  0  0  0  0  0  0
    9.2017    1.3098  -14.6475 C   0  0  0  0  0  0  0  0  0  0  0  0
    9.8661    0.3752  -15.4644 C   0  0  0  0  0  0  0  0  0  0  0  0
   10.6629    0.8167  -16.5352 C   0  0  0  0  0  0  0  0  0  0  0  0
   10.7923    2.1957  -16.7855 C   0  0  0  0  0  0  0  0  0  0  0  0
   10.1223    3.1267  -15.9671 C   0  0  0  0  0  0  0  0  0  0  0  0
    7.2603    3.5087  -13.7461 C   0  0  0  0  0  0  0  0  0  0  0  0
    6.5772    4.4109  -12.8942 C   0  0  0  0  0  0  0  0  0  0  0  0
    7.2367    5.4745  -12.3293 C   0  0  0  0  0  0  0  0  0  0  0  0
    8.6159    5.6617  -12.6099 C   0  0  0  0  0  0  0  0  0  0  0  0
    9.5567    6.5896  -12.2470 C   0  0  0  0  0  0  0  0  0  0  0  0
    9.3752    7.8078  -11.3885 C   0  0  0  0  0  0  0  0  0  0  0  0
    9.2863    7.5003   -9.9391 N   0  0  0  0  0  0  0  0  0  0  0  0
   10.3861    6.6166   -9.4528 C   0  0  0  0  0  0  0  0  0  0  0  0
   10.3520    6.3846   -7.9346 C   0  0  0  0  0  0  0  0  0  0  0  0
   10.1971    7.6534   -7.2380 N   0  0  0  0  0  0  0  0  0  0  0  0
   10.7935    7.8704   -5.9814 C   0  0  0  0  0  0  0  0  0  0  0  0
   11.0091    9.1870   -5.5091 C   0  0  0  0  0  0  0  0  0  0  0  0
   11.5559    9.4094   -4.2304 C   0  0  0  0  0  0  0  0  0  0  0  0
   11.9017    8.3186   -3.4156 C   0  0  0  0  0  0  0  0  0  0  0  0
   12.4871    8.5750   -1.8217 Cl  0  0  0  0  0  0  0  0  0  0  0  0
   11.7286    7.0057   -3.8846 C   0  0  0  0  0  0  0  0  0  0  0  0
   11.1846    6.7885   -5.1616 C   0  0  0  0  0  0  0  0  0  0  0  0
    9.0452    8.4468   -7.6460 C   0  0  0  0  0  0  0  0  0  0  0  0
    9.1613    8.7498   -9.1419 C   0  0  0  0  0  0  0  0  0  0  0  0
   12.0504    7.7712  -13.5185 H   0  0  0  0  0  0  0  0  0  0  0  0
   12.3555    7.1764  -11.8940 H   0  0  0  0  0  0  0  0  0  0  0  0
   12.8851    6.2425  -13.2832 H   0  0  0  0  0  0  0  0  0  0  0  0
    8.5951    0.9505  -13.8304 H   0  0  0  0  0  0  0  0  0  0  0  0
    9.7588   -0.6818  -15.2697 H   0  0  0  0  0  0  0  0  0  0  0  0
   11.1741    0.1028  -17.1646 H   0  0  0  0  0  0  0  0  0  0  0  0
   11.4023    2.5435  -17.6068 H   0  0  0  0  0  0  0  0  0  0  0  0
   10.2295    4.1813  -16.1751 H   0  0  0  0  0  0  0  0  0  0  0  0
    6.7205    2.6763  -14.1850 H   0  0  0  0  0  0  0  0  0  0  0  0
    5.5223    4.2636  -12.6836 H   0  0  0  0  0  0  0  0  0  0  0  0
    6.7188    6.1722  -11.6761 H   0  0  0  0  0  0  0  0  0  0  0  0
   10.1961    8.5072  -11.5471 H   0  0  0  0  0  0  0  0  0  0  0  0
    8.4687    8.3369  -11.6887 H   0  0  0  0  0  0  0  0  0  0  0  0
   10.3504    5.6454   -9.9463 H   0  0  0  0  0  0  0  0  0  0  0  0
   11.3414    7.0762   -9.7150 H   0  0  0  0  0  0  0  0  0  0  0  0
    9.5222    5.7273   -7.6702 H   0  0  0  0  0  0  0  0  0  0  0  0
   11.2695    5.8782   -7.6366 H   0  0  0  0  0  0  0  0  0  0  0  0
   10.7524   10.0431   -6.1169 H   0  0  0  0  0  0  0  0  0  0  0  0
   11.6796   10.4169   -3.8678 H   0  0  0  0  0  0  0  0  0  0  0  0
   11.9902    6.1659   -3.2564 H   0  0  0  0  0  0  0  0  0  0  0  0
   11.0367    5.7726   -5.4784 H   0  0  0  0  0  0  0  0  0  0  0  0
    8.1237    7.8934   -7.4420 H   0  0  0  0  0  0  0  0  0  0  0  0
    8.9638    9.3721   -7.0852 H   0  0  0  0  0  0  0  0  0  0  0  0
   10.0395    9.3737   -9.3143 H   0  0  0  0  0  0  0  0  0  0  0  0
    8.2985    9.3289   -9.4735 H   0  0  0  0  0  0  0  0  0  0  0  0
    8.4080    7.0111   -9.8017 H   0  0  0  0  0  0  0  0  0  0  0  0
  2  1  1  0
  3  2  2  0
  4  3  1  0
  5  4  1  0
  6  5  1  0
  7  6  2  0
  8  7  1  0
  9  8  2  0
 10  9  1  0
 11  6  1  0
 11 10  2  0
 12  5  2  0
 13 12  1  0
 14 13  2  0
 15  4  1  0
 15 14  1  0
 16  2  1  0
 16 15  2  0
 17 16  1  0
 18 17  1  0
 19 18  1  0
 20 19  1  0
 21 20  1  0
 22 21  1  0
 23 22  1  0
 24 23  2  0
 25 24  1  0
 26 25  1  0
 27 25  2  0
 28 22  2  0
 28 27  1  0
 29 21  1  0
 30 18  1  0
 30 29  1  0
 31  1  1  0
 32  1  1  0
 33  1  1  0
 34  7  1  0
 35  8  1  0
 36  9  1  0
 37 10  1  0
 38 11  1  0
 39 12  1  0
 40 13  1  0
 41 14  1  0
 42 17  1  0
 43 17  1  0
 44 19  1  0
 45 19  1  0
 46 20  1  0
 47 20  1  0
 48 23  1  0
 49 24  1  0
 50 27  1  0
 51 28  1  0
 52 29  1  0
 53 29  1  0
 54 30  1  0
 55 30  1  0
 56 18  1  0
M  CHG  1  18   1
M  END
>  <b_m_subgroup_collapsed>  (215) 
0

>  <r_i_docking_score>  (215) 
-8.5323296107934308

>  <s_m_subgroup_title>  (215) 
glide-dock_SP_D22_pv

>  <s_m_subgroupid>  (215) 
glide-dock_SP_D22_pv

>  <Molecule ChEMBL ID>  (215) 
CHEMBL351550

>  <Standard Type>  (215) 
Ki

>  <Standard Value>  (215) 
24000.0

>  <label>  (215) 
0

$$$$
CHEMBL1834258
     RDKit          3D

 55 58  0  0  1  0  0  0  0  0999 V2000
   12.4856    7.2236   -2.3074 C   0  0  0  0  0  0  0  0  0  0  0  0
   12.4868    8.5904   -1.9816 C   0  0  0  0  0  0  0  0  0  0  0  0
   12.0593    9.5409   -2.9250 C   0  0  0  0  0  0  0  0  0  0  0  0
   11.6200    9.1356   -4.2007 C   0  0  0  0  0  0  0  0  0  0  0  0
   11.0610   10.1665   -5.1714 C   0  0  0  0  0  0  0  0  0  0  0  0
   11.5890   10.0042   -6.6039 C   0  0  0  0  0  0  0  0  0  0  0  0
   10.6815    9.1364   -7.5010 C   0  0  0  0  0  0  0  0  0  0  0  0
   11.4943    8.3162   -8.5241 C   0  0  0  0  0  0  0  0  0  0  0  0
   10.7033    7.5095   -9.4559 N   0  0  0  0  0  0  0  0  0  0  0  0
    9.9662    8.3256  -10.4205 C   0  0  0  0  0  0  0  0  0  0  0  0
    9.3791    7.4135  -11.5122 C   0  0  0  0  0  0  0  0  0  0  0  0
    8.4861    6.3965  -10.9064 N   0  0  0  0  0  0  0  0  0  0  0  0
    7.7541    5.5597  -11.8868 C   0  0  0  0  0  0  0  0  0  0  0  0
    8.6404    4.8527  -12.8671 C   0  0  0  0  0  0  0  0  0  0  0  0
    9.4787    3.7722  -12.7295 C   0  0  0  0  0  0  0  0  0  0  0  0
   10.0188    3.5161  -14.0306 C   0  0  0  0  0  0  0  0  0  0  0  0
   10.8871    2.5690  -14.6164 C   0  0  0  0  0  0  0  0  0  0  0  0
   11.2132    2.6347  -15.9882 C   0  0  0  0  0  0  0  0  0  0  0  0
   10.6659    3.6463  -16.8050 C   0  0  0  0  0  0  0  0  0  0  0  0
    9.7857    4.5952  -16.2502 C   0  0  0  0  0  0  0  0  0  0  0  0
    9.4831    4.5131  -14.8807 C   0  0  0  0  0  0  0  0  0  0  0  0
    8.6418    5.3298  -14.1521 O   0  0  0  0  0  0  0  0  0  0  0  0
    9.1875    5.6283   -9.8482 C   0  0  0  0  0  0  0  0  0  0  0  0
    9.7803    6.5826   -8.7963 C   0  0  0  0  0  0  0  0  0  0  0  0
   11.6674    7.7643   -4.5357 C   0  0  0  0  0  0  0  0  0  0  0  0
   12.0859    6.8161   -3.5888 C   0  0  0  0  0  0  0  0  0  0  0  0
   12.8079    6.4864   -1.5862 H   0  0  0  0  0  0  0  0  0  0  0  0
   12.8152    8.9190   -1.0100 H   0  0  0  0  0  0  0  0  0  0  0  0
   12.0428   10.5844   -2.6457 H   0  0  0  0  0  0  0  0  0  0  0  0
    9.9757   10.1324   -5.1471 H   0  0  0  0  0  0  0  0  0  0  0  0
   11.2858   11.1672   -4.8135 H   0  0  0  0  0  0  0  0  0  0  0  0
   11.6719   10.9953   -7.0468 H   0  0  0  0  0  0  0  0  0  0  0  0
   12.6111    9.6214   -6.5757 H   0  0  0  0  0  0  0  0  0  0  0  0
   10.0891    8.4648   -6.8828 H   0  0  0  0  0  0  0  0  0  0  0  0
    9.9498    9.7721   -7.9955 H   0  0  0  0  0  0  0  0  0  0  0  0
   12.1439    8.9772   -9.0995 H   0  0  0  0  0  0  0  0  0  0  0  0
   12.1601    7.6437   -7.9819 H   0  0  0  0  0  0  0  0  0  0  0  0
    9.1741    8.8966   -9.9323 H   0  0  0  0  0  0  0  0  0  0  0  0
   10.6518    9.0362  -10.8805 H   0  0  0  0  0  0  0  0  0  0  0  0
    8.8145    8.0137  -12.2270 H   0  0  0  0  0  0  0  0  0  0  0  0
   10.1876    6.9319  -12.0653 H   0  0  0  0  0  0  0  0  0  0  0  0
    7.1353    4.8349  -11.3562 H   0  0  0  0  0  0  0  0  0  0  0  0
    7.0559    6.2050  -12.4220 H   0  0  0  0  0  0  0  0  0  0  0  0
    9.6856    3.1877  -11.8458 H   0  0  0  0  0  0  0  0  0  0  0  0
   11.2972    1.7818  -14.0016 H   0  0  0  0  0  0  0  0  0  0  0  0
   11.8854    1.9036  -16.4143 H   0  0  0  0  0  0  0  0  0  0  0  0
   10.9185    3.6899  -17.8545 H   0  0  0  0  0  0  0  0  0  0  0  0
    9.3529    5.3711  -16.8633 H   0  0  0  0  0  0  0  0  0  0  0  0
    8.4878    4.9427   -9.3680 H   0  0  0  0  0  0  0  0  0  0  0  0
    9.9852    5.0248  -10.2822 H   0  0  0  0  0  0  0  0  0  0  0  0
   10.3151    6.0071   -8.0393 H   0  0  0  0  0  0  0  0  0  0  0  0
    8.9771    7.1211   -8.2895 H   0  0  0  0  0  0  0  0  0  0  0  0
   11.3507    7.4098   -5.5024 H   0  0  0  0  0  0  0  0  0  0  0  0
   12.0856    5.7718   -3.8495 H   0  0  0  0  0  0  0  0  0  0  0  0
    7.7505    6.9348  -10.4397 H   0  0  0  0  0  0  0  0  0  0  0  0
  2  1  2  0
  3  2  1  0
  4  3  2  0
  5  4  1  0
  6  5  1  0
  7  6  1  0
  8  7  1  0
  9  8  1  0
 10  9  1  0
 11 10  1  0
 12 11  1  0
 13 12  1  0
 14 13  1  0
 15 14  2  0
 16 15  1  0
 17 16  2  0
 18 17  1  0
 19 18  2  0
 20 19  1  0
 21 16  1  0
 21 20  2  0
 22 14  1  0
 22 21  1  0
 23 12  1  0
 24  9  1  0
 24 23  1  0
 25  4  1  0
 26  1  1  0
 26 25  2  0
 27  1  1  0
 28  2  1  0
 29  3  1  0
 30  5  1  0
 31  5  1  0
 32  6  1  0
 33  6  1  0
 34  7  1  0
 35  7  1  0
 36  8  1  0
 37  8  1  0
 38 10  1  0
 39 10  1  0
 40 11  1  0
 41 11  1  0
 42 13  1  0
 43 13  1  0
 44 15  1  0
 45 17  1  0
 46 18  1  0
 47 19  1  0
 48 20  1  0
 49 23  1  0
 50 23  1  0
 51 24  1  0
 52 24  1  0
 53 25  1  0
 54 26  1  0
 55 12  1  0
M  CHG  1  12   1
M  END
>  <b_m_subgroup_collapsed>  (216) 
0

>  <r_i_docking_score>  (216) 
-8.5303820431911106

>  <s_m_subgroup_title>  (216) 
glide-dock_SP_D22_pv

>  <s_m_subgroupid>  (216) 
glide-dock_SP_D22_pv

>  <Molecule ChEMBL ID>  (216) 
CHEMBL1834258

>  <Standard Type>  (216) 
Ki

>  <Standard Value>  (216) 
89.0

>  <label>  (216) 
1

$$$$
CHEMBL4870307
     RDKit          3D

 73 77  0  0  1  0  0  0  0  0999 V2000
   10.6567    0.2835  -15.8730 C   0  0  0  0  0  0  0  0  0  0  0  0
   10.1444    1.3983  -15.1552 O   0  0  0  0  0  0  0  0  0  0  0  0
    8.8083    1.3958  -14.8114 C   0  0  0  0  0  0  0  0  0  0  0  0
    7.9571    0.2824  -15.0159 C   0  0  0  0  0  0  0  0  0  0  0  0
    6.5852    0.3449  -14.7045 C   0  0  0  0  0  0  0  0  0  0  0  0
    5.6485   -0.8148  -15.0394 C   0  0  0  0  0  0  0  0  0  0  0  0
    5.1933   -0.7797  -16.4570 N   0  0  0  0  0  0  0  0  0  0  0  0
    6.2307   -1.2173  -17.4354 C   0  0  0  0  0  0  0  0  0  0  0  0
    5.7610   -1.0355  -18.8869 C   0  0  0  0  0  0  0  0  0  0  0  0
    4.4427   -1.7752  -19.1332 C   0  0  0  0  0  0  0  0  0  0  0  0
    3.4067   -1.3237  -18.1014 C   0  0  0  0  0  0  0  0  0  0  0  0
    3.9216   -1.5227  -16.6645 C   0  0  0  0  0  0  0  0  0  0  0  0
    6.0860    1.5069  -14.0885 C   0  0  0  0  0  0  0  0  0  0  0  0
    6.9206    2.6167  -13.8565 C   0  0  0  0  0  0  0  0  0  0  0  0
    8.2863    2.5784  -14.2415 C   0  0  0  0  0  0  0  0  0  0  0  0
    9.1729    3.6249  -14.0721 O   0  0  0  0  0  0  0  0  0  0  0  0
    8.7178    4.8788  -13.5829 C   0  0  0  0  0  0  0  0  0  0  0  0
    8.8999    5.0057  -12.0582 C   0  0  0  0  0  0  0  0  0  0  0  0
    8.2852    6.3238  -11.5540 C   0  0  0  0  0  0  0  0  0  0  0  0
    8.8861    6.9101  -10.3252 N   0  0  2  0  0  0  0  0  0  0  0  0
   10.2740    7.4119  -10.5046 C   0  0  0  0  0  0  0  0  0  0  0  0
   10.7203    8.2701   -9.3093 C   0  0  0  0  0  0  0  0  0  0  0  0
   10.5496    7.5474   -7.9486 C   0  0  1  0  0  0  0  0  0  0  0  0
   10.9298    8.4430   -6.7760 C   0  0  0  0  0  0  0  0  0  0  0  0
   10.8858    9.7708   -6.8899 N   0  0  0  0  0  0  0  0  0  0  0  0
   11.2663   10.3467   -5.6506 O   0  0  0  0  0  0  0  0  0  0  0  0
   11.5343    9.3382   -4.7504 C   0  0  0  0  0  0  0  0  0  0  0  0
   11.9401    9.3843   -3.4111 C   0  0  0  0  0  0  0  0  0  0  0  0
   12.1307    8.1639   -2.7403 C   0  0  0  0  0  0  0  0  0  0  0  0
   12.5256    8.1718   -1.4476 F   0  0  0  0  0  0  0  0  0  0  0  0
   11.9094    6.9385   -3.4157 C   0  0  0  0  0  0  0  0  0  0  0  0
   11.4902    6.9183   -4.7683 C   0  0  0  0  0  0  0  0  0  0  0  0
   11.3116    8.1441   -5.4450 C   0  0  0  0  0  0  0  0  0  0  0  0
    9.1098    7.0023   -7.8457 C   0  0  0  0  0  0  0  0  0  0  0  0
    8.7263    6.1326   -9.0704 C   0  0  0  0  0  0  0  0  0  0  0  0
   11.6850    0.4870  -16.1669 H   0  0  0  0  0  0  0  0  0  0  0  0
   10.6540   -0.6192  -15.2597 H   0  0  0  0  0  0  0  0  0  0  0  0
   10.0926    0.1009  -16.7880 H   0  0  0  0  0  0  0  0  0  0  0  0
    8.3425   -0.6275  -15.4439 H   0  0  0  0  0  0  0  0  0  0  0  0
    6.0983   -1.7795  -14.8073 H   0  0  0  0  0  0  0  0  0  0  0  0
    4.7837   -0.7367  -14.3791 H   0  0  0  0  0  0  0  0  0  0  0  0
    7.1447   -0.6409  -17.3144 H   0  0  0  0  0  0  0  0  0  0  0  0
    6.4848   -2.2626  -17.2598 H   0  0  0  0  0  0  0  0  0  0  0  0
    5.6342    0.0258  -19.1084 H   0  0  0  0  0  0  0  0  0  0  0  0
    6.5242   -1.4060  -19.5722 H   0  0  0  0  0  0  0  0  0  0  0  0
    4.0805   -1.5843  -20.1431 H   0  0  0  0  0  0  0  0  0  0  0  0
    4.5937   -2.8536  -19.0554 H   0  0  0  0  0  0  0  0  0  0  0  0
    3.1699   -0.2723  -18.2654 H   0  0  0  0  0  0  0  0  0  0  0  0
    2.4861   -1.8810  -18.2489 H   0  0  0  0  0  0  0  0  0  0  0  0
    4.0862   -2.5839  -16.4648 H   0  0  0  0  0  0  0  0  0  0  0  0
    3.1603   -1.1822  -15.9616 H   0  0  0  0  0  0  0  0  0  0  0  0
    5.0412    1.5724  -13.8190 H   0  0  0  0  0  0  0  0  0  0  0  0
    6.4832    3.4804  -13.3793 H   0  0  0  0  0  0  0  0  0  0  0  0
    9.3371    5.6369  -14.0616 H   0  0  0  0  0  0  0  0  0  0  0  0
    7.7022    5.1166  -13.8998 H   0  0  0  0  0  0  0  0  0  0  0  0
    8.4283    4.1689  -11.5430 H   0  0  0  0  0  0  0  0  0  0  0  0
    9.9625    4.9498  -11.8295 H   0  0  0  0  0  0  0  0  0  0  0  0
    8.3582    7.0862  -12.3303 H   0  0  0  0  0  0  0  0  0  0  0  0
    7.2178    6.1725  -11.4061 H   0  0  0  0  0  0  0  0  0  0  0  0
   10.9581    6.5737  -10.6201 H   0  0  0  0  0  0  0  0  0  0  0  0
   10.3398    8.0041  -11.4178 H   0  0  0  0  0  0  0  0  0  0  0  0
   11.7581    8.5752   -9.4423 H   0  0  0  0  0  0  0  0  0  0  0  0
   10.1290    9.1876   -9.3206 H   0  0  0  0  0  0  0  0  0  0  0  0
   11.2247    6.6921   -7.9455 H   0  0  0  0  0  0  0  0  0  0  0  0
   12.0904   10.3273   -2.9062 H   0  0  0  0  0  0  0  0  0  0  0  0
   12.0531    6.0069   -2.8860 H   0  0  0  0  0  0  0  0  0  0  0  0
   11.3216    5.9783   -5.2751 H   0  0  0  0  0  0  0  0  0  0  0  0
    8.9993    6.4167   -6.9317 H   0  0  0  0  0  0  0  0  0  0  0  0
    8.4162    7.8373   -7.7549 H   0  0  0  0  0  0  0  0  0  0  0  0
    7.6910    5.8007   -8.9750 H   0  0  0  0  0  0  0  0  0  0  0  0
    9.3460    5.2355   -9.1103 H   0  0  0  0  0  0  0  0  0  0  0  0
    4.9863    0.1865  -16.6608 H   0  0  0  0  0  0  0  0  0  0  0  0
    8.2801    7.7152  -10.1810 H   0  0  0  0  0  0  0  0  0  0  0  0
  2  1  1  0
  3  2  1  0
  4  3  1  0
  5  4  2  0
  6  5  1  0
  7  6  1  0
  8  7  1  0
  9  8  1  0
 10  9  1  0
 11 10  1  0
 12  7  1  0
 12 11  1  0
 13  5  1  0
 14 13  2  0
 15  3  2  0
 15 14  1  0
 16 15  1  0
 17 16  1  0
 18 17  1  0
 19 18  1  0
 20 19  1  0
 21 20  1  0
 22 21  1  0
 23 22  1  0
 24 23  1  0
 25 24  2  0
 26 25  1  0
 27 26  1  0
 28 27  2  0
 29 28  1  0
 30 29  1  0
 31 29  2  0
 32 31  1  0
 33 24  1  0
 33 27  1  0
 33 32  2  0
 34 23  1  0
 35 20  1  0
 35 34  1  0
 36  1  1  0
 37  1  1  0
 38  1  1  0
 39  4  1  0
 40  6  1  0
 41  6  1  0
 42  8  1  0
 43  8  1  0
 44  9  1  0
 45  9  1  0
 46 10  1  0
 47 10  1  0
 48 11  1  0
 49 11  1  0
 50 12  1  0
 51 12  1  0
 52 13  1  0
 53 14  1  0
 54 17  1  0
 55 17  1  0
 56 18  1  0
 57 18  1  0
 58 19  1  0
 59 19  1  0
 60 21  1  0
 61 21  1  0
 62 22  1  0
 63 22  1  0
 23 64  1  6
 65 28  1  0
 66 31  1  0
 67 32  1  0
 68 34  1  0
 69 34  1  0
 70 35  1  0
 71 35  1  0
 72  7  1  0
 20 73  1  1
M  CHG  2   7   1  20   1
M  END
>  <b_m_subgroup_collapsed>  (217) 
0

>  <r_i_docking_score>  (217) 
-8.5216114167849

>  <s_m_subgroup_title>  (217) 
glide-dock_SP_D22_pv

>  <s_m_subgroupid>  (217) 
glide-dock_SP_D22_pv

>  <Molecule ChEMBL ID>  (217) 
CHEMBL4870307

>  <Standard Type>  (217) 
Ki

>  <Standard Value>  (217) 
9.5

>  <label>  (217) 
1

$$$$
CHEMBL3104648
     RDKit          3D

 57 60  0  0  1  0  0  0  0  0999 V2000
   10.3881    2.4028  -14.7805 C   0  0  0  0  0  0  0  0  0  0  0  0
    9.9234    3.5035  -14.0138 O   0  0  0  0  0  0  0  0  0  0  0  0
    8.5830    3.5635  -13.6864 C   0  0  0  0  0  0  0  0  0  0  0  0
    7.6154    2.6908  -14.2498 C   0  0  0  0  0  0  0  0  0  0  0  0
    6.2698    2.7418  -13.8424 C   0  0  0  0  0  0  0  0  0  0  0  0
    5.8565    3.6846  -12.8874 C   0  0  0  0  0  0  0  0  0  0  0  0
    6.8016    4.5563  -12.3205 C   0  0  0  0  0  0  0  0  0  0  0  0
    8.1601    4.5019  -12.7054 C   0  0  0  0  0  0  0  0  0  0  0  0
    9.0427    5.3650  -12.0379 N   0  0  0  0  0  0  0  0  0  0  0  0
   10.1758    5.9988  -12.6881 C   0  0  0  0  0  0  0  0  0  0  0  0
   10.4806    7.3333  -11.9753 C   0  0  0  0  0  0  0  0  0  0  0  0
   10.7298    7.1529  -10.5369 N   0  0  0  0  0  0  0  0  0  0  0  0
   10.8773    8.4771   -9.9220 C   0  0  0  0  0  0  0  0  0  0  0  0
   11.4093    8.4405   -8.4693 C   0  0  0  0  0  0  0  0  0  0  0  0
   10.4065    8.9881   -7.4101 C   0  0  1  0  0  0  0  0  0  0  0  0
    9.4028    7.9381   -6.9076 C   0  0  0  0  0  0  0  0  0  0  0  0
   10.1207    6.8242   -6.1311 C   0  0  0  0  0  0  0  0  0  0  0  0
   11.0245    7.4029   -5.0544 C   0  0  0  0  0  0  0  0  0  0  0  0
   11.4414    6.5718   -4.0091 C   0  0  0  0  0  0  0  0  0  0  0  0
   12.0886    7.0766   -2.8740 C   0  0  0  0  0  0  0  0  0  0  0  0
   12.3106    8.4569   -2.7759 C   0  0  0  0  0  0  0  0  0  0  0  0
   12.8857    8.9719   -1.6187 N   0  0  0  0  0  0  0  0  0  0  0  0
   11.9517    9.3001   -3.8470 C   0  0  0  0  0  0  0  0  0  0  0  0
   11.3688    8.7713   -5.0222 C   0  0  0  0  0  0  0  0  0  0  0  0
   11.1119    9.6391   -6.2003 C   0  0  0  0  0  0  0  0  0  0  0  0
   11.4524   10.8190   -6.2472 O   0  0  0  0  0  0  0  0  0  0  0  0
    9.5919    6.4479   -9.9290 C   0  0  0  0  0  0  0  0  0  0  0  0
    9.2645    5.1197  -10.6248 C   0  0  0  0  0  0  0  0  0  0  0  0
   11.4710    2.4661  -14.8774 H   0  0  0  0  0  0  0  0  0  0  0  0
   10.1615    1.4574  -14.2884 H   0  0  0  0  0  0  0  0  0  0  0  0
    9.9680    2.4017  -15.7863 H   0  0  0  0  0  0  0  0  0  0  0  0
    7.8875    1.9473  -14.9827 H   0  0  0  0  0  0  0  0  0  0  0  0
    5.5642    2.0342  -14.2457 H   0  0  0  0  0  0  0  0  0  0  0  0
    4.8241    3.7278  -12.5750 H   0  0  0  0  0  0  0  0  0  0  0  0
    6.4833    5.2692  -11.5706 H   0  0  0  0  0  0  0  0  0  0  0  0
   11.0416    5.3387  -12.6471 H   0  0  0  0  0  0  0  0  0  0  0  0
    9.9566    6.1714  -13.7410 H   0  0  0  0  0  0  0  0  0  0  0  0
   11.3651    7.7722  -12.4346 H   0  0  0  0  0  0  0  0  0  0  0  0
    9.6496    8.0244  -12.1281 H   0  0  0  0  0  0  0  0  0  0  0  0
   11.5945    9.0464  -10.5162 H   0  0  0  0  0  0  0  0  0  0  0  0
    9.9390    9.0313   -9.9832 H   0  0  0  0  0  0  0  0  0  0  0  0
   11.7634    7.4434   -8.2155 H   0  0  0  0  0  0  0  0  0  0  0  0
   12.3199    9.0388   -8.4481 H   0  0  0  0  0  0  0  0  0  0  0  0
    9.8205    9.7715   -7.8799 H   0  0  0  0  0  0  0  0  0  0  0  0
    8.6908    8.4317   -6.2467 H   0  0  0  0  0  0  0  0  0  0  0  0
    8.7719    7.5519   -7.7027 H   0  0  0  0  0  0  0  0  0  0  0  0
   10.7102    6.1818   -6.7835 H   0  0  0  0  0  0  0  0  0  0  0  0
    9.3776    6.1742   -5.6678 H   0  0  0  0  0  0  0  0  0  0  0  0
   11.2154    5.5282   -4.0735 H   0  0  0  0  0  0  0  0  0  0  0  0
   12.3675    6.4077   -2.0724 H   0  0  0  0  0  0  0  0  0  0  0  0
   13.2353    8.3605   -0.8975 H   0  0  0  0  0  0  0  0  0  0  0  0
   13.2260    9.9319   -1.5896 H   0  0  0  0  0  0  0  0  0  0  0  0
   12.0909   10.3598   -3.7488 H   0  0  0  0  0  0  0  0  0  0  0  0
    9.8381    6.2074   -8.8993 H   0  0  0  0  0  0  0  0  0  0  0  0
    8.7055    7.0843   -9.9333 H   0  0  0  0  0  0  0  0  0  0  0  0
    8.3878    4.6667  -10.1592 H   0  0  0  0  0  0  0  0  0  0  0  0
   10.0836    4.4093  -10.5071 H   0  0  0  0  0  0  0  0  0  0  0  0
  2  1  1  0
  3  2  1  0
  4  3  2  0
  5  4  1  0
  6  5  2  0
  7  6  1  0
  8  3  1  0
  8  7  2  0
  9  8  1  0
 10  9  1  0
 11 10  1  0
 12 11  1  0
 13 12  1  0
 14 13  1  0
 15 14  1  0
 16 15  1  0
 17 16  1  0
 18 17  1  0
 19 18  1  0
 20 19  2  0
 21 20  1  0
 22 21  1  0
 23 21  2  0
 24 18  2  0
 24 23  1  0
 25 15  1  0
 25 24  1  0
 26 25  2  0
 27 12  1  0
 28  9  1  0
 28 27  1  0
 29  1  1  0
 30  1  1  0
 31  1  1  0
 32  4  1  0
 33  5  1  0
 34  6  1  0
 35  7  1  0
 36 10  1  0
 37 10  1  0
 38 11  1  0
 39 11  1  0
 40 13  1  0
 41 13  1  0
 42 14  1  0
 43 14  1  0
 15 44  1  6
 45 16  1  0
 46 16  1  0
 47 17  1  0
 48 17  1  0
 49 19  1  0
 50 20  1  0
 51 22  1  0
 52 22  1  0
 53 23  1  0
 54 27  1  0
 55 27  1  0
 56 28  1  0
 57 28  1  0
M  END
>  <b_m_subgroup_collapsed>  (218) 
0

>  <r_i_docking_score>  (218) 
-8.5146390989216307

>  <s_m_subgroup_title>  (218) 
glide-dock_SP_D22_pv

>  <s_m_subgroupid>  (218) 
glide-dock_SP_D22_pv

>  <Molecule ChEMBL ID>  (218) 
CHEMBL3104648

>  <Standard Type>  (218) 
Ki

>  <Standard Value>  (218) 
50.12

>  <label>  (218) 
1

$$$$
CHEMBL199186
     RDKit          3D

 49 52  0  0  1  0  0  0  0  0999 V2000
   11.6171    7.7024  -11.0707 O   0  0  0  0  0  0  0  0  0  0  0  0
   10.6950    7.3914  -10.3157 C   0  0  0  0  0  0  0  0  0  0  0  0
    9.5653    6.8081  -10.7256 N   0  0  0  0  0  0  0  0  0  0  0  0
    9.3381    6.2743  -12.0582 C   0  0  1  0  0  0  0  0  0  0  0  0
    9.9575    4.8920  -12.2851 C   0  0  0  0  0  0  0  0  0  0  0  0
    8.9151    4.1532  -13.1055 C   0  0  0  0  0  0  0  0  0  0  0  0
    7.6415    4.6409  -12.5505 N   0  0  2  0  0  0  0  0  0  0  0  0
    6.4137    4.3434  -13.3092 C   0  0  0  0  0  0  0  0  0  0  0  0
    6.2342    2.8705  -13.5935 C   0  0  0  0  0  0  0  0  0  0  0  0
    5.3824    2.1040  -12.7777 C   0  0  0  0  0  0  0  0  0  0  0  0
    5.1528    0.7560  -13.0934 C   0  0  0  0  0  0  0  0  0  0  0  0
    5.7406    0.1768  -14.2305 C   0  0  0  0  0  0  0  0  0  0  0  0
    5.2979   -1.4281  -14.6584 Cl  0  0  0  0  0  0  0  0  0  0  0  0
    6.6341    0.9261  -15.0223 C   0  0  0  0  0  0  0  0  0  0  0  0
    7.3867    0.2490  -16.4202 Cl  0  0  0  0  0  0  0  0  0  0  0  0
    6.8853    2.2698  -14.6945 C   0  0  0  0  0  0  0  0  0  0  0  0
    7.8396    6.0761  -12.2901 C   0  0  0  0  0  0  0  0  0  0  0  0
   10.7774    7.6423   -8.8423 C   0  0  0  0  0  0  0  0  0  0  0  0
   11.5508    8.7142   -8.3588 C   0  0  0  0  0  0  0  0  0  0  0  0
   11.7335    8.8973   -6.9761 C   0  0  0  0  0  0  0  0  0  0  0  0
   11.1830    7.9772   -6.0586 C   0  0  0  0  0  0  0  0  0  0  0  0
   11.5224    8.0267   -4.6452 C   0  0  0  0  0  0  0  0  0  0  0  0
   11.7662    6.9763   -3.7989 C   0  0  0  0  0  0  0  0  0  0  0  0
   12.1415    7.3942   -2.4918 C   0  0  0  0  0  0  0  0  0  0  0  0
   12.1485    8.7567   -2.3510 C   0  0  0  0  0  0  0  0  0  0  0  0
   11.6864    9.5552   -3.8279 S   0  0  0  0  0  0  0  0  0  0  0  0
   10.3786    6.9257   -6.5424 C   0  0  0  0  0  0  0  0  0  0  0  0
   10.1717    6.7578   -7.9220 C   0  0  0  0  0  0  0  0  0  0  0  0
    8.8181    6.7102  -10.0493 H   0  0  0  0  0  0  0  0  0  0  0  0
    9.7341    6.9727  -12.7941 H   0  0  0  0  0  0  0  0  0  0  0  0
   10.9233    4.9379  -12.7854 H   0  0  0  0  0  0  0  0  0  0  0  0
   10.0857    4.3707  -11.3346 H   0  0  0  0  0  0  0  0  0  0  0  0
    8.9947    4.4411  -14.1554 H   0  0  0  0  0  0  0  0  0  0  0  0
    9.0283    3.0697  -13.0384 H   0  0  0  0  0  0  0  0  0  0  0  0
    5.5530    4.7168  -12.7512 H   0  0  0  0  0  0  0  0  0  0  0  0
    6.4217    4.8821  -14.2467 H   0  0  0  0  0  0  0  0  0  0  0  0
    4.8891    2.5467  -11.9244 H   0  0  0  0  0  0  0  0  0  0  0  0
    4.4869    0.1717  -12.4863 H   0  0  0  0  0  0  0  0  0  0  0  0
    7.5469    2.8433  -15.3250 H   0  0  0  0  0  0  0  0  0  0  0  0
    7.2396    6.3702  -11.4474 H   0  0  0  0  0  0  0  0  0  0  0  0
    7.5222    6.6814  -13.1401 H   0  0  0  0  0  0  0  0  0  0  0  0
   12.0475    9.3715   -9.0567 H   0  0  0  0  0  0  0  0  0  0  0  0
   12.3724    9.6991   -6.6327 H   0  0  0  0  0  0  0  0  0  0  0  0
   11.7208    5.9338   -4.0752 H   0  0  0  0  0  0  0  0  0  0  0  0
   12.3990    6.6843   -1.7216 H   0  0  0  0  0  0  0  0  0  0  0  0
   12.3921    9.3430   -1.4766 H   0  0  0  0  0  0  0  0  0  0  0  0
    9.9497    6.2076   -5.8571 H   0  0  0  0  0  0  0  0  0  0  0  0
    9.5856    5.9151   -8.2595 H   0  0  0  0  0  0  0  0  0  0  0  0
    7.5388    4.2039  -11.6444 H   0  0  0  0  0  0  0  0  0  0  0  0
  2  1  2  0
  3  2  1  0
  4  3  1  0
  5  4  1  0
  6  5  1  0
  7  6  1  0
  8  7  1  0
  9  8  1  0
 10  9  1  0
 11 10  2  0
 12 11  1  0
 13 12  1  0
 14 12  2  0
 15 14  1  0
 16  9  2  0
 16 14  1  0
 17  4  1  0
 17  7  1  0
 18  2  1  0
 19 18  1  0
 20 19  2  0
 21 20  1  0
 22 21  1  0
 23 22  2  0
 24 23  1  0
 25 24  2  0
 26 22  1  0
 26 25  1  0
 27 21  2  0
 28 18  2  0
 28 27  1  0
 29  3  1  0
  4 30  1  6
 31  5  1  0
 32  5  1  0
 33  6  1  0
 34  6  1  0
 35  8  1  0
 36  8  1  0
 37 10  1  0
 38 11  1  0
 39 16  1  0
 40 17  1  0
 41 17  1  0
 42 19  1  0
 43 20  1  0
 44 23  1  0
 45 24  1  0
 46 25  1  0
 47 27  1  0
 48 28  1  0
  7 49  1  1
M  CHG  1   7   1
M  END
>  <b_m_subgroup_collapsed>  (219) 
0

>  <r_i_docking_score>  (219) 
-8.5141678129878997

>  <s_m_subgroup_title>  (219) 
glide-dock_SP_D22_pv

>  <s_m_subgroupid>  (219) 
glide-dock_SP_D22_pv

>  <Molecule ChEMBL ID>  (219) 
CHEMBL199186

>  <Standard Type>  (219) 
Ki

>  <Standard Value>  (219) 
29000.0

>  <label>  (219) 
0

$$$$
CHEMBL199824
     RDKit          3D

 61 64  0  0  1  0  0  0  0  0999 V2000
   12.4862    6.1256   -2.2461 C   0  0  0  0  0  0  0  0  0  0  0  0
   12.2878    7.3821   -2.9587 N   0  0  0  0  0  0  0  0  0  0  0  0
   12.4786    8.5442   -2.2821 C   0  0  0  0  0  0  0  0  0  0  0  0
   12.8998    8.6111   -1.1318 O   0  0  0  0  0  0  0  0  0  0  0  0
   12.0859    9.7723   -2.9948 C   0  0  0  0  0  0  0  0  0  0  0  0
   11.7042    9.7311   -4.2221 N   0  0  0  0  0  0  0  0  0  0  0  0
   11.6665    8.5232   -4.8681 N   0  0  0  0  0  0  0  0  0  0  0  0
   11.2226    8.5977   -6.2529 C   0  0  0  0  0  0  0  0  0  0  0  0
    9.6972    8.4700   -6.2929 C   0  0  0  0  0  0  0  0  0  0  0  0
    9.1536    8.2602   -7.7002 C   0  0  0  0  0  0  0  0  0  0  0  0
    9.3768    6.8053   -8.1565 C   0  0  0  0  0  0  0  0  0  0  0  0
    8.8851    6.5491   -9.5239 N   0  0  0  0  0  0  0  0  0  0  0  0
    8.7293    5.1002   -9.8048 C   0  0  0  0  0  0  0  0  0  0  0  0
    8.1025    4.8559  -11.1879 C   0  0  0  0  0  0  0  0  0  0  0  0
    8.7639    5.6268  -12.2464 N   0  0  0  0  0  0  0  0  0  0  0  0
    9.5578    4.9508  -13.2083 C   0  0  0  0  0  0  0  0  0  0  0  0
   10.8864    5.3831  -13.4452 C   0  0  0  0  0  0  0  0  0  0  0  0
   11.7487    4.6818  -14.3048 C   0  0  0  0  0  0  0  0  0  0  0  0
   11.3018    3.5196  -14.9492 C   0  0  0  0  0  0  0  0  0  0  0  0
    9.9788    3.0798  -14.7615 C   0  0  0  0  0  0  0  0  0  0  0  0
    9.5556    1.9008  -15.4069 C   0  0  0  0  0  0  0  0  0  0  0  0
    8.2486    1.4213  -15.2194 C   0  0  0  0  0  0  0  0  0  0  0  0
    7.3336    2.1373  -14.4278 C   0  0  0  0  0  0  0  0  0  0  0  0
    6.0883    1.5780  -14.2417 O   0  0  0  0  0  0  0  0  0  0  0  0
    5.2553    2.1172  -13.2225 C   0  0  0  0  0  0  0  0  0  0  0  0
    7.7438    3.3604  -13.8466 C   0  0  0  0  0  0  0  0  0  0  0  0
    9.0863    3.8087  -13.9290 C   0  0  0  0  0  0  0  0  0  0  0  0
    8.9843    7.0401  -11.9303 C   0  0  0  0  0  0  0  0  0  0  0  0
    9.6725    7.2187  -10.5787 C   0  0  0  0  0  0  0  0  0  0  0  0
   11.8676    7.3211   -4.2553 C   0  0  0  0  0  0  0  0  0  0  0  0
   11.6857    6.2618   -4.8535 O   0  0  0  0  0  0  0  0  0  0  0  0
   11.5288    5.7724   -1.8678 H   0  0  0  0  0  0  0  0  0  0  0  0
   12.9021    5.3723   -2.9084 H   0  0  0  0  0  0  0  0  0  0  0  0
   13.1721    6.1722   -1.4043 H   0  0  0  0  0  0  0  0  0  0  0  0
   12.0862   10.7235   -2.4642 H   0  0  0  0  0  0  0  0  0  0  0  0
   11.7026    7.8189   -6.8444 H   0  0  0  0  0  0  0  0  0  0  0  0
   11.5364    9.5420   -6.7030 H   0  0  0  0  0  0  0  0  0  0  0  0
    9.2858    9.3722   -5.8505 H   0  0  0  0  0  0  0  0  0  0  0  0
    9.3626    7.6405   -5.6704 H   0  0  0  0  0  0  0  0  0  0  0  0
    9.6183    8.9858   -8.3658 H   0  0  0  0  0  0  0  0  0  0  0  0
    8.0860    8.4781   -7.6995 H   0  0  0  0  0  0  0  0  0  0  0  0
    8.8427    6.1512   -7.4647 H   0  0  0  0  0  0  0  0  0  0  0  0
   10.4268    6.5186   -8.1011 H   0  0  0  0  0  0  0  0  0  0  0  0
    8.0960    4.6360   -9.0471 H   0  0  0  0  0  0  0  0  0  0  0  0
    9.7032    4.6108   -9.7477 H   0  0  0  0  0  0  0  0  0  0  0  0
    7.0513    5.1440  -11.1673 H   0  0  0  0  0  0  0  0  0  0  0  0
    8.1368    3.7838  -11.3865 H   0  0  0  0  0  0  0  0  0  0  0  0
   11.2924    6.2405  -12.9329 H   0  0  0  0  0  0  0  0  0  0  0  0
   12.7642    5.0241  -14.4501 H   0  0  0  0  0  0  0  0  0  0  0  0
   11.9780    2.9710  -15.5888 H   0  0  0  0  0  0  0  0  0  0  0  0
   10.2415    1.3412  -16.0264 H   0  0  0  0  0  0  0  0  0  0  0  0
    7.9478    0.4907  -15.6799 H   0  0  0  0  0  0  0  0  0  0  0  0
    4.3514    1.5134  -13.1464 H   0  0  0  0  0  0  0  0  0  0  0  0
    5.7428    2.0998  -12.2474 H   0  0  0  0  0  0  0  0  0  0  0  0
    4.9448    3.1385  -13.4471 H   0  0  0  0  0  0  0  0  0  0  0  0
    7.0280    3.9400  -13.2876 H   0  0  0  0  0  0  0  0  0  0  0  0
    9.5944    7.5609  -12.6513 H   0  0  0  0  0  0  0  0  0  0  0  0
    8.0184    7.5470  -11.9244 H   0  0  0  0  0  0  0  0  0  0  0  0
    9.7662    8.2859  -10.3873 H   0  0  0  0  0  0  0  0  0  0  0  0
   10.6841    6.8116  -10.6026 H   0  0  0  0  0  0  0  0  0  0  0  0
    7.9463    6.9467   -9.5838 H   0  0  0  0  0  0  0  0  0  0  0  0
  2  1  1  0
  3  2  1  0
  4  3  2  0
  5  3  1  0
  6  5  2  0
  7  6  1  0
  8  7  1  0
  9  8  1  0
 10  9  1  0
 11 10  1  0
 12 11  1  0
 13 12  1  0
 14 13  1  0
 15 14  1  0
 16 15  1  0
 17 16  1  0
 18 17  2  0
 19 18  1  0
 20 19  2  0
 21 20  1  0
 22 21  2  0
 23 22  1  0
 24 23  1  0
 25 24  1  0
 26 23  2  0
 27 16  2  0
 27 20  1  0
 27 26  1  0
 28 15  1  0
 29 12  1  0
 29 28  1  0
 30  2  1  0
 30  7  1  0
 31 30  2  0
 32  1  1  0
 33  1  1  0
 34  1  1  0
 35  5  1  0
 36  8  1  0
 37  8  1  0
 38  9  1  0
 39  9  1  0
 40 10  1  0
 41 10  1  0
 42 11  1  0
 43 11  1  0
 44 13  1  0
 45 13  1  0
 46 14  1  0
 47 14  1  0
 48 17  1  0
 49 18  1  0
 50 19  1  0
 51 21  1  0
 52 22  1  0
 53 25  1  0
 54 25  1  0
 55 25  1  0
 56 26  1  0
 57 28  1  0
 58 28  1  0
 59 29  1  0
 60 29  1  0
 61 12  1  0
M  CHG  1  12   1
M  ISO  1  25  11
M  END
>  <b_m_subgroup_collapsed>  (220) 
0

>  <r_i_docking_score>  (220) 
-8.5070424199635504

>  <s_m_subgroup_title>  (220) 
glide-dock_SP_D22_pv

>  <s_m_subgroupid>  (220) 
glide-dock_SP_D22_pv

>  <Molecule ChEMBL ID>  (220) 
CHEMBL199824

>  <Standard Type>  (220) 
Ki

>  <Standard Value>  (220) 
22.01

>  <label>  (220) 
1

$$$$
CHEMBL202713
     RDKit          3D

 63 67  0  0  1  0  0  0  0  0999 V2000
   14.1169    0.2027  -19.6397 C   0  0  0  0  0  0  0  0  0  0  0  0
   13.2573    0.8171  -18.6908 O   0  0  0  0  0  0  0  0  0  0  0  0
   11.9670    0.3449  -18.5855 C   0  0  0  0  0  0  0  0  0  0  0  0
   11.3897   -0.6073  -19.4585 C   0  0  0  0  0  0  0  0  0  0  0  0
   10.0563   -1.0273  -19.2692 C   0  0  0  0  0  0  0  0  0  0  0  0
    9.2845   -0.5216  -18.2050 C   0  0  0  0  0  0  0  0  0  0  0  0
    9.8230    0.4428  -17.3271 C   0  0  0  0  0  0  0  0  0  0  0  0
    9.3622    1.1860  -16.1948 C   0  0  0  0  0  0  0  0  0  0  0  0
   10.3990    2.0161  -15.8276 C   0  0  0  0  0  0  0  0  0  0  0  0
   10.4861    3.0292  -14.7648 C   0  0  0  0  0  0  0  0  0  0  0  0
   11.5678    3.4262  -14.3332 O   0  0  0  0  0  0  0  0  0  0  0  0
    9.3057    3.5067  -14.3504 N   0  0  0  0  0  0  0  0  0  0  0  0
    9.1568    4.5297  -13.3326 C   0  0  0  0  0  0  0  0  0  0  0  0
    7.7243    4.5445  -12.7745 C   0  0  0  0  0  0  0  0  0  0  0  0
    7.5664    5.5250  -11.6061 C   0  0  0  0  0  0  0  0  0  0  0  0
    8.2758    5.0605  -10.3134 C   0  0  0  0  0  0  0  0  0  0  0  0
    8.4886    6.1742   -9.3591 N   0  0  0  0  0  0  0  0  0  0  0  0
    8.6155    5.7115   -7.9525 C   0  0  0  0  0  0  0  0  0  0  0  0
    8.9449    6.8559   -6.9707 C   0  0  0  0  0  0  0  0  0  0  0  0
   10.0854    7.6477   -7.4219 N   0  0  0  0  0  0  0  0  0  0  0  0
   10.7263    8.4708   -6.4653 C   0  0  0  0  0  0  0  0  0  0  0  0
   10.8861    9.7619   -6.6367 N   0  0  0  0  0  0  0  0  0  0  0  0
   11.4334   10.2163   -5.4883 N   0  0  0  0  0  0  0  0  0  0  0  0
   11.6838    9.2310   -4.5559 C   0  0  0  0  0  0  0  0  0  0  0  0
   12.2063    9.2422   -3.2524 C   0  0  0  0  0  0  0  0  0  0  0  0
   12.3574    8.0247   -2.5669 C   0  0  0  0  0  0  0  0  0  0  0  0
   11.9815    6.8194   -3.1914 C   0  0  0  0  0  0  0  0  0  0  0  0
   11.4359    6.8244   -4.4942 C   0  0  0  0  0  0  0  0  0  0  0  0
   11.2624    8.0361   -5.2023 C   0  0  0  0  0  0  0  0  0  0  0  0
    9.8894    8.1732   -8.7676 C   0  0  0  0  0  0  0  0  0  0  0  0
    9.6335    7.0365   -9.7652 C   0  0  0  0  0  0  0  0  0  0  0  0
   11.5051    1.7996  -16.6107 O   0  0  0  0  0  0  0  0  0  0  0  0
   11.1606    0.8516  -17.5502 C   0  0  0  0  0  0  0  0  0  0  0  0
   15.1157    0.6295  -19.5476 H   0  0  0  0  0  0  0  0  0  0  0  0
   14.2020   -0.8713  -19.4667 H   0  0  0  0  0  0  0  0  0  0  0  0
   13.7742    0.3802  -20.6601 H   0  0  0  0  0  0  0  0  0  0  0  0
   11.9459   -1.0223  -20.2851 H   0  0  0  0  0  0  0  0  0  0  0  0
    9.6224   -1.7506  -19.9449 H   0  0  0  0  0  0  0  0  0  0  0  0
    8.2674   -0.8605  -18.0680 H   0  0  0  0  0  0  0  0  0  0  0  0
    8.3832    1.1115  -15.7460 H   0  0  0  0  0  0  0  0  0  0  0  0
    8.4721    3.1402  -14.7819 H   0  0  0  0  0  0  0  0  0  0  0  0
    9.8832    4.3399  -12.5435 H   0  0  0  0  0  0  0  0  0  0  0  0
    9.4060    5.5010  -13.7631 H   0  0  0  0  0  0  0  0  0  0  0  0
    7.0367    4.8314  -13.5713 H   0  0  0  0  0  0  0  0  0  0  0  0
    7.4196    3.5470  -12.4610 H   0  0  0  0  0  0  0  0  0  0  0  0
    7.9217    6.5007  -11.9343 H   0  0  0  0  0  0  0  0  0  0  0  0
    6.5050    5.6669  -11.3968 H   0  0  0  0  0  0  0  0  0  0  0  0
    7.6861    4.2684   -9.8550 H   0  0  0  0  0  0  0  0  0  0  0  0
    9.2413    4.5997  -10.5151 H   0  0  0  0  0  0  0  0  0  0  0  0
    7.6864    5.2291   -7.6473 H   0  0  0  0  0  0  0  0  0  0  0  0
    9.4046    4.9617   -7.8993 H   0  0  0  0  0  0  0  0  0  0  0  0
    8.0850    7.5197   -6.8696 H   0  0  0  0  0  0  0  0  0  0  0  0
    9.1302    6.4433   -5.9799 H   0  0  0  0  0  0  0  0  0  0  0  0
   11.6357   11.1994   -5.3807 H   0  0  0  0  0  0  0  0  0  0  0  0
   12.4876   10.1715   -2.7802 H   0  0  0  0  0  0  0  0  0  0  0  0
   12.7605    8.0153   -1.5648 H   0  0  0  0  0  0  0  0  0  0  0  0
   12.0943    5.8847   -2.6609 H   0  0  0  0  0  0  0  0  0  0  0  0
   11.1380    5.8922   -4.9500 H   0  0  0  0  0  0  0  0  0  0  0  0
    9.0482    8.8693   -8.7641 H   0  0  0  0  0  0  0  0  0  0  0  0
   10.7692    8.7375   -9.0812 H   0  0  0  0  0  0  0  0  0  0  0  0
   10.5351    6.4262   -9.8461 H   0  0  0  0  0  0  0  0  0  0  0  0
    9.4604    7.4710  -10.7487 H   0  0  0  0  0  0  0  0  0  0  0  0
    7.6515    6.7599   -9.3989 H   0  0  0  0  0  0  0  0  0  0  0  0
  2  1  1  0
  3  2  1  0
  4  3  1  0
  5  4  2  0
  6  5  1  0
  7  6  2  0
  8  7  1  0
  9  8  2  0
 10  9  1  0
 11 10  2  0
 12 10  1  0
 13 12  1  0
 14 13  1  0
 15 14  1  0
 16 15  1  0
 17 16  1  0
 18 17  1  0
 19 18  1  0
 20 19  1  0
 21 20  1  0
 22 21  2  0
 23 22  1  0
 24 23  1  0
 25 24  2  0
 26 25  1  0
 27 26  2  0
 28 27  1  0
 29 21  1  0
 29 24  1  0
 29 28  2  0
 30 20  1  0
 31 17  1  0
 31 30  1  0
 32  9  1  0
 33  3  2  0
 33  7  1  0
 33 32  1  0
 34  1  1  0
 35  1  1  0
 36  1  1  0
 37  4  1  0
 38  5  1  0
 39  6  1  0
 40  8  1  0
 41 12  1  0
 42 13  1  0
 43 13  1  0
 44 14  1  0
 45 14  1  0
 46 15  1  0
 47 15  1  0
 48 16  1  0
 49 16  1  0
 50 18  1  0
 51 18  1  0
 52 19  1  0
 53 19  1  0
 54 23  1  0
 55 25  1  0
 56 26  1  0
 57 27  1  0
 58 28  1  0
 59 30  1  0
 60 30  1  0
 61 31  1  0
 62 31  1  0
 63 17  1  0
M  CHG  1  17   1
M  END
>  <b_m_subgroup_collapsed>  (221) 
0

>  <r_i_docking_score>  (221) 
-8.5025506121882497

>  <s_m_subgroup_title>  (221) 
glide-dock_SP_D22_pv

>  <s_m_subgroupid>  (221) 
glide-dock_SP_D22_pv

>  <Molecule ChEMBL ID>  (221) 
CHEMBL202713

>  <Standard Type>  (221) 
Ki

>  <Standard Value>  (221) 
56.6

>  <label>  (221) 
1

$$$$
CHEMBL2397392
     RDKit          3D

 59 61  0  0  1  0  0  0  0  0999 V2000
    3.9930   -0.3066  -14.0721 C   0  0  0  0  0  0  0  0  0  0  0  0
    4.8277    0.5656  -13.8778 C   0  0  0  0  0  0  0  0  0  0  0  0
    5.7558    1.6345  -13.6883 C   0  0  0  0  0  0  0  0  0  0  0  0
    6.9775    1.5868  -14.2467 C   0  0  0  0  0  0  0  0  0  0  0  0
    8.0493    2.6430  -14.0449 C   0  0  0  0  0  0  0  0  0  0  0  0
    7.5307    3.9644  -13.4193 C   0  0  2  0  0  0  0  0  0  0  0  0
    8.6173    4.8669  -12.9007 N   0  0  2  0  0  0  0  0  0  0  0  0
    9.6613    5.2160  -13.9110 C   0  0  0  0  0  0  0  0  0  0  0  0
   10.8781    4.2641  -14.0124 C   0  0  0  0  0  0  0  0  0  0  0  0
   11.9226    4.7672  -15.0151 C   0  0  0  0  0  0  0  0  0  0  0  0
    9.1906    4.6086  -11.5399 C   0  0  0  0  0  0  0  0  0  0  0  0
    8.2942    5.0505  -10.3549 C   0  0  0  0  0  0  0  0  0  0  0  0
    9.0176    5.6197   -9.1329 C   0  0  0  0  0  0  0  0  0  0  0  0
    9.6111    7.0164   -9.3699 C   0  0  0  0  0  0  0  0  0  0  0  0
    9.9429    7.7146   -8.1351 N   0  0  0  0  0  0  0  0  0  0  0  0
   10.7759    7.2895   -7.1761 C   0  0  0  0  0  0  0  0  0  0  0  0
   11.2856    6.1737   -7.1516 O   0  0  0  0  0  0  0  0  0  0  0  0
   11.0193    8.2916   -6.1182 C   0  0  0  0  0  0  0  0  0  0  0  0
   10.9922    9.6993   -6.1815 C   0  0  0  0  0  0  0  0  0  0  0  0
   11.2856   10.2843   -5.0467 N   0  0  0  0  0  0  0  0  0  0  0  0
   11.6084    9.2458   -4.2133 N   0  0  0  0  0  0  0  0  0  0  0  0
   12.0402    9.3727   -2.9307 C   0  0  0  0  0  0  0  0  0  0  0  0
   12.2837    8.2363   -2.1945 C   0  0  0  0  0  0  0  0  0  0  0  0
   12.0894    6.9561   -2.7669 C   0  0  0  0  0  0  0  0  0  0  0  0
   11.6860    6.8299   -4.0763 C   0  0  0  0  0  0  0  0  0  0  0  0
   11.4265    7.9966   -4.8439 C   0  0  0  0  0  0  0  0  0  0  0  0
    6.3859    3.7679  -12.4066 C   0  0  0  0  0  0  0  0  0  0  0  0
    5.2850    2.7939  -12.8296 C   0  0  0  0  0  0  0  0  0  0  0  0
    3.2616   -1.0591  -14.2700 H   0  0  0  0  0  0  0  0  0  0  0  0
    7.2653    0.7320  -14.8435 H   0  0  0  0  0  0  0  0  0  0  0  0
    8.8380    2.1921  -13.4469 H   0  0  0  0  0  0  0  0  0  0  0  0
    8.4808    2.8479  -15.0252 H   0  0  0  0  0  0  0  0  0  0  0  0
    7.0725    4.5148  -14.2432 H   0  0  0  0  0  0  0  0  0  0  0  0
    9.2062    5.3728  -14.8893 H   0  0  0  0  0  0  0  0  0  0  0  0
   10.0641    6.1727  -13.6031 H   0  0  0  0  0  0  0  0  0  0  0  0
   11.3718    4.1711  -13.0467 H   0  0  0  0  0  0  0  0  0  0  0  0
   10.5885    3.2588  -14.3028 H   0  0  0  0  0  0  0  0  0  0  0  0
   12.7706    4.0824  -15.0694 H   0  0  0  0  0  0  0  0  0  0  0  0
   11.5014    4.8484  -16.0169 H   0  0  0  0  0  0  0  0  0  0  0  0
   12.3133    5.7481  -14.7334 H   0  0  0  0  0  0  0  0  0  0  0  0
    9.5241    3.5745  -11.4493 H   0  0  0  0  0  0  0  0  0  0  0  0
   10.0900    5.2126  -11.4595 H   0  0  0  0  0  0  0  0  0  0  0  0
    7.5444    5.7709  -10.6811 H   0  0  0  0  0  0  0  0  0  0  0  0
    7.7562    4.1925   -9.9622 H   0  0  0  0  0  0  0  0  0  0  0  0
    8.2932    5.6866   -8.3177 H   0  0  0  0  0  0  0  0  0  0  0  0
    9.7823    4.9189   -8.7982 H   0  0  0  0  0  0  0  0  0  0  0  0
   10.4994    6.9620   -9.9979 H   0  0  0  0  0  0  0  0  0  0  0  0
    8.8873    7.6394   -9.8986 H   0  0  0  0  0  0  0  0  0  0  0  0
    9.5151    8.6185   -8.0108 H   0  0  0  0  0  0  0  0  0  0  0  0
   10.7663   10.2955   -7.0452 H   0  0  0  0  0  0  0  0  0  0  0  0
   12.1473   10.3798   -2.5417 H   0  0  0  0  0  0  0  0  0  0  0  0
   12.6074    8.3304   -1.1629 H   0  0  0  0  0  0  0  0  0  0  0  0
   12.2717    6.0614   -2.1772 H   0  0  0  0  0  0  0  0  0  0  0  0
   11.5496    5.8495   -4.5269 H   0  0  0  0  0  0  0  0  0  0  0  0
    6.7745    3.3597  -11.4920 H   0  0  0  0  0  0  0  0  0  0  0  0
    5.9393    4.7265  -12.1374 H   0  0  0  0  0  0  0  0  0  0  0  0
    4.4876    3.3276  -13.3459 H   0  0  0  0  0  0  0  0  0  0  0  0
    4.8744    2.3759  -11.9113 H   0  0  0  0  0  0  0  0  0  0  0  0
    8.1271    5.7410  -12.7647 H   0  0  0  0  0  0  0  0  0  0  0  0
  2  1  3  0
  3  2  1  0
  4  3  2  0
  5  4  1  0
  6  5  1  0
  7  6  1  0
  8  7  1  0
  9  8  1  0
 10  9  1  0
 11  7  1  0
 12 11  1  0
 13 12  1  0
 14 13  1  0
 15 14  1  0
 16 15  1  0
 17 16  2  0
 18 16  1  0
 19 18  1  0
 20 19  2  0
 21 20  1  0
 22 21  1  0
 23 22  2  0
 24 23  1  0
 25 24  2  0
 26 18  2  0
 26 21  1  0
 26 25  1  0
 27  6  1  0
 28  3  1  0
 28 27  1  0
 29  1  1  0
 30  4  1  0
 31  5  1  0
 32  5  1  0
  6 33  1  6
 34  8  1  0
 35  8  1  0
 36  9  1  0
 37  9  1  0
 38 10  1  0
 39 10  1  0
 40 10  1  0
 41 11  1  0
 42 11  1  0
 43 12  1  0
 44 12  1  0
 45 13  1  0
 46 13  1  0
 47 14  1  0
 48 14  1  0
 49 15  1  0
 50 19  1  0
 51 22  1  0
 52 23  1  0
 53 24  1  0
 54 25  1  0
 55 27  1  0
 56 27  1  0
 57 28  1  0
 58 28  1  0
  7 59  1  1
M  CHG  1   7   1
M  END
>  <b_m_subgroup_collapsed>  (222) 
0

>  <r_i_docking_score>  (222) 
-8.5010940695166397

>  <s_m_subgroup_title>  (222) 
glide-dock_SP_D22_pv

>  <s_m_subgroupid>  (222) 
glide-dock_SP_D22_pv

>  <Molecule ChEMBL ID>  (222) 
CHEMBL2397392

>  <Standard Type>  (222) 
Ki

>  <Standard Value>  (222) 
0.55

>  <label>  (222) 
1

$$$$
CHEMBL545457
     RDKit          3D

 33 35  0  0  1  0  0  0  0  0999 V2000
   10.0861    5.7374   -8.5622 O   0  0  0  0  0  0  0  0  0  0  0  0
   10.4890    6.6700   -7.8660 C   0  0  0  0  0  0  0  0  0  0  0  0
   10.8386    6.6350   -6.4878 C   0  0  0  0  0  0  0  0  0  0  0  0
   11.1754    7.8604   -6.1049 C   0  0  0  0  0  0  0  0  0  0  0  0
   11.6583    8.1679   -4.7492 C   0  0  0  0  0  0  0  0  0  0  0  0
   11.6733    9.4966   -4.2991 C   0  0  0  0  0  0  0  0  0  0  0  0
   12.0816    9.7724   -2.9833 C   0  0  0  0  0  0  0  0  0  0  0  0
   12.4834    8.7457   -2.1114 C   0  0  0  0  0  0  0  0  0  0  0  0
   12.4634    7.4155   -2.5578 C   0  0  0  0  0  0  0  0  0  0  0  0
   12.0564    7.1288   -3.8704 C   0  0  0  0  0  0  0  0  0  0  0  0
   11.0797    8.7883   -7.1192 O   0  0  0  0  0  0  0  0  0  0  0  0
   10.6418    8.1205   -8.3187 C   0  0  1  0  0  0  0  0  0  0  0  0
   11.6882    8.3160   -9.4415 C   0  0  0  0  0  0  0  0  0  0  0  0
   11.2310    7.7210  -10.7934 C   0  0  0  0  0  0  0  0  0  0  0  0
    9.7864    8.1090  -11.1728 C   0  0  0  0  0  0  0  0  0  0  0  0
    8.8861    7.8988  -10.0263 N   0  0  0  0  0  0  0  0  0  0  0  0
    9.2853    8.6480   -8.8122 C   0  0  0  0  0  0  0  0  0  0  0  0
   10.8168    5.7722   -5.8682 H   0  0  0  0  0  0  0  0  0  0  0  0
   11.3613   10.3020   -4.9480 H   0  0  0  0  0  0  0  0  0  0  0  0
   12.0839   10.7950   -2.6374 H   0  0  0  0  0  0  0  0  0  0  0  0
   12.7942    8.9832   -1.1043 H   0  0  0  0  0  0  0  0  0  0  0  0
   12.7585    6.6135   -1.8968 H   0  0  0  0  0  0  0  0  0  0  0  0
   12.0606    6.0956   -4.1807 H   0  0  0  0  0  0  0  0  0  0  0  0
   11.8709    9.3822   -9.5718 H   0  0  0  0  0  0  0  0  0  0  0  0
   12.6465    7.8841   -9.1498 H   0  0  0  0  0  0  0  0  0  0  0  0
   11.9233    8.0138  -11.5831 H   0  0  0  0  0  0  0  0  0  0  0  0
   11.2852    6.6357  -10.7389 H   0  0  0  0  0  0  0  0  0  0  0  0
    9.7150    9.1427  -11.4950 H   0  0  0  0  0  0  0  0  0  0  0  0
    9.4420    7.5018  -12.0104 H   0  0  0  0  0  0  0  0  0  0  0  0
    7.8901    8.0754  -10.2469 H   0  0  0  0  0  0  0  0  0  0  0  0
    8.5173    8.5172   -8.0473 H   0  0  0  0  0  0  0  0  0  0  0  0
    9.3326    9.7135   -9.0333 H   0  0  0  0  0  0  0  0  0  0  0  0
    8.9265    6.9149   -9.7890 H   0  0  0  0  0  0  0  0  0  0  0  0
  2  1  2  0
  3  2  1  0
  4  3  2  0
  5  4  1  0
  6  5  2  0
  7  6  1  0
  8  7  2  0
  9  8  1  0
 10  5  1  0
 10  9  2  0
 11  4  1  0
 12  2  1  0
 12 11  1  1
 13 12  1  0
 14 13  1  0
 15 14  1  0
 16 15  1  0
 17 12  1  0
 17 16  1  0
 18  3  1  0
 19  6  1  0
 20  7  1  0
 21  8  1  0
 22  9  1  0
 23 10  1  0
 24 13  1  0
 25 13  1  0
 26 14  1  0
 27 14  1  0
 28 15  1  0
 29 15  1  0
 30 16  1  0
 31 17  1  0
 32 17  1  0
 33 16  1  0
M  CHG  1  16   1
M  END
>  <b_m_subgroup_collapsed>  (223) 
0

>  <r_i_docking_score>  (223) 
-8.5003092832864091

>  <s_m_subgroup_title>  (223) 
glide-dock_SP_D22_pv

>  <s_m_subgroupid>  (223) 
glide-dock_SP_D22_pv

>  <Molecule ChEMBL ID>  (223) 
CHEMBL545457

>  <Standard Type>  (223) 
Ki

>  <Standard Value>  (223) 
10000.0

>  <label>  (223) 
0

$$$$
CHEMBL4082195
     RDKit          3D

 58 61  0  0  1  0  0  0  0  0999 V2000
   11.6868   10.5699   -6.2464 O   0  0  0  0  0  0  0  0  0  0  0  0
   11.6811    9.3943   -5.5509 C   0  0  0  0  0  0  0  0  0  0  0  0
   12.4156    9.2846   -4.3523 C   0  0  0  0  0  0  0  0  0  0  0  0
   12.4116    8.0788   -3.6277 C   0  0  0  0  0  0  0  0  0  0  0  0
   11.6855    6.9754   -4.1071 C   0  0  0  0  0  0  0  0  0  0  0  0
   10.9334    7.0891   -5.2937 C   0  0  0  0  0  0  0  0  0  0  0  0
   10.9261    8.3002   -6.0321 C   0  0  0  0  0  0  0  0  0  0  0  0
   10.2394    8.4742   -7.2161 O   0  0  0  0  0  0  0  0  0  0  0  0
    9.0179    7.7707   -7.3976 C   0  0  0  0  0  0  0  0  0  0  0  0
    9.2255    6.3597   -7.9779 C   0  0  0  0  0  0  0  0  0  0  0  0
    8.8859    6.2642   -9.4136 N   0  0  0  0  0  0  0  0  0  0  0  0
    8.8502    4.8598   -9.8848 C   0  0  0  0  0  0  0  0  0  0  0  0
    8.5158    4.7079  -11.3787 C   0  0  1  0  0  0  0  0  0  0  0  0
    7.3664    5.5985  -11.8621 C   0  0  0  0  0  0  0  0  0  0  0  0
    7.1206    5.2482  -13.2055 O   0  0  0  0  0  0  0  0  0  0  0  0
    8.2745    5.5228  -13.9851 C   0  0  0  0  0  0  0  0  0  0  0  0
    9.5111    4.6885  -13.5993 C   0  0  0  0  0  0  0  0  0  0  0  0
   10.6815    5.3346  -14.3633 C   0  0  0  0  0  0  0  0  0  0  0  0
   10.7973    5.1709  -15.7671 C   0  0  0  0  0  0  0  0  0  0  0  0
   11.8089    5.8302  -16.4905 C   0  0  0  0  0  0  0  0  0  0  0  0
   12.7070    6.6799  -15.8217 C   0  0  0  0  0  0  0  0  0  0  0  0
   12.5944    6.8600  -14.4319 C   0  0  0  0  0  0  0  0  0  0  0  0
   11.6006    6.1826  -13.7030 C   0  0  0  0  0  0  0  0  0  0  0  0
    9.3590    3.1987  -14.0071 C   0  0  0  0  0  0  0  0  0  0  0  0
    8.0928    2.6035  -14.2475 C   0  0  0  0  0  0  0  0  0  0  0  0
    7.9861    1.2810  -14.7181 C   0  0  0  0  0  0  0  0  0  0  0  0
    9.1414    0.5283  -14.9810 C   0  0  0  0  0  0  0  0  0  0  0  0
   10.4022    1.0973  -14.7455 C   0  0  0  0  0  0  0  0  0  0  0  0
   10.5116    2.4100  -14.2471 C   0  0  0  0  0  0  0  0  0  0  0  0
    9.6867    4.8749  -12.1800 O   0  0  0  0  0  0  0  0  0  0  0  0
   12.2682   11.2171   -5.8790 H   0  0  0  0  0  0  0  0  0  0  0  0
   12.9919   10.1181   -3.9762 H   0  0  0  0  0  0  0  0  0  0  0  0
   12.9735    7.9980   -2.7092 H   0  0  0  0  0  0  0  0  0  0  0  0
   11.6859    6.0455   -3.5570 H   0  0  0  0  0  0  0  0  0  0  0  0
   10.3763    6.2230   -5.6161 H   0  0  0  0  0  0  0  0  0  0  0  0
    8.4705    7.7268   -6.4544 H   0  0  0  0  0  0  0  0  0  0  0  0
    8.4092    8.3734   -8.0670 H   0  0  0  0  0  0  0  0  0  0  0  0
   10.2499    6.0123   -7.8301 H   0  0  0  0  0  0  0  0  0  0  0  0
    8.5736    5.6727   -7.4351 H   0  0  0  0  0  0  0  0  0  0  0  0
    7.9666    6.6867   -9.5566 H   0  0  0  0  0  0  0  0  0  0  0  0
    9.7942    4.3626   -9.6649 H   0  0  0  0  0  0  0  0  0  0  0  0
    8.0868    4.3367   -9.3056 H   0  0  0  0  0  0  0  0  0  0  0  0
    8.1821    3.6968  -11.5328 H   0  0  0  0  0  0  0  0  0  0  0  0
    6.4614    5.4192  -11.2843 H   0  0  0  0  0  0  0  0  0  0  0  0
    7.6149    6.6560  -11.7869 H   0  0  0  0  0  0  0  0  0  0  0  0
    8.4857    6.5722  -13.8443 H   0  0  0  0  0  0  0  0  0  0  0  0
    8.0861    5.3866  -15.0458 H   0  0  0  0  0  0  0  0  0  0  0  0
   10.0995    4.5416  -16.3007 H   0  0  0  0  0  0  0  0  0  0  0  0
   11.8869    5.6945  -17.5601 H   0  0  0  0  0  0  0  0  0  0  0  0
   13.4781    7.1955  -16.3725 H   0  0  0  0  0  0  0  0  0  0  0  0
   13.2847    7.5126  -13.9202 H   0  0  0  0  0  0  0  0  0  0  0  0
   11.5342    6.3564  -12.6401 H   0  0  0  0  0  0  0  0  0  0  0  0
    7.1705    3.1367  -14.1005 H   0  0  0  0  0  0  0  0  0  0  0  0
    7.0129    0.8508  -14.8941 H   0  0  0  0  0  0  0  0  0  0  0  0
    9.0607   -0.4818  -15.3561 H   0  0  0  0  0  0  0  0  0  0  0  0
   11.2858    0.5172  -14.9521 H   0  0  0  0  0  0  0  0  0  0  0  0
   11.4962    2.8189  -14.0799 H   0  0  0  0  0  0  0  0  0  0  0  0
    9.5575    6.7893   -9.9549 H   0  0  0  0  0  0  0  0  0  0  0  0
  2  1  1  0
  3  2  2  0
  4  3  1  0
  5  4  2  0
  6  5  1  0
  7  2  1  0
  7  6  2  0
  8  7  1  0
  9  8  1  0
 10  9  1  0
 11 10  1  0
 12 11  1  0
 13 12  1  0
 14 13  1  0
 15 14  1  0
 16 15  1  0
 17 16  1  0
 18 17  1  0
 19 18  2  0
 20 19  1  0
 21 20  2  0
 22 21  1  0
 23 18  1  0
 23 22  2  0
 24 17  1  0
 25 24  2  0
 26 25  1  0
 27 26  2  0
 28 27  1  0
 29 24  1  0
 29 28  2  0
 30 13  1  0
 30 17  1  0
 31  1  1  0
 32  3  1  0
 33  4  1  0
 34  5  1  0
 35  6  1  0
 36  9  1  0
 37  9  1  0
 38 10  1  0
 39 10  1  0
 40 11  1  0
 41 12  1  0
 42 12  1  0
 13 43  1  1
 44 14  1  0
 45 14  1  0
 46 16  1  0
 47 16  1  0
 48 19  1  0
 49 20  1  0
 50 21  1  0
 51 22  1  0
 52 23  1  0
 53 25  1  0
 54 26  1  0
 55 27  1  0
 56 28  1  0
 57 29  1  0
 58 11  1  0
M  CHG  1  11   1
M  END
>  <b_m_subgroup_collapsed>  (224) 
0

>  <r_i_docking_score>  (224) 
-8.4993559393863105

>  <s_m_subgroup_title>  (224) 
glide-dock_SP_D22_pv

>  <s_m_subgroupid>  (224) 
glide-dock_SP_D22_pv

>  <Molecule ChEMBL ID>  (224) 
CHEMBL4082195

>  <Standard Type>  (224) 
Ki

>  <Standard Value>  (224) 
15.49

>  <label>  (224) 
1

$$$$
CHEMBL5407341
     RDKit          3D

 70 73  0  0  1  0  0  0  0  0999 V2000
    4.5058   -1.2019  -14.8694 C   0  0  0  0  0  0  0  0  0  0  0  0
    5.8301   -0.6874  -14.8611 O   0  0  0  0  0  0  0  0  0  0  0  0
    6.0268    0.5790  -14.3540 C   0  0  0  0  0  0  0  0  0  0  0  0
    5.1256    1.1833  -13.4468 C   0  0  0  0  0  0  0  0  0  0  0  0
    5.3532    2.4836  -12.9634 C   0  0  0  0  0  0  0  0  0  0  0  0
    6.4860    3.2127  -13.3683 C   0  0  0  0  0  0  0  0  0  0  0  0
    6.6514    4.5127  -12.8094 N   0  0  0  0  0  0  0  0  0  0  0  0
    7.6807    5.3721  -12.9159 C   0  0  0  0  0  0  0  0  0  0  0  0
    8.7206    5.1789  -13.5423 O   0  0  0  0  0  0  0  0  0  0  0  0
    7.4395    6.5051  -12.2469 N   0  0  0  0  0  0  0  0  0  0  0  0
    8.3328    7.6493  -12.1178 C   0  0  0  0  0  0  0  0  0  0  0  0
    9.4662    7.4039  -11.1252 C   0  0  0  0  0  0  0  0  0  0  0  0
    8.9130    7.3545   -9.7057 C   0  0  0  0  0  0  0  0  0  0  0  0
    9.9382    7.0797   -8.6969 N   0  0  0  0  0  0  0  0  0  0  0  0
    9.3140    6.5682   -7.4529 C   0  0  0  0  0  0  0  0  0  0  0  0
   10.4038    6.1723   -6.4684 C   0  0  0  0  0  0  0  0  0  0  0  0
   11.2860    7.2806   -6.2468 N   0  0  0  0  0  0  0  0  0  0  0  0
   11.5213    7.7257   -4.9395 C   0  0  0  0  0  0  0  0  0  0  0  0
   11.8962    6.8251   -3.9213 C   0  0  0  0  0  0  0  0  0  0  0  0
   12.1785    7.2906   -2.6258 C   0  0  0  0  0  0  0  0  0  0  0  0
   12.0872    8.6645   -2.3417 C   0  0  0  0  0  0  0  0  0  0  0  0
   11.6862    9.5636   -3.3469 C   0  0  0  0  0  0  0  0  0  0  0  0
   11.3821    9.0907   -4.6424 C   0  0  0  0  0  0  0  0  0  0  0  0
   10.8827    9.8925   -5.6309 O   0  0  0  0  0  0  0  0  0  0  0  0
   11.5985   11.0712   -5.8470 C   0  0  0  0  0  0  0  0  0  0  0  0
   11.9002    7.9085   -7.4122 C   0  0  0  0  0  0  0  0  0  0  0  0
   10.8252    8.2508   -8.4460 C   0  0  0  0  0  0  0  0  0  0  0  0
    7.3925    2.6043  -14.2676 C   0  0  0  0  0  0  0  0  0  0  0  0
    7.1798    1.2964  -14.7595 C   0  0  0  0  0  0  0  0  0  0  0  0
    8.1633    0.7183  -15.6930 C   0  0  0  0  0  0  0  0  0  0  0  0
    9.5355    0.7106  -15.3598 C   0  0  0  0  0  0  0  0  0  0  0  0
   10.4861    0.1723  -16.2458 C   0  0  0  0  0  0  0  0  0  0  0  0
   10.0781   -0.3785  -17.4740 C   0  0  0  0  0  0  0  0  0  0  0  0
   10.9937   -0.9165  -18.3143 F   0  0  0  0  0  0  0  0  0  0  0  0
    8.7159   -0.3695  -17.8243 C   0  0  0  0  0  0  0  0  0  0  0  0
    7.7671    0.1792  -16.9390 C   0  0  0  0  0  0  0  0  0  0  0  0
    4.4812   -2.1276  -15.4452 H   0  0  0  0  0  0  0  0  0  0  0  0
    4.1574   -1.4279  -13.8621 H   0  0  0  0  0  0  0  0  0  0  0  0
    3.8110   -0.5039  -15.3392 H   0  0  0  0  0  0  0  0  0  0  0  0
    4.2430    0.6661  -13.1093 H   0  0  0  0  0  0  0  0  0  0  0  0
    4.6522    2.9164  -12.2686 H   0  0  0  0  0  0  0  0  0  0  0  0
    5.8955    4.8175  -12.2150 H   0  0  0  0  0  0  0  0  0  0  0  0
    6.5874    6.6057  -11.7048 H   0  0  0  0  0  0  0  0  0  0  0  0
    7.7427    8.5245  -11.8469 H   0  0  0  0  0  0  0  0  0  0  0  0
    8.7645    7.9278  -13.0469 H   0  0  0  0  0  0  0  0  0  0  0  0
   10.1890    8.2123  -11.2289 H   0  0  0  0  0  0  0  0  0  0  0  0
    9.9943    6.4809  -11.3693 H   0  0  0  0  0  0  0  0  0  0  0  0
    8.1422    6.5779   -9.6490 H   0  0  0  0  0  0  0  0  0  0  0  0
    8.4860    8.3226   -9.4564 H   0  0  0  0  0  0  0  0  0  0  0  0
    8.6888    5.6995   -7.6638 H   0  0  0  0  0  0  0  0  0  0  0  0
    8.6623    7.3300   -7.0191 H   0  0  0  0  0  0  0  0  0  0  0  0
   11.0073    5.3724   -6.8949 H   0  0  0  0  0  0  0  0  0  0  0  0
    9.9749    5.8475   -5.5259 H   0  0  0  0  0  0  0  0  0  0  0  0
   11.9920    5.7724   -4.1372 H   0  0  0  0  0  0  0  0  0  0  0  0
   12.4743    6.5936   -1.8549 H   0  0  0  0  0  0  0  0  0  0  0  0
   12.3028    9.0303   -1.3482 H   0  0  0  0  0  0  0  0  0  0  0  0
   11.5784   10.6059   -3.0954 H   0  0  0  0  0  0  0  0  0  0  0  0
   11.3405   11.4649   -6.8228 H   0  0  0  0  0  0  0  0  0  0  0  0
   11.2860   11.7723   -5.0730 H   0  0  0  0  0  0  0  0  0  0  0  0
   12.6770   10.9102   -5.8469 H   0  0  0  0  0  0  0  0  0  0  0  0
   12.4823    8.7911   -7.1484 H   0  0  0  0  0  0  0  0  0  0  0  0
   12.6082    7.2066   -7.8468 H   0  0  0  0  0  0  0  0  0  0  0  0
   11.3124    8.5822   -9.3621 H   0  0  0  0  0  0  0  0  0  0  0  0
   10.2258    9.0888   -8.0863 H   0  0  0  0  0  0  0  0  0  0  0  0
    8.2728    3.1253  -14.6074 H   0  0  0  0  0  0  0  0  0  0  0  0
    9.8643    1.1180  -14.4139 H   0  0  0  0  0  0  0  0  0  0  0  0
   11.5320    0.1764  -15.9794 H   0  0  0  0  0  0  0  0  0  0  0  0
    8.3973   -0.7890  -18.7672 H   0  0  0  0  0  0  0  0  0  0  0  0
    6.7229    0.1779  -17.2163 H   0  0  0  0  0  0  0  0  0  0  0  0
   10.5140    6.3303   -9.0514 H   0  0  0  0  0  0  0  0  0  0  0  0
  2  1  1  0
  3  2  1  0
  4  3  1  0
  5  4  2  0
  6  5  1  0
  7  6  1  0
  8  7  1  0
  9  8  2  0
 10  8  1  0
 11 10  1  0
 12 11  1  0
 13 12  1  0
 14 13  1  0
 15 14  1  0
 16 15  1  0
 17 16  1  0
 18 17  1  0
 19 18  2  0
 20 19  1  0
 21 20  2  0
 22 21  1  0
 23 18  1  0
 23 22  2  0
 24 23  1  0
 25 24  1  0
 26 17  1  0
 27 14  1  0
 27 26  1  0
 28  6  2  0
 29  3  2  0
 29 28  1  0
 30 29  1  0
 31 30  1  0
 32 31  2  0
 33 32  1  0
 34 33  1  0
 35 33  2  0
 36 30  2  0
 36 35  1  0
 37  1  1  0
 38  1  1  0
 39  1  1  0
 40  4  1  0
 41  5  1  0
 42  7  1  0
 43 10  1  0
 44 11  1  0
 45 11  1  0
 46 12  1  0
 47 12  1  0
 48 13  1  0
 49 13  1  0
 50 15  1  0
 51 15  1  0
 52 16  1  0
 53 16  1  0
 54 19  1  0
 55 20  1  0
 56 21  1  0
 57 22  1  0
 58 25  1  0
 59 25  1  0
 60 25  1  0
 61 26  1  0
 62 26  1  0
 63 27  1  0
 64 27  1  0
 65 28  1  0
 66 31  1  0
 67 32  1  0
 68 35  1  0
 69 36  1  0
 70 14  1  0
M  CHG  1  14   1
M  END
>  <b_m_subgroup_collapsed>  (225) 
0

>  <r_i_docking_score>  (225) 
-8.4927538714931607

>  <s_m_subgroup_title>  (225) 
glide-dock_SP_D22_pv

>  <s_m_subgroupid>  (225) 
glide-dock_SP_D22_pv

>  <Molecule ChEMBL ID>  (225) 
CHEMBL5407341

>  <Standard Type>  (225) 
Ki

>  <Standard Value>  (225) 
53.0

>  <label>  (225) 
1

$$$$
CHEMBL5777100
     RDKit          3D

 64 68  0  0  1  0  0  0  0  0999 V2000
    8.0867    5.7741  -13.4531 O   0  0  0  0  0  0  0  0  0  0  0  0
    9.0293    5.1354  -13.0019 C   0  0  0  0  0  0  0  0  0  0  0  0
    9.8478    4.3845  -13.7512 N   0  0  0  0  0  0  0  0  0  0  0  0
    9.8151    4.2799  -15.2107 C   0  0  1  0  0  0  0  0  0  0  0  0
   10.9840    5.0014  -15.8794 C   0  0  0  0  0  0  0  0  0  0  0  0
   12.2305    5.1727  -15.2123 C   0  0  0  0  0  0  0  0  0  0  0  0
   13.3019    5.8492  -15.8404 C   0  0  0  0  0  0  0  0  0  0  0  0
   13.0971    6.3433  -17.1368 C   0  0  0  0  0  0  0  0  0  0  0  0
   11.8987    6.1732  -17.7928 C   0  0  0  0  0  0  0  0  0  0  0  0
   10.8193    5.5027  -17.1956 C   0  0  0  0  0  0  0  0  0  0  0  0
   11.9763    6.7385  -19.0243 O   0  0  0  0  0  0  0  0  0  0  0  0
   13.2897    7.2271  -19.1531 C   0  0  0  0  0  0  0  0  0  0  0  0
   13.9193    6.5778  -20.1306 F   0  0  0  0  0  0  0  0  0  0  0  0
   13.2861    8.5203  -19.4686 F   0  0  0  0  0  0  0  0  0  0  0  0
   13.9609    7.0159  -17.9361 O   0  0  0  0  0  0  0  0  0  0  0  0
    9.7268    2.8268  -15.6610 C   0  0  0  0  0  0  0  0  0  0  0  0
   10.4825    1.8157  -15.0257 C   0  0  0  0  0  0  0  0  0  0  0  0
   10.3323    0.4902  -15.4667 C   0  0  0  0  0  0  0  0  0  0  0  0
    9.4475    0.2179  -16.5249 C   0  0  0  0  0  0  0  0  0  0  0  0
    8.7454    1.2949  -17.0988 C   0  0  0  0  0  0  0  0  0  0  0  0
    8.8775    2.5715  -16.6827 N   0  0  0  0  0  0  0  0  0  0  0  0
    9.3311    5.2105  -11.5105 C   0  0  1  0  0  0  0  0  0  0  0  0
    9.8455    6.6224  -11.1422 C   0  0  0  0  0  0  0  0  0  0  0  0
   10.0707    6.7864   -9.6287 C   0  0  0  0  0  0  0  0  0  0  0  0
    8.8614    6.3801   -8.8681 N   0  0  2  0  0  0  0  0  0  0  0  0
    8.9465    6.5788   -7.4039 C   0  0  0  0  0  0  0  0  0  0  0  0
    9.1865    8.0400   -6.9930 C   0  0  0  0  0  0  0  0  0  0  0  0
   10.5792    8.3267   -6.8994 O   0  0  0  0  0  0  0  0  0  0  0  0
   11.0943    8.2420   -5.6294 C   0  0  0  0  0  0  0  0  0  0  0  0
   11.2861    6.9990   -4.9885 C   0  0  0  0  0  0  0  0  0  0  0  0
   11.7523    6.9479   -3.6612 C   0  0  0  0  0  0  0  0  0  0  0  0
   12.0807    8.1338   -2.9799 C   0  0  0  0  0  0  0  0  0  0  0  0
   11.9204    9.3733   -3.6251 C   0  0  0  0  0  0  0  0  0  0  0  0
   11.4288    9.4284   -4.9456 C   0  0  0  0  0  0  0  0  0  0  0  0
   11.2595   10.6230   -5.5590 F   0  0  0  0  0  0  0  0  0  0  0  0
    8.4863    4.9848   -9.1878 C   0  0  0  0  0  0  0  0  0  0  0  0
    8.0909    4.8890  -10.6643 C   0  0  0  0  0  0  0  0  0  0  0  0
   10.5637    3.8533  -13.2815 H   0  0  0  0  0  0  0  0  0  0  0  0
    8.9113    4.7763  -15.5698 H   0  0  0  0  0  0  0  0  0  0  0  0
   12.3804    4.7868  -14.2165 H   0  0  0  0  0  0  0  0  0  0  0  0
   14.2477    5.9842  -15.3368 H   0  0  0  0  0  0  0  0  0  0  0  0
    9.8868    5.3788  -17.7277 H   0  0  0  0  0  0  0  0  0  0  0  0
   11.1580    2.0411  -14.2152 H   0  0  0  0  0  0  0  0  0  0  0  0
   10.8864   -0.3074  -14.9986 H   0  0  0  0  0  0  0  0  0  0  0  0
    9.3043   -0.7903  -16.8844 H   0  0  0  0  0  0  0  0  0  0  0  0
    8.0541    1.1267  -17.9116 H   0  0  0  0  0  0  0  0  0  0  0  0
   10.0862    4.4660  -11.2737 H   0  0  0  0  0  0  0  0  0  0  0  0
   10.7745    6.8374  -11.6738 H   0  0  0  0  0  0  0  0  0  0  0  0
    9.1252    7.3734  -11.4725 H   0  0  0  0  0  0  0  0  0  0  0  0
   10.9158    6.1803   -9.3047 H   0  0  0  0  0  0  0  0  0  0  0  0
   10.3241    7.8274   -9.4266 H   0  0  0  0  0  0  0  0  0  0  0  0
    7.9903    6.2737   -6.9732 H   0  0  0  0  0  0  0  0  0  0  0  0
    9.6871    5.9007   -6.9941 H   0  0  0  0  0  0  0  0  0  0  0  0
    8.7182    8.7231   -7.7032 H   0  0  0  0  0  0  0  0  0  0  0  0
    8.6928    8.2272   -6.0421 H   0  0  0  0  0  0  0  0  0  0  0  0
   11.0865    6.0709   -5.4931 H   0  0  0  0  0  0  0  0  0  0  0  0
   11.8863    5.9936   -3.1727 H   0  0  0  0  0  0  0  0  0  0  0  0
   12.4480    8.0954   -1.9650 H   0  0  0  0  0  0  0  0  0  0  0  0
   12.1608   10.2828   -3.0967 H   0  0  0  0  0  0  0  0  0  0  0  0
    9.3214    4.3130   -8.9712 H   0  0  0  0  0  0  0  0  0  0  0  0
    7.6860    4.6611   -8.5353 H   0  0  0  0  0  0  0  0  0  0  0  0
    7.2867    5.5935  -10.8786 H   0  0  0  0  0  0  0  0  0  0  0  0
    7.6941    3.9023  -10.9020 H   0  0  0  0  0  0  0  0  0  0  0  0
    8.0832    6.9555   -9.1890 H   0  0  0  0  0  0  0  0  0  0  0  0
  2  1  2  0
  3  2  1  0
  4  3  1  0
  5  4  1  0
  6  5  1  0
  7  6  2  0
  8  7  1  0
  9  8  2  0
 10  5  2  0
 10  9  1  0
 11  9  1  0
 12 11  1  0
 13 12  1  0
 14 12  1  0
 15  8  1  0
 15 12  1  0
 16  4  1  0
 17 16  2  0
 18 17  1  0
 19 18  2  0
 20 19  1  0
 21 16  1  0
 21 20  2  0
 22  2  1  0
 23 22  1  0
 24 23  1  0
 25 24  1  0
 26 25  1  0
 27 26  1  0
 28 27  1  0
 29 28  1  0
 30 29  2  0
 31 30  1  0
 32 31  2  0
 33 32  1  0
 34 29  1  0
 34 33  2  0
 35 34  1  0
 36 25  1  0
 37 22  1  0
 37 36  1  0
 38  3  1  0
  4 39  1  6
 40  6  1  0
 41  7  1  0
 42 10  1  0
 43 17  1  0
 44 18  1  0
 45 19  1  0
 46 20  1  0
 22 47  1  6
 48 23  1  0
 49 23  1  0
 50 24  1  0
 51 24  1  0
 52 26  1  0
 53 26  1  0
 54 27  1  0
 55 27  1  0
 56 30  1  0
 57 31  1  0
 58 32  1  0
 59 33  1  0
 60 36  1  0
 61 36  1  0
 62 37  1  0
 63 37  1  0
 25 64  1  6
M  CHG  1  25   1
M  END
>  <b_m_subgroup_collapsed>  (226) 
0

>  <r_i_docking_score>  (226) 
-8.4886953613146492

>  <s_m_subgroup_title>  (226) 
glide-dock_SP_D22_pv

>  <s_m_subgroupid>  (226) 
glide-dock_SP_D22_pv

>  <Molecule ChEMBL ID>  (226) 
CHEMBL5777100

>  <Standard Type>  (226) 
Ki

>  <Standard Value>  (226) 
55.0

>  <label>  (226) 
1

$$$$
CHEMBL2207492
     RDKit          3D

 40 42  0  0  1  0  0  0  0  0999 V2000
    7.5442    4.3977  -12.7315 C   0  0  0  0  0  0  0  0  0  0  0  0
    7.5921    5.5092  -11.6767 C   0  0  0  0  0  0  0  0  0  0  0  0
    8.3006    5.0735  -10.3828 C   0  0  0  0  0  0  0  0  0  0  0  0
    8.4863    6.1721   -9.3906 N   0  0  2  0  0  0  0  0  0  0  0  0
    9.6124    7.0827   -9.7641 C   0  0  0  0  0  0  0  0  0  0  0  0
    9.9906    8.0922   -8.6617 C   0  0  0  0  0  0  0  0  0  0  0  0
   10.2765    7.3795   -7.3228 C   0  0  1  0  0  0  0  0  0  0  0  0
   10.7595    8.2639   -6.2587 N   0  0  0  0  0  0  0  0  0  0  0  0
   10.8131    9.6076   -6.2646 C   0  0  0  0  0  0  0  0  0  0  0  0
   11.2755   10.2283   -5.1891 N   0  0  0  0  0  0  0  0  0  0  0  0
   11.5921    9.1626   -4.3791 C   0  0  0  0  0  0  0  0  0  0  0  0
   12.1288    9.1492   -3.0748 C   0  0  0  0  0  0  0  0  0  0  0  0
   12.3656    7.9281   -2.4160 C   0  0  0  0  0  0  0  0  0  0  0  0
   12.0718    6.7071   -3.0548 C   0  0  0  0  0  0  0  0  0  0  0  0
   11.5363    6.7004   -4.3599 C   0  0  0  0  0  0  0  0  0  0  0  0
   11.2880    7.9190   -5.0140 C   0  0  0  0  0  0  0  0  0  0  0  0
    8.9776    6.6601   -6.9434 C   0  0  0  0  0  0  0  0  0  0  0  0
    8.6199    5.6123   -8.0151 C   0  0  0  0  0  0  0  0  0  0  0  0
    7.0686    4.7527  -13.6470 H   0  0  0  0  0  0  0  0  0  0  0  0
    8.5427    4.0431  -12.9857 H   0  0  0  0  0  0  0  0  0  0  0  0
    6.9624    3.5475  -12.3743 H   0  0  0  0  0  0  0  0  0  0  0  0
    6.5647    5.7877  -11.4492 H   0  0  0  0  0  0  0  0  0  0  0  0
    8.0775    6.3839  -12.1082 H   0  0  0  0  0  0  0  0  0  0  0  0
    9.2675    4.6261  -10.6131 H   0  0  0  0  0  0  0  0  0  0  0  0
    7.7041    4.2730   -9.9422 H   0  0  0  0  0  0  0  0  0  0  0  0
    9.3468    7.6295  -10.6697 H   0  0  0  0  0  0  0  0  0  0  0  0
   10.5032    6.5057  -10.0062 H   0  0  0  0  0  0  0  0  0  0  0  0
    9.1792    8.8126   -8.5418 H   0  0  0  0  0  0  0  0  0  0  0  0
   10.8660    8.6583   -8.9848 H   0  0  0  0  0  0  0  0  0  0  0  0
   11.0613    6.6375   -7.4799 H   0  0  0  0  0  0  0  0  0  0  0  0
   10.4685   10.1705   -7.1075 H   0  0  0  0  0  0  0  0  0  0  0  0
   12.3564   10.0838   -2.5823 H   0  0  0  0  0  0  0  0  0  0  0  0
   12.7731    7.9316   -1.4156 H   0  0  0  0  0  0  0  0  0  0  0  0
   12.2492    5.7720   -2.5415 H   0  0  0  0  0  0  0  0  0  0  0  0
   11.2988    5.7724   -4.8514 H   0  0  0  0  0  0  0  0  0  0  0  0
    9.0841    6.1723   -5.9754 H   0  0  0  0  0  0  0  0  0  0  0  0
    8.1624    7.3776   -6.8303 H   0  0  0  0  0  0  0  0  0  0  0  0
    7.6860    5.1237   -7.7400 H   0  0  0  0  0  0  0  0  0  0  0  0
    9.3883    4.8379   -8.0242 H   0  0  0  0  0  0  0  0  0  0  0  0
    7.6285    6.7327   -9.4048 H   0  0  0  0  0  0  0  0  0  0  0  0
  2  1  1  0
  3  2  1  0
  4  3  1  0
  5  4  1  0
  6  5  1  0
  7  6  1  0
  8  7  1  0
  9  8  1  0
 10  9  2  0
 11 10  1  0
 12 11  2  0
 13 12  1  0
 14 13  2  0
 15 14  1  0
 16  8  1  0
 16 11  1  0
 16 15  2  0
 17  7  1  0
 18  4  1  0
 18 17  1  0
 19  1  1  0
 20  1  1  0
 21  1  1  0
 22  2  1  0
 23  2  1  0
 24  3  1  0
 25  3  1  0
 26  5  1  0
 27  5  1  0
 28  6  1  0
 29  6  1  0
  7 30  1  6
 31  9  1  0
 32 12  1  0
 33 13  1  0
 34 14  1  0
 35 15  1  0
 36 17  1  0
 37 17  1  0
 38 18  1  0
 39 18  1  0
  4 40  1  1
M  CHG  1   4   1
M  END
>  <b_m_subgroup_collapsed>  (227) 
0

>  <r_i_docking_score>  (227) 
-8.4885461943079292

>  <s_m_subgroup_title>  (227) 
glide-dock_SP_D22_pv

>  <s_m_subgroupid>  (227) 
glide-dock_SP_D22_pv

>  <Molecule ChEMBL ID>  (227) 
CHEMBL2207492

>  <Standard Type>  (227) 
Ki

>  <Standard Value>  (227) 
10820.0

>  <label>  (227) 
0

$$$$
CHEMBL5646837
     RDKit          3D

 78 81  0  0  1  0  0  0  0  0999 V2000
    5.0104    1.4460  -13.1978 C   0  0  0  0  0  0  0  0  0  0  0  0
    5.2081    2.5817  -12.5114 C   0  0  0  0  0  0  0  0  0  0  0  0
    5.7883    3.8505  -13.1013 C   0  0  0  0  0  0  0  0  0  0  0  0
    7.2124    3.9222  -12.7125 N   0  0  2  0  0  0  0  0  0  0  0  0
    7.5824    5.0024  -11.7799 C   0  0  0  0  0  0  0  0  0  0  0  0
    9.1061    5.1471  -11.8934 C   0  0  2  0  0  0  0  0  0  0  0  0
    9.4449    6.5181  -12.0719 O   0  0  0  0  0  0  0  0  0  0  0  0
    9.7012    7.3886  -11.0547 C   0  0  0  0  0  0  0  0  0  0  0  0
    9.9129    8.5723  -11.2767 O   0  0  0  0  0  0  0  0  0  0  0  0
    9.6848    6.7759   -9.8076 N   0  0  0  0  0  0  0  0  0  0  0  0
   10.1411    7.2797   -8.5687 C   0  0  0  0  0  0  0  0  0  0  0  0
   10.8882    8.4732   -8.4060 C   0  0  0  0  0  0  0  0  0  0  0  0
   11.3607    8.8386   -7.1297 C   0  0  0  0  0  0  0  0  0  0  0  0
   11.1094    8.0105   -6.0123 C   0  0  0  0  0  0  0  0  0  0  0  0
   11.6127    8.3364   -4.6818 C   0  0  0  0  0  0  0  0  0  0  0  0
   11.6128    9.6757   -4.1940 C   0  0  0  0  0  0  0  0  0  0  0  0
   12.0471    9.7722   -2.9008 C   0  0  0  0  0  0  0  0  0  0  0  0
   12.4858    8.2265   -2.2458 S   0  0  0  0  0  0  0  0  0  0  0  0
   12.0818    7.4482   -3.7444 C   0  0  0  0  0  0  0  0  0  0  0  0
   10.3550    6.8359   -6.1833 C   0  0  0  0  0  0  0  0  0  0  0  0
    9.8676    6.4775   -7.4478 C   0  0  0  0  0  0  0  0  0  0  0  0
    9.5136    4.3289  -13.1238 C   0  0  0  0  0  0  0  0  0  0  0  0
    8.2010    3.9343  -13.8092 C   0  0  1  0  0  0  0  0  0  0  0  0
    8.2589    2.5806  -14.5481 C   0  0  0  0  0  0  0  0  0  0  0  0
    9.3681    2.5152  -15.4879 N   0  0  0  0  0  0  0  0  0  0  0  0
    9.2728    2.2434  -16.7945 C   0  0  0  0  0  0  0  0  0  0  0  0
    8.2091    2.1703  -17.4108 O   0  0  0  0  0  0  0  0  0  0  0  0
   10.5942    1.9860  -17.4525 C   0  0  0  0  0  0  0  0  0  0  0  0
   11.5963    2.9736  -17.3783 C   0  0  0  0  0  0  0  0  0  0  0  0
   12.8491    2.7605  -17.9743 C   0  0  0  0  0  0  0  0  0  0  0  0
   13.9250    3.8225  -17.8608 C   0  0  0  0  0  0  0  0  0  0  0  0
   13.8285    4.8715  -18.9762 C   0  0  0  0  0  0  0  0  0  0  0  0
   14.8502    6.0036  -18.8104 C   0  0  0  0  0  0  0  0  0  0  0  0
   16.0923    5.5263  -18.8887 F   0  0  0  0  0  0  0  0  0  0  0  0
   13.1037    1.5505  -18.6469 C   0  0  0  0  0  0  0  0  0  0  0  0
   12.1225    0.5288  -18.7091 C   0  0  0  0  0  0  0  0  0  0  0  0
   12.3693   -0.7043  -19.2776 O   0  0  0  0  0  0  0  0  0  0  0  0
   13.6577   -0.9679  -19.8184 C   0  0  0  0  0  0  0  0  0  0  0  0
   10.8455    0.7637  -18.1253 C   0  0  0  0  0  0  0  0  0  0  0  0
    9.8472   -0.1882  -18.1115 O   0  0  0  0  0  0  0  0  0  0  0  0
    9.5711   -0.8685  -19.3267 C   0  0  0  0  0  0  0  0  0  0  0  0
    5.2637    1.3646  -14.2451 H   0  0  0  0  0  0  0  0  0  0  0  0
    4.5961    0.5696  -12.7231 H   0  0  0  0  0  0  0  0  0  0  0  0
    4.9536    2.6099  -11.4598 H   0  0  0  0  0  0  0  0  0  0  0  0
    5.6776    3.8404  -14.1859 H   0  0  0  0  0  0  0  0  0  0  0  0
    5.2322    4.7117  -12.7352 H   0  0  0  0  0  0  0  0  0  0  0  0
    7.0834    5.9311  -12.0682 H   0  0  0  0  0  0  0  0  0  0  0  0
    7.2859    4.7667  -10.7578 H   0  0  0  0  0  0  0  0  0  0  0  0
    9.6063    4.7043  -11.0325 H   0  0  0  0  0  0  0  0  0  0  0  0
    9.3317    5.8340   -9.7925 H   0  0  0  0  0  0  0  0  0  0  0  0
   11.1286    9.1092   -9.2437 H   0  0  0  0  0  0  0  0  0  0  0  0
   11.9471    9.7399   -7.0209 H   0  0  0  0  0  0  0  0  0  0  0  0
   11.2655   10.5113   -4.7839 H   0  0  0  0  0  0  0  0  0  0  0  0
   12.0861   10.6506   -2.2749 H   0  0  0  0  0  0  0  0  0  0  0  0
   12.1761    6.3771   -3.8343 H   0  0  0  0  0  0  0  0  0  0  0  0
   10.1430    6.1882   -5.3449 H   0  0  0  0  0  0  0  0  0  0  0  0
    9.2981    5.5657   -7.5559 H   0  0  0  0  0  0  0  0  0  0  0  0
   10.1874    4.8675  -13.7921 H   0  0  0  0  0  0  0  0  0  0  0  0
   10.0415    3.4367  -12.7860 H   0  0  0  0  0  0  0  0  0  0  0  0
    7.9344    4.7298  -14.5067 H   0  0  0  0  0  0  0  0  0  0  0  0
    8.3962    1.7592  -13.8463 H   0  0  0  0  0  0  0  0  0  0  0  0
    7.3103    2.3899  -15.0544 H   0  0  0  0  0  0  0  0  0  0  0  0
   10.2994    2.5410  -15.1006 H   0  0  0  0  0  0  0  0  0  0  0  0
   11.4062    3.9050  -16.8640 H   0  0  0  0  0  0  0  0  0  0  0  0
   13.8426    4.3039  -16.8866 H   0  0  0  0  0  0  0  0  0  0  0  0
   14.9025    3.3433  -17.8744 H   0  0  0  0  0  0  0  0  0  0  0  0
   13.9650    4.3906  -19.9462 H   0  0  0  0  0  0  0  0  0  0  0  0
   12.8256    5.3018  -18.9815 H   0  0  0  0  0  0  0  0  0  0  0  0
   14.7415    6.7525  -19.5958 H   0  0  0  0  0  0  0  0  0  0  0  0
   14.7479    6.5045  -17.8460 H   0  0  0  0  0  0  0  0  0  0  0  0
   14.0833    1.4161  -19.0807 H   0  0  0  0  0  0  0  0  0  0  0  0
   13.6866   -1.9880  -20.1998 H   0  0  0  0  0  0  0  0  0  0  0  0
   13.8858   -0.2976  -20.6484 H   0  0  0  0  0  0  0  0  0  0  0  0
   14.4379   -0.8833  -19.0617 H   0  0  0  0  0  0  0  0  0  0  0  0
    8.5024   -1.0688  -19.3897 H   0  0  0  0  0  0  0  0  0  0  0  0
    9.8477   -0.2885  -20.2082 H   0  0  0  0  0  0  0  0  0  0  0  0
   10.0843   -1.8276  -19.3541 H   0  0  0  0  0  0  0  0  0  0  0  0
    7.3939    3.0677  -12.2064 H   0  0  0  0  0  0  0  0  0  0  0  0
  2  1  2  0
  3  2  1  0
  4  3  1  0
  5  4  1  0
  6  5  1  0
  7  6  1  0
  8  7  1  0
  9  8  2  0
 10  8  1  0
 11 10  1  0
 12 11  1  0
 13 12  2  0
 14 13  1  0
 15 14  1  0
 16 15  1  0
 17 16  2  0
 18 17  1  0
 19 15  2  0
 19 18  1  0
 20 14  2  0
 21 11  2  0
 21 20  1  0
 22  6  1  0
 23  4  1  0
 23 22  1  0
 24 23  1  0
 25 24  1  0
 26 25  1  0
 27 26  2  0
 28 26  1  0
 29 28  1  0
 30 29  2  0
 31 30  1  0
 32 31  1  0
 33 32  1  0
 34 33  1  0
 35 30  1  0
 36 35  2  0
 37 36  1  0
 38 37  1  0
 39 28  2  0
 39 36  1  0
 40 39  1  0
 41 40  1  0
 42  1  1  0
 43  1  1  0
 44  2  1  0
 45  3  1  0
 46  3  1  0
 47  5  1  0
 48  5  1  0
  6 49  1  1
 50 10  1  0
 51 12  1  0
 52 13  1  0
 53 16  1  0
 54 17  1  0
 55 19  1  0
 56 20  1  0
 57 21  1  0
 58 22  1  0
 59 22  1  0
 23 60  1  6
 61 24  1  0
 62 24  1  0
 63 25  1  0
 64 29  1  0
 65 31  1  0
 66 31  1  0
 67 32  1  0
 68 32  1  0
 69 33  1  0
 70 33  1  0
 71 35  1  0
 72 38  1  0
 73 38  1  0
 74 38  1  0
 75 41  1  0
 76 41  1  0
 77 41  1  0
  4 78  1  1
M  CHG  1   4   1
M  END
>  <b_m_subgroup_collapsed>  (228) 
0

>  <r_i_docking_score>  (228) 
-8.4884385743386197

>  <s_m_subgroup_title>  (228) 
glide-dock_SP_D22_pv

>  <s_m_subgroupid>  (228) 
glide-dock_SP_D22_pv

>  <Molecule ChEMBL ID>  (228) 
CHEMBL5646837

>  <Standard Type>  (228) 
Ki

>  <Standard Value>  (228) 
28.8

>  <label>  (228) 
1

$$$$
CHEMBL514098
     RDKit          3D

 73 76  0  0  1  0  0  0  0  0999 V2000
   13.0402    2.6147  -18.1857 C   0  0  0  0  0  0  0  0  0  0  0  0
   13.2457    3.7751  -17.3932 O   0  0  0  0  0  0  0  0  0  0  0  0
   12.4861    3.9219  -16.2520 C   0  0  0  0  0  0  0  0  0  0  0  0
   12.7739    5.0309  -15.4295 C   0  0  0  0  0  0  0  0  0  0  0  0
   12.0605    5.2460  -14.2353 C   0  0  0  0  0  0  0  0  0  0  0  0
   11.0399    4.3544  -13.8547 C   0  0  0  0  0  0  0  0  0  0  0  0
   10.7309    3.2447  -14.6666 C   0  0  0  0  0  0  0  0  0  0  0  0
    9.6221    2.2909  -14.2640 C   0  0  0  0  0  0  0  0  0  0  0  0
    8.4258    2.3417  -15.2264 C   0  0  0  0  0  0  0  0  0  0  0  0
    7.2606    1.4944  -14.7469 C   0  0  0  0  0  0  0  0  0  0  0  0
    7.1276    0.1686  -15.2024 C   0  0  0  0  0  0  0  0  0  0  0  0
    6.0450   -0.6226  -14.7836 C   0  0  0  0  0  0  0  0  0  0  0  0
    5.0876   -0.0888  -13.9001 C   0  0  0  0  0  0  0  0  0  0  0  0
    5.2290    1.2244  -13.4220 C   0  0  0  0  0  0  0  0  0  0  0  0
    6.3080    2.0312  -13.8517 C   0  0  0  0  0  0  0  0  0  0  0  0
    6.4863    3.3372  -13.4621 O   0  0  0  0  0  0  0  0  0  0  0  0
    5.5872    3.9105  -12.5280 C   0  0  0  0  0  0  0  0  0  0  0  0
    6.0904    5.3360  -12.3027 C   0  0  0  0  0  0  0  0  0  0  0  0
    7.4618    5.3641  -11.6171 C   0  0  0  0  0  0  0  0  0  0  0  0
    8.2862    6.6088  -11.9572 C   0  0  0  0  0  0  0  0  0  0  0  0
    9.5609    6.7244  -11.1142 C   0  0  0  0  0  0  0  0  0  0  0  0
    9.2860    7.2456   -9.7470 N   0  0  0  0  0  0  0  0  0  0  0  0
    9.3989    6.2009   -8.6872 C   0  0  0  0  0  0  0  0  0  0  0  0
    9.1307    6.7757   -7.2848 C   0  0  0  0  0  0  0  0  0  0  0  0
   10.0076    7.9179   -7.0554 N   0  0  0  0  0  0  0  0  0  0  0  0
   10.7096    8.0873   -5.8459 C   0  0  0  0  0  0  0  0  0  0  0  0
   11.2497    6.9741   -5.1571 C   0  0  0  0  0  0  0  0  0  0  0  0
   11.9222    7.1301   -3.9284 C   0  0  0  0  0  0  0  0  0  0  0  0
   12.0859    8.4108   -3.3750 C   0  0  0  0  0  0  0  0  0  0  0  0
   12.7282    8.5656   -2.1969 F   0  0  0  0  0  0  0  0  0  0  0  0
   11.5697    9.5317   -4.0494 C   0  0  0  0  0  0  0  0  0  0  0  0
   10.8879    9.3729   -5.2739 C   0  0  0  0  0  0  0  0  0  0  0  0
    9.8992    8.9911   -8.0279 C   0  0  0  0  0  0  0  0  0  0  0  0
   10.1061    8.4523   -9.4503 C   0  0  0  0  0  0  0  0  0  0  0  0
   11.4560    3.0292  -15.8585 C   0  0  0  0  0  0  0  0  0  0  0  0
   13.7537    2.6084  -19.0091 H   0  0  0  0  0  0  0  0  0  0  0  0
   13.1979    1.7014  -17.6083 H   0  0  0  0  0  0  0  0  0  0  0  0
   12.0373    2.6017  -18.6165 H   0  0  0  0  0  0  0  0  0  0  0  0
   13.5597    5.7163  -15.7134 H   0  0  0  0  0  0  0  0  0  0  0  0
   12.3020    6.0970  -13.6129 H   0  0  0  0  0  0  0  0  0  0  0  0
   10.4968    4.5200  -12.9380 H   0  0  0  0  0  0  0  0  0  0  0  0
    9.2875    2.5391  -13.2549 H   0  0  0  0  0  0  0  0  0  0  0  0
   10.0275    1.2806  -14.2226 H   0  0  0  0  0  0  0  0  0  0  0  0
    8.7270    2.0122  -16.2237 H   0  0  0  0  0  0  0  0  0  0  0  0
    8.0864    3.3719  -15.3383 H   0  0  0  0  0  0  0  0  0  0  0  0
    7.8568   -0.2485  -15.8842 H   0  0  0  0  0  0  0  0  0  0  0  0
    5.9478   -1.6380  -15.1410 H   0  0  0  0  0  0  0  0  0  0  0  0
    4.2430   -0.6879  -13.6045 H   0  0  0  0  0  0  0  0  0  0  0  0
    4.4823    1.6068  -12.7450 H   0  0  0  0  0  0  0  0  0  0  0  0
    4.5769    3.9329  -12.9395 H   0  0  0  0  0  0  0  0  0  0  0  0
    5.5743    3.3561  -11.5883 H   0  0  0  0  0  0  0  0  0  0  0  0
    6.1437    5.8336  -13.2684 H   0  0  0  0  0  0  0  0  0  0  0  0
    5.3772    5.9053  -11.7042 H   0  0  0  0  0  0  0  0  0  0  0  0
    7.2894    5.3116  -10.5492 H   0  0  0  0  0  0  0  0  0  0  0  0
    8.0454    4.4790  -11.8742 H   0  0  0  0  0  0  0  0  0  0  0  0
    8.5586    6.5572  -13.0116 H   0  0  0  0  0  0  0  0  0  0  0  0
    7.6868    7.5107  -11.8479 H   0  0  0  0  0  0  0  0  0  0  0  0
   10.0855    5.7708  -11.0688 H   0  0  0  0  0  0  0  0  0  0  0  0
   10.2371    7.4000  -11.6423 H   0  0  0  0  0  0  0  0  0  0  0  0
    8.7084    5.3777   -8.8779 H   0  0  0  0  0  0  0  0  0  0  0  0
   10.4044    5.7754   -8.7124 H   0  0  0  0  0  0  0  0  0  0  0  0
    8.0889    7.1042   -7.2064 H   0  0  0  0  0  0  0  0  0  0  0  0
    9.2534    6.0013   -6.5355 H   0  0  0  0  0  0  0  0  0  0  0  0
   11.1664    5.9803   -5.5653 H   0  0  0  0  0  0  0  0  0  0  0  0
   12.3143    6.2639   -3.4133 H   0  0  0  0  0  0  0  0  0  0  0  0
   11.6855   10.5126   -3.6133 H   0  0  0  0  0  0  0  0  0  0  0  0
   10.4857   10.2541   -5.7489 H   0  0  0  0  0  0  0  0  0  0  0  0
    8.9155    9.4486   -7.9291 H   0  0  0  0  0  0  0  0  0  0  0  0
   10.6461    9.7628   -7.8449 H   0  0  0  0  0  0  0  0  0  0  0  0
   11.1591    8.1948   -9.5762 H   0  0  0  0  0  0  0  0  0  0  0  0
    9.8812    9.2376  -10.1734 H   0  0  0  0  0  0  0  0  0  0  0  0
   11.2081    2.1671  -16.4571 H   0  0  0  0  0  0  0  0  0  0  0  0
    8.3106    7.5388   -9.7507 H   0  0  0  0  0  0  0  0  0  0  0  0
  2  1  1  0
  3  2  1  0
  4  3  1  0
  5  4  2  0
  6  5  1  0
  7  6  2  0
  8  7  1  0
  9  8  1  0
 10  9  1  0
 11 10  2  0
 12 11  1  0
 13 12  2  0
 14 13  1  0
 15 10  1  0
 15 14  2  0
 16 15  1  0
 17 16  1  0
 18 17  1  0
 19 18  1  0
 20 19  1  0
 21 20  1  0
 22 21  1  0
 23 22  1  0
 24 23  1  0
 25 24  1  0
 26 25  1  0
 27 26  1  0
 28 27  2  0
 29 28  1  0
 30 29  1  0
 31 29  2  0
 32 26  2  0
 32 31  1  0
 33 25  1  0
 34 22  1  0
 34 33  1  0
 35  3  2  0
 35  7  1  0
 36  1  1  0
 37  1  1  0
 38  1  1  0
 39  4  1  0
 40  5  1  0
 41  6  1  0
 42  8  1  0
 43  8  1  0
 44  9  1  0
 45  9  1  0
 46 11  1  0
 47 12  1  0
 48 13  1  0
 49 14  1  0
 50 17  1  0
 51 17  1  0
 52 18  1  0
 53 18  1  0
 54 19  1  0
 55 19  1  0
 56 20  1  0
 57 20  1  0
 58 21  1  0
 59 21  1  0
 60 23  1  0
 61 23  1  0
 62 24  1  0
 63 24  1  0
 64 27  1  0
 65 28  1  0
 66 31  1  0
 67 32  1  0
 68 33  1  0
 69 33  1  0
 70 34  1  0
 71 34  1  0
 72 35  1  0
 73 22  1  0
M  CHG  1  22   1
M  END
>  <b_m_subgroup_collapsed>  (229) 
0

>  <r_i_docking_score>  (229) 
-8.4884307041013294

>  <s_m_subgroup_title>  (229) 
glide-dock_SP_D22_pv

>  <s_m_subgroupid>  (229) 
glide-dock_SP_D22_pv

>  <Molecule ChEMBL ID>  (229) 
CHEMBL514098

>  <Standard Type>  (229) 
Ki

>  <Standard Value>  (229) 
847000.0

>  <label>  (229) 
0

$$$$
CHEMBL4086894
     RDKit          3D

 66 68  0  0  1  0  0  0  0  0999 V2000
    6.3076    4.9823  -12.8923 O   0  0  0  0  0  0  0  0  0  0  0  0
    7.1727    4.2597  -13.3841 C   0  0  0  0  0  0  0  0  0  0  0  0
    8.6088    4.7967  -13.4939 C   0  0  0  0  0  0  0  0  0  0  0  0
    9.2533    5.0701  -12.1245 C   0  0  0  0  0  0  0  0  0  0  0  0
    8.8756    6.4382  -11.5334 C   0  0  0  0  0  0  0  0  0  0  0  0
    9.5264    6.6672  -10.2181 N   0  0  2  0  0  0  0  0  0  0  0  0
    8.8177    5.9932   -9.0984 C   0  0  0  0  0  0  0  0  0  0  0  0
    9.5291    6.2096   -7.7513 C   0  0  0  0  0  0  0  0  0  0  0  0
    9.8291    7.6930   -7.4181 C   0  0  1  0  0  0  0  0  0  0  0  0
    8.5941    8.3568   -7.2623 O   0  0  0  0  0  0  0  0  0  0  0  0
   10.6480    7.8912   -6.1346 C   0  0  0  0  0  0  0  0  0  0  0  0
   10.8866    9.2045   -5.6590 C   0  0  0  0  0  0  0  0  0  0  0  0
   11.4888    9.4194   -4.4035 C   0  0  0  0  0  0  0  0  0  0  0  0
   11.8674    8.3246   -3.6065 C   0  0  0  0  0  0  0  0  0  0  0  0
   12.4861    8.5723   -2.0182 Cl  0  0  0  0  0  0  0  0  0  0  0  0
   11.6871    7.0172   -4.0871 C   0  0  0  0  0  0  0  0  0  0  0  0
   11.0945    6.8049   -5.3442 C   0  0  0  0  0  0  0  0  0  0  0  0
   10.5399    8.3163   -8.6401 C   0  0  0  0  0  0  0  0  0  0  0  0
    9.7540    8.1095   -9.9464 C   0  0  0  0  0  0  0  0  0  0  0  0
    6.8861    2.8732  -13.8469 C   0  0  0  0  0  0  0  0  0  0  0  0
    7.7278    2.1848  -14.7524 C   0  0  0  0  0  0  0  0  0  0  0  0
    7.4145    0.8769  -15.1596 C   0  0  0  0  0  0  0  0  0  0  0  0
    6.2543    0.2365  -14.6995 C   0  0  0  0  0  0  0  0  0  0  0  0
    6.0338   -1.0279  -15.1861 O   0  0  0  0  0  0  0  0  0  0  0  0
    4.7621   -1.6375  -15.0367 C   0  0  0  0  0  0  0  0  0  0  0  0
    3.7053   -1.0216  -15.9634 C   0  0  0  0  0  0  0  0  0  0  0  0
    3.9432   -1.5019  -17.6998 S   0  0  0  0  0  0  0  0  0  0  0  0
    5.6562   -0.5910  -18.3275 S   0  0  0  0  0  0  0  0  0  0  0  0
    5.1009    0.9859  -19.0250 C   0  0  0  0  0  0  0  0  0  0  0  0
    4.1898    0.7994  -20.2469 C   0  0  0  0  0  0  0  0  0  0  0  0
    4.8861    0.1741  -21.3045 O   0  0  0  0  0  0  0  0  0  0  0  0
    5.4015    0.9213  -13.7976 C   0  0  0  0  0  0  0  0  0  0  0  0
    5.7121    2.2303  -13.3869 C   0  0  0  0  0  0  0  0  0  0  0  0
    9.2530    4.0967  -14.0127 H   0  0  0  0  0  0  0  0  0  0  0  0
    8.6027    5.7041  -14.0987 H   0  0  0  0  0  0  0  0  0  0  0  0
    8.9948    4.2635  -11.4380 H   0  0  0  0  0  0  0  0  0  0  0  0
   10.3349    5.0208  -12.2443 H   0  0  0  0  0  0  0  0  0  0  0  0
    9.1982    7.2055  -12.2398 H   0  0  0  0  0  0  0  0  0  0  0  0
    7.7940    6.5512  -11.4457 H   0  0  0  0  0  0  0  0  0  0  0  0
    7.7859    6.3370   -9.0472 H   0  0  0  0  0  0  0  0  0  0  0  0
    8.7530    4.9240   -9.2919 H   0  0  0  0  0  0  0  0  0  0  0  0
    8.9279    5.7722   -6.9542 H   0  0  0  0  0  0  0  0  0  0  0  0
   10.4667    5.6500   -7.7888 H   0  0  0  0  0  0  0  0  0  0  0  0
    7.8713    7.8247   -7.5869 H   0  0  0  0  0  0  0  0  0  0  0  0
   10.5516   10.0575   -6.2320 H   0  0  0  0  0  0  0  0  0  0  0  0
   11.6195   10.4235   -4.0278 H   0  0  0  0  0  0  0  0  0  0  0  0
   11.9716    6.1719   -3.4773 H   0  0  0  0  0  0  0  0  0  0  0  0
   10.9412    5.7828   -5.6479 H   0  0  0  0  0  0  0  0  0  0  0  0
   10.6998    9.3804   -8.4856 H   0  0  0  0  0  0  0  0  0  0  0  0
   11.5346    7.8772   -8.7445 H   0  0  0  0  0  0  0  0  0  0  0  0
   10.3148    8.5517  -10.7698 H   0  0  0  0  0  0  0  0  0  0  0  0
    8.7962    8.6350   -9.9089 H   0  0  0  0  0  0  0  0  0  0  0  0
    8.6149    2.6271  -15.1735 H   0  0  0  0  0  0  0  0  0  0  0  0
    8.0649    0.3609  -15.8522 H   0  0  0  0  0  0  0  0  0  0  0  0
    4.4389   -1.6149  -13.9982 H   0  0  0  0  0  0  0  0  0  0  0  0
    4.8862   -2.6896  -15.2899 H   0  0  0  0  0  0  0  0  0  0  0  0
    3.6859    0.0605  -15.8477 H   0  0  0  0  0  0  0  0  0  0  0  0
    2.7204   -1.3825  -15.6700 H   0  0  0  0  0  0  0  0  0  0  0  0
    5.9796    1.5660  -19.3025 H   0  0  0  0  0  0  0  0  0  0  0  0
    4.5803    1.5423  -18.2465 H   0  0  0  0  0  0  0  0  0  0  0  0
    3.8365    1.7656  -20.6018 H   0  0  0  0  0  0  0  0  0  0  0  0
    3.3091    0.2105  -19.9872 H   0  0  0  0  0  0  0  0  0  0  0  0
    4.2528   -0.2250  -21.8916 H   0  0  0  0  0  0  0  0  0  0  0  0
    4.4957    0.4744  -13.4250 H   0  0  0  0  0  0  0  0  0  0  0  0
    5.0441    2.7361  -12.7038 H   0  0  0  0  0  0  0  0  0  0  0  0
   10.4416    6.2488  -10.2780 H   0  0  0  0  0  0  0  0  0  0  0  0
  2  1  2  0
  3  2  1  0
  4  3  1  0
  5  4  1  0
  6  5  1  0
  7  6  1  0
  8  7  1  0
  9  8  1  0
  9 10  1  1
 11  9  1  0
 12 11  2  0
 13 12  1  0
 14 13  2  0
 15 14  1  0
 16 14  1  0
 17 11  1  0
 17 16  2  0
 18  9  1  0
 19  6  1  0
 19 18  1  0
 20  2  1  0
 21 20  1  0
 22 21  2  0
 23 22  1  0
 24 23  1  0
 25 24  1  0
 26 25  1  0
 27 26  1  0
 28 27  1  0
 29 28  1  0
 30 29  1  0
 31 30  1  0
 32 23  2  0
 33 20  2  0
 33 32  1  0
 34  3  1  0
 35  3  1  0
 36  4  1  0
 37  4  1  0
 38  5  1  0
 39  5  1  0
 40  7  1  0
 41  7  1  0
 42  8  1  0
 43  8  1  0
 44 10  1  0
 45 12  1  0
 46 13  1  0
 47 16  1  0
 48 17  1  0
 49 18  1  0
 50 18  1  0
 51 19  1  0
 52 19  1  0
 53 21  1  0
 54 22  1  0
 55 25  1  0
 56 25  1  0
 57 26  1  0
 58 26  1  0
 59 29  1  0
 60 29  1  0
 61 30  1  0
 62 30  1  0
 63 31  1  0
 64 32  1  0
 65 33  1  0
  6 66  1  6
M  CHG  1   6   1
M  END
>  <b_m_subgroup_collapsed>  (230) 
0

>  <r_i_docking_score>  (230) 
-8.4881506342491306

>  <s_m_subgroup_title>  (230) 
glide-dock_SP_D22_pv

>  <s_m_subgroupid>  (230) 
glide-dock_SP_D22_pv

>  <Molecule ChEMBL ID>  (230) 
CHEMBL4086894

>  <Standard Type>  (230) 
Ki

>  <Standard Value>  (230) 
73.0

>  <label>  (230) 
1

$$$$
CHEMBL5903085
     RDKit          3D

 51 53  0  0  1  0  0  0  0  0999 V2000
   10.4663    4.7520  -14.8010 C   0  0  0  0  0  0  0  0  0  0  0  0
    9.9241    3.8614  -13.6751 C   0  0  2  0  0  0  0  0  0  0  0  0
   10.4857    2.5710  -13.8469 O   0  0  0  0  0  0  0  0  0  0  0  0
    8.3859    3.7740  -13.7308 C   0  0  0  0  0  0  0  0  0  0  0  0
    7.8801    2.9940  -14.5381 O   0  0  0  0  0  0  0  0  0  0  0  0
    7.6188    4.5187  -12.8923 N   0  0  0  0  0  0  0  0  0  0  0  0
    6.1526    4.3933  -12.9190 C   0  0  0  0  0  0  0  0  0  0  0  0
    5.6666    3.0089  -12.7636 C   0  0  0  0  0  0  0  0  0  0  0  0
    5.2859    1.9240  -12.6432 N   0  0  0  0  0  0  0  0  0  0  0  0
    8.1185    5.5837  -12.0096 C   0  0  0  0  0  0  0  0  0  0  0  0
    8.4928    5.0423  -10.6176 C   0  0  0  0  0  0  0  0  0  0  0  0
    8.8253    6.1199   -9.6471 N   0  0  1  0  0  0  0  0  0  0  0  0
    8.6025    5.6708   -8.2464 C   0  0  0  0  0  0  0  0  0  0  0  0
    8.9201    6.7712   -7.2277 C   0  0  0  0  0  0  0  0  0  0  0  0
   10.3723    7.2242   -7.3775 C   0  0  2  0  0  0  0  0  0  0  0  0
   10.7548    8.2465   -6.3401 C   0  0  0  0  0  0  0  0  0  0  0  0
   10.4913    9.5349   -6.5213 N   0  0  0  0  0  0  0  0  0  0  0  0
   10.9444   10.2354   -5.3687 O   0  0  0  0  0  0  0  0  0  0  0  0
   11.4493    9.3317   -4.4505 C   0  0  0  0  0  0  0  0  0  0  0  0
   11.9853    9.5011   -3.1667 C   0  0  0  0  0  0  0  0  0  0  0  0
   12.3715    8.3450   -2.4631 C   0  0  0  0  0  0  0  0  0  0  0  0
   12.8860    8.4658   -1.2193 F   0  0  0  0  0  0  0  0  0  0  0  0
   12.2173    7.0644   -3.0449 C   0  0  0  0  0  0  0  0  0  0  0  0
   11.6889    6.9218   -4.3458 C   0  0  0  0  0  0  0  0  0  0  0  0
   11.3069    8.0817   -5.0541 C   0  0  0  0  0  0  0  0  0  0  0  0
   10.5955    7.7109   -8.8235 C   0  0  0  0  0  0  0  0  0  0  0  0
   10.2073    6.6275   -9.8413 C   0  0  0  0  0  0  0  0  0  0  0  0
   10.0942    5.7723  -14.7172 H   0  0  0  0  0  0  0  0  0  0  0  0
   11.5555    4.7969  -14.7743 H   0  0  0  0  0  0  0  0  0  0  0  0
   10.1775    4.3739  -15.7841 H   0  0  0  0  0  0  0  0  0  0  0  0
   10.2758    4.2308  -12.7146 H   0  0  0  0  0  0  0  0  0  0  0  0
   10.1556    1.9950  -13.1662 H   0  0  0  0  0  0  0  0  0  0  0  0
    5.6846    4.9658  -12.1163 H   0  0  0  0  0  0  0  0  0  0  0  0
    5.7597    4.7836  -13.8568 H   0  0  0  0  0  0  0  0  0  0  0  0
    8.9609    6.0972  -12.4708 H   0  0  0  0  0  0  0  0  0  0  0  0
    7.3554    6.3576  -11.9012 H   0  0  0  0  0  0  0  0  0  0  0  0
    7.6618    4.4513  -10.2468 H   0  0  0  0  0  0  0  0  0  0  0  0
    9.3220    4.3405  -10.6745 H   0  0  0  0  0  0  0  0  0  0  0  0
    7.5704    5.3711   -8.1071 H   0  0  0  0  0  0  0  0  0  0  0  0
    9.2100    4.7868   -8.0463 H   0  0  0  0  0  0  0  0  0  0  0  0
    8.7535    6.3878   -6.2235 H   0  0  0  0  0  0  0  0  0  0  0  0
    8.2424    7.6184   -7.3451 H   0  0  0  0  0  0  0  0  0  0  0  0
   11.0093    6.3516   -7.2261 H   0  0  0  0  0  0  0  0  0  0  0  0
   12.0844   10.4805   -2.7228 H   0  0  0  0  0  0  0  0  0  0  0  0
   12.5033    6.1845   -2.4869 H   0  0  0  0  0  0  0  0  0  0  0  0
   11.5729    5.9420   -4.7876 H   0  0  0  0  0  0  0  0  0  0  0  0
   11.6396    7.9937   -8.9680 H   0  0  0  0  0  0  0  0  0  0  0  0
   10.0032    8.6053   -9.0151 H   0  0  0  0  0  0  0  0  0  0  0  0
   10.8800    5.7824   -9.7339 H   0  0  0  0  0  0  0  0  0  0  0  0
   10.3288    7.0133  -10.8527 H   0  0  0  0  0  0  0  0  0  0  0  0
    8.1692    6.8813   -9.8070 H   0  0  0  0  0  0  0  0  0  0  0  0
  2  1  1  0
  3  2  1  0
  4  2  1  0
  5  4  2  0
  6  4  1  0
  7  6  1  0
  8  7  1  0
  9  8  3  0
 10  6  1  0
 11 10  1  0
 12 11  1  0
 13 12  1  0
 14 13  1  0
 15 14  1  0
 16 15  1  0
 17 16  2  0
 18 17  1  0
 19 18  1  0
 20 19  2  0
 21 20  1  0
 22 21  1  0
 23 21  2  0
 24 23  1  0
 25 16  1  0
 25 19  1  0
 25 24  2  0
 26 15  1  0
 27 12  1  0
 27 26  1  0
 28  1  1  0
 29  1  1  0
 30  1  1  0
  2 31  1  1
 32  3  1  0
 33  7  1  0
 34  7  1  0
 35 10  1  0
 36 10  1  0
 37 11  1  0
 38 11  1  0
 39 13  1  0
 40 13  1  0
 41 14  1  0
 42 14  1  0
 15 43  1  1
 44 20  1  0
 45 23  1  0
 46 24  1  0
 47 26  1  0
 48 26  1  0
 49 27  1  0
 50 27  1  0
 12 51  1  6
M  CHG  1  12   1
M  END
>  <b_m_subgroup_collapsed>  (231) 
0

>  <r_i_docking_score>  (231) 
-8.4855917454096197

>  <s_m_subgroup_title>  (231) 
glide-dock_SP_D22_pv

>  <s_m_subgroupid>  (231) 
glide-dock_SP_D22_pv

>  <Molecule ChEMBL ID>  (231) 
CHEMBL5903085

>  <Standard Type>  (231) 
Ki

>  <Standard Value>  (231) 
10000.0

>  <label>  (231) 
0

$$$$
CHEMBL4554053
     RDKit          3D

 62 65  0  0  1  0  0  0  0  0999 V2000
    4.8858   -2.5737  -15.9532 N   0  0  0  0  0  0  0  0  0  0  0  0
    4.4062   -1.4199  -15.4842 C   0  0  0  0  0  0  0  0  0  0  0  0
    3.2040   -1.1877  -15.4472 O   0  0  0  0  0  0  0  0  0  0  0  0
    5.3600   -0.4381  -14.9500 C   0  0  0  0  0  0  0  0  0  0  0  0
    5.1926    0.5091  -13.9072 C   0  0  0  0  0  0  0  0  0  0  0  0
    6.3281    1.2613  -13.8470 C   0  0  0  0  0  0  0  0  0  0  0  0
    7.2243    0.8049  -14.8093 N   0  0  0  0  0  0  0  0  0  0  0  0
    8.5281    1.3142  -15.0802 C   0  0  0  0  0  0  0  0  0  0  0  0
    9.3848    0.6726  -16.0086 C   0  0  0  0  0  0  0  0  0  0  0  0
   10.6475    1.2142  -16.3081 C   0  0  0  0  0  0  0  0  0  0  0  0
   11.0732    2.4025  -15.6872 C   0  0  0  0  0  0  0  0  0  0  0  0
   10.2548    3.0488  -14.7413 C   0  0  0  0  0  0  0  0  0  0  0  0
   10.7546    4.1866  -14.1419 O   0  0  0  0  0  0  0  0  0  0  0  0
    9.9738    5.1881  -13.6799 C   0  0  0  0  0  0  0  0  0  0  0  0
    8.7710    5.3356  -13.8958 O   0  0  0  0  0  0  0  0  0  0  0  0
   10.7519    5.9925  -12.8691 N   0  0  0  0  0  0  0  0  0  0  0  0
   10.1972    6.9300  -11.9000 C   0  0  0  0  0  0  0  0  0  0  0  0
    9.4234    6.1783  -10.7971 C   0  0  0  0  0  0  0  0  0  0  0  0
    8.9544    7.0859   -9.6499 C   0  0  0  0  0  0  0  0  0  0  0  0
   10.0327    7.5241   -8.7615 N   0  0  0  0  0  0  0  0  0  0  0  0
   10.5209    6.4086   -7.9390 C   0  0  0  0  0  0  0  0  0  0  0  0
   11.6634    6.9039   -7.0326 C   0  0  0  0  0  0  0  0  0  0  0  0
   11.1461    7.9562   -6.1652 N   0  0  0  0  0  0  0  0  0  0  0  0
   11.5304    8.0545   -4.8174 C   0  0  0  0  0  0  0  0  0  0  0  0
   11.6861    6.8876   -4.0317 C   0  0  0  0  0  0  0  0  0  0  0  0
   12.0770    6.9717   -2.6818 C   0  0  0  0  0  0  0  0  0  0  0  0
   12.2760    8.2285   -2.0883 C   0  0  0  0  0  0  0  0  0  0  0  0
   12.0864    9.3948   -2.8471 C   0  0  0  0  0  0  0  0  0  0  0  0
   11.7363    9.3125   -4.2056 C   0  0  0  0  0  0  0  0  0  0  0  0
   10.5467    9.0703   -6.8884 C   0  0  0  0  0  0  0  0  0  0  0  0
    9.4715    8.5412   -7.8612 C   0  0  0  0  0  0  0  0  0  0  0  0
    8.9905    2.4843  -14.4340 C   0  0  0  0  0  0  0  0  0  0  0  0
    6.5974   -0.2277  -15.4925 C   0  0  0  0  0  0  0  0  0  0  0  0
    4.2141   -3.2838  -16.2500 H   0  0  0  0  0  0  0  0  0  0  0  0
    5.8784   -2.7628  -15.9347 H   0  0  0  0  0  0  0  0  0  0  0  0
    4.3176    0.6499  -13.2944 H   0  0  0  0  0  0  0  0  0  0  0  0
    6.5402    2.0980  -13.1974 H   0  0  0  0  0  0  0  0  0  0  0  0
    9.0957   -0.2404  -16.5050 H   0  0  0  0  0  0  0  0  0  0  0  0
   11.2933    0.7178  -17.0163 H   0  0  0  0  0  0  0  0  0  0  0  0
   12.0481    2.8082  -15.9219 H   0  0  0  0  0  0  0  0  0  0  0  0
   11.7356    5.7677  -12.8321 H   0  0  0  0  0  0  0  0  0  0  0  0
    9.5524    7.6568  -12.3953 H   0  0  0  0  0  0  0  0  0  0  0  0
   11.0247    7.4884  -11.4610 H   0  0  0  0  0  0  0  0  0  0  0  0
    9.9985    5.3289  -10.4312 H   0  0  0  0  0  0  0  0  0  0  0  0
    8.5238    5.7473  -11.2421 H   0  0  0  0  0  0  0  0  0  0  0  0
    8.1809    6.5750   -9.0708 H   0  0  0  0  0  0  0  0  0  0  0  0
    8.4883    7.9691  -10.0902 H   0  0  0  0  0  0  0  0  0  0  0  0
   10.8855    5.5974   -8.5626 H   0  0  0  0  0  0  0  0  0  0  0  0
    9.7111    5.9943   -7.3358 H   0  0  0  0  0  0  0  0  0  0  0  0
   12.4857    7.3185   -7.6293 H   0  0  0  0  0  0  0  0  0  0  0  0
   12.0886    6.0676   -6.4779 H   0  0  0  0  0  0  0  0  0  0  0  0
   11.5014    5.9097   -4.4505 H   0  0  0  0  0  0  0  0  0  0  0  0
   12.1959    6.0711   -2.0976 H   0  0  0  0  0  0  0  0  0  0  0  0
   12.5576    8.3053   -1.0478 H   0  0  0  0  0  0  0  0  0  0  0  0
   12.2185   10.3609   -2.3895 H   0  0  0  0  0  0  0  0  0  0  0  0
   11.6361   10.2281   -4.7647 H   0  0  0  0  0  0  0  0  0  0  0  0
   10.0861    9.7722   -6.1992 H   0  0  0  0  0  0  0  0  0  0  0  0
   11.3251    9.6053   -7.4317 H   0  0  0  0  0  0  0  0  0  0  0  0
    9.0740    9.3720   -8.4469 H   0  0  0  0  0  0  0  0  0  0  0  0
    8.6296    8.1260   -7.3017 H   0  0  0  0  0  0  0  0  0  0  0  0
    8.3702    2.9603  -13.6938 H   0  0  0  0  0  0  0  0  0  0  0  0
    7.0673   -0.7302  -16.3230 H   0  0  0  0  0  0  0  0  0  0  0  0
  2  1  1  0
  3  2  2  0
  4  2  1  0
  5  4  1  0
  6  5  2  0
  7  6  1  0
  8  7  1  0
  9  8  2  0
 10  9  1  0
 11 10  2  0
 12 11  1  0
 13 12  1  0
 14 13  1  0
 15 14  2  0
 16 14  1  0
 17 16  1  0
 18 17  1  0
 19 18  1  0
 20 19  1  0
 21 20  1  0
 22 21  1  0
 23 22  1  0
 24 23  1  0
 25 24  2  0
 26 25  1  0
 27 26  2  0
 28 27  1  0
 29 24  1  0
 29 28  2  0
 30 23  1  0
 31 20  1  0
 31 30  1  0
 32  8  1  0
 32 12  2  0
 33  4  2  0
 33  7  1  0
 34  1  1  0
 35  1  1  0
 36  5  1  0
 37  6  1  0
 38  9  1  0
 39 10  1  0
 40 11  1  0
 41 16  1  0
 42 17  1  0
 43 17  1  0
 44 18  1  0
 45 18  1  0
 46 19  1  0
 47 19  1  0
 48 21  1  0
 49 21  1  0
 50 22  1  0
 51 22  1  0
 52 25  1  0
 53 26  1  0
 54 27  1  0
 55 28  1  0
 56 29  1  0
 57 30  1  0
 58 30  1  0
 59 31  1  0
 60 31  1  0
 61 32  1  0
 62 33  1  0
M  END
>  <b_m_subgroup_collapsed>  (232) 
0

>  <r_i_docking_score>  (232) 
-8.4850157287691097

>  <s_m_subgroup_title>  (232) 
glide-dock_SP_D22_pv

>  <s_m_subgroupid>  (232) 
glide-dock_SP_D22_pv

>  <Molecule ChEMBL ID>  (232) 
CHEMBL4554053

>  <Standard Type>  (232) 
Ki

>  <Standard Value>  (232) 
66.0

>  <label>  (232) 
1

$$$$
CHEMBL4438630
     RDKit          3D

 63 66  0  0  1  0  0  0  0  0999 V2000
   11.8372    6.7605   -2.8924 C   0  0  0  0  0  0  0  0  0  0  0  0
   11.7046    7.5827   -4.1597 C   0  0  0  0  0  0  0  0  0  0  0  0
   12.2529    8.8742   -4.2237 C   0  0  0  0  0  0  0  0  0  0  0  0
   12.1220    9.6234   -5.4038 C   0  0  0  0  0  0  0  0  0  0  0  0
   11.4121    9.1199   -6.5083 C   0  0  0  0  0  0  0  0  0  0  0  0
   10.8440    7.8269   -6.4599 C   0  0  0  0  0  0  0  0  0  0  0  0
   10.1152    7.2971   -7.5462 N   0  0  0  0  0  0  0  0  0  0  0  0
    8.8727    6.6136   -7.2299 C   0  0  0  0  0  0  0  0  0  0  0  0
    8.5915    5.5616   -8.3002 C   0  0  0  0  0  0  0  0  0  0  0  0
    8.4862    6.1617   -9.6566 N   0  0  0  0  0  0  0  0  0  0  0  0
    8.2505    5.1043  -10.6772 C   0  0  0  0  0  0  0  0  0  0  0  0
    7.4816    5.6031  -11.9136 C   0  0  0  0  0  0  0  0  0  0  0  0
    7.2434    4.4927  -12.9569 C   0  0  0  0  0  0  0  0  0  0  0  0
    6.1687    3.4579  -12.5675 C   0  0  0  0  0  0  0  0  0  0  0  0
    6.0860    2.4028  -13.5752 N   0  0  0  0  0  0  0  0  0  0  0  0
    5.6529    1.1470  -13.3605 C   0  0  0  0  0  0  0  0  0  0  0  0
    5.2865    0.7276  -12.2637 O   0  0  0  0  0  0  0  0  0  0  0  0
    5.5222    0.3042  -14.5943 C   0  0  0  0  0  0  0  0  0  0  0  0
    4.3938   -0.5298  -14.7643 C   0  0  0  0  0  0  0  0  0  0  0  0
    4.1886   -1.2101  -15.9815 C   0  0  0  0  0  0  0  0  0  0  0  0
    5.1070   -1.0662  -17.0442 C   0  0  0  0  0  0  0  0  0  0  0  0
    4.8470   -1.7026  -18.3420 C   0  0  0  0  0  0  0  0  0  0  0  0
    5.2875   -1.1053  -19.5678 C   0  0  0  0  0  0  0  0  0  0  0  0
    4.9444   -1.8261  -20.6801 C   0  0  0  0  0  0  0  0  0  0  0  0
    4.0855   -3.2788  -20.2619 S   0  0  0  0  0  0  0  0  0  0  0  0
    4.1590   -2.8692  -18.5728 C   0  0  0  0  0  0  0  0  0  0  0  0
    6.2693   -0.2872  -16.8441 C   0  0  0  0  0  0  0  0  0  0  0  0
    6.4834    0.3837  -15.6263 C   0  0  0  0  0  0  0  0  0  0  0  0
    9.6685    7.0134   -9.9772 C   0  0  0  0  0  0  0  0  0  0  0  0
   10.0664    7.9832   -8.8373 C   0  0  0  0  0  0  0  0  0  0  0  0
   11.0277    7.0610   -5.2803 C   0  0  0  0  0  0  0  0  0  0  0  0
   10.9330    6.1777   -2.7175 H   0  0  0  0  0  0  0  0  0  0  0  0
   12.6811    6.0752   -2.9608 H   0  0  0  0  0  0  0  0  0  0  0  0
   11.9890    7.4032   -2.0252 H   0  0  0  0  0  0  0  0  0  0  0  0
   12.7902    9.2858   -3.3817 H   0  0  0  0  0  0  0  0  0  0  0  0
   12.5892   10.5848   -5.4649 H   0  0  0  0  0  0  0  0  0  0  0  0
   11.3193    9.7478   -7.3813 H   0  0  0  0  0  0  0  0  0  0  0  0
    8.0859    7.3642   -7.2039 H   0  0  0  0  0  0  0  0  0  0  0  0
    8.8632    6.1512   -6.2477 H   0  0  0  0  0  0  0  0  0  0  0  0
    7.6855    5.0258   -8.0421 H   0  0  0  0  0  0  0  0  0  0  0  0
    9.3935    4.8211   -8.2948 H   0  0  0  0  0  0  0  0  0  0  0  0
    7.6850    4.2914  -10.2275 H   0  0  0  0  0  0  0  0  0  0  0  0
    9.2006    4.6580  -10.9746 H   0  0  0  0  0  0  0  0  0  0  0  0
    8.0471    6.4054  -12.3882 H   0  0  0  0  0  0  0  0  0  0  0  0
    6.5284    6.0468  -11.6229 H   0  0  0  0  0  0  0  0  0  0  0  0
    8.1870    3.9872  -13.1681 H   0  0  0  0  0  0  0  0  0  0  0  0
    6.9401    4.9660  -13.8897 H   0  0  0  0  0  0  0  0  0  0  0  0
    5.1952    3.9431  -12.4859 H   0  0  0  0  0  0  0  0  0  0  0  0
    6.3813    3.0294  -11.5887 H   0  0  0  0  0  0  0  0  0  0  0  0
    6.3179    2.6551  -14.5233 H   0  0  0  0  0  0  0  0  0  0  0  0
    3.6484   -0.6084  -13.9858 H   0  0  0  0  0  0  0  0  0  0  0  0
    3.3003   -1.8134  -16.1081 H   0  0  0  0  0  0  0  0  0  0  0  0
    5.8258   -0.1685  -19.5991 H   0  0  0  0  0  0  0  0  0  0  0  0
    5.1265   -1.5868  -21.7161 H   0  0  0  0  0  0  0  0  0  0  0  0
    3.6880   -3.5207  -17.8472 H   0  0  0  0  0  0  0  0  0  0  0  0
    7.0057   -0.1924  -17.6275 H   0  0  0  0  0  0  0  0  0  0  0  0
    7.3697    0.9903  -15.5089 H   0  0  0  0  0  0  0  0  0  0  0  0
   10.5221    6.3644  -10.1783 H   0  0  0  0  0  0  0  0  0  0  0  0
    9.4805    7.5783  -10.8911 H   0  0  0  0  0  0  0  0  0  0  0  0
    9.3467    8.8013   -8.7747 H   0  0  0  0  0  0  0  0  0  0  0  0
   11.0360    8.4217   -9.0780 H   0  0  0  0  0  0  0  0  0  0  0  0
   10.6426    6.0583   -5.2094 H   0  0  0  0  0  0  0  0  0  0  0  0
    7.6596    6.7680   -9.6594 H   0  0  0  0  0  0  0  0  0  0  0  0
  2  1  1  0
  3  2  2  0
  4  3  1  0
  5  4  2  0
  6  5  1  0
  7  6  1  0
  8  7  1  0
  9  8  1  0
 10  9  1  0
 11 10  1  0
 12 11  1  0
 13 12  1  0
 14 13  1  0
 15 14  1  0
 16 15  1  0
 17 16  2  0
 18 16  1  0
 19 18  1  0
 20 19  2  0
 21 20  1  0
 22 21  1  0
 23 22  1  0
 24 23  2  0
 25 24  1  0
 26 22  2  0
 26 25  1  0
 27 21  2  0
 28 18  2  0
 28 27  1  0
 29 10  1  0
 30  7  1  0
 30 29  1  0
 31  2  1  0
 31  6  2  0
 32  1  1  0
 33  1  1  0
 34  1  1  0
 35  3  1  0
 36  4  1  0
 37  5  1  0
 38  8  1  0
 39  8  1  0
 40  9  1  0
 41  9  1  0
 42 11  1  0
 43 11  1  0
 44 12  1  0
 45 12  1  0
 46 13  1  0
 47 13  1  0
 48 14  1  0
 49 14  1  0
 50 15  1  0
 51 19  1  0
 52 20  1  0
 53 23  1  0
 54 24  1  0
 55 26  1  0
 56 27  1  0
 57 28  1  0
 58 29  1  0
 59 29  1  0
 60 30  1  0
 61 30  1  0
 62 31  1  0
 63 10  1  0
M  CHG  1  10   1
M  END
>  <b_m_subgroup_collapsed>  (233) 
0

>  <r_i_docking_score>  (233) 
-8.4819386565692998

>  <s_m_subgroup_title>  (233) 
glide-dock_SP_D22_pv

>  <s_m_subgroupid>  (233) 
glide-dock_SP_D22_pv

>  <Molecule ChEMBL ID>  (233) 
CHEMBL4438630

>  <Standard Type>  (233) 
Ki

>  <Standard Value>  (233) 
16318.0

>  <label>  (233) 
0

$$$$
CHEMBL62919
     RDKit          3D

 51 54  0  0  1  0  0  0  0  0999 V2000
   11.8071    7.7724   -7.6918 O   0  0  0  0  0  0  0  0  0  0  0  0
   10.9623    8.0296   -6.8374 C   0  0  0  0  0  0  0  0  0  0  0  0
   11.2861    8.1769   -5.4058 C   0  0  0  0  0  0  0  0  0  0  0  0
   11.6860    7.0480   -4.6579 C   0  0  0  0  0  0  0  0  0  0  0  0
   12.0860    7.1934   -3.3168 C   0  0  0  0  0  0  0  0  0  0  0  0
   12.0915    8.4690   -2.7245 C   0  0  0  0  0  0  0  0  0  0  0  0
   12.5014    8.6131   -1.4463 F   0  0  0  0  0  0  0  0  0  0  0  0
   11.6861    9.5961   -3.4636 C   0  0  0  0  0  0  0  0  0  0  0  0
   11.2860    9.4539   -4.8063 C   0  0  0  0  0  0  0  0  0  0  0  0
    9.4783    8.1316   -7.2067 C   0  0  1  0  0  0  0  0  0  0  0  0
    9.2333    8.7963   -8.5775 C   0  0  0  0  0  0  0  0  0  0  0  0
    9.5618    7.8916   -9.7820 C   0  0  0  0  0  0  0  0  0  0  0  0
    8.8860    6.5719   -9.6910 N   0  0  1  0  0  0  0  0  0  0  0  0
    9.2270    5.6604  -10.8140 C   0  0  0  0  0  0  0  0  0  0  0  0
    8.8078    6.1395  -12.2223 C   0  0  0  0  0  0  0  0  0  0  0  0
    9.2536    5.1477  -13.2457 N   0  0  0  0  0  0  0  0  0  0  0  0
   10.6064    5.1060  -13.7542 C   0  0  0  0  0  0  0  0  0  0  0  0
   11.6860    6.5704  -13.4469 S   0  0  0  0  0  0  0  0  0  0  0  0
   11.0721    4.0928  -14.4215 N   0  0  0  0  0  0  0  0  0  0  0  0
   10.2487    3.0020  -14.7113 C   0  0  0  0  0  0  0  0  0  0  0  0
   10.7880    1.8958  -15.3999 C   0  0  0  0  0  0  0  0  0  0  0  0
    9.9827    0.7794  -15.6974 C   0  0  0  0  0  0  0  0  0  0  0  0
    8.6261    0.7712  -15.3217 C   0  0  0  0  0  0  0  0  0  0  0  0
    8.0775    1.8791  -14.6468 C   0  0  0  0  0  0  0  0  0  0  0  0
    8.8910    2.9923  -14.3334 C   0  0  0  0  0  0  0  0  0  0  0  0
    8.3575    4.1679  -13.5683 C   0  0  0  0  0  0  0  0  0  0  0  0
    7.1722    4.1734  -13.2260 O   0  0  0  0  0  0  0  0  0  0  0  0
    9.1417    5.8841   -8.3925 C   0  0  0  0  0  0  0  0  0  0  0  0
    8.8116    6.7456   -7.1593 C   0  0  0  0  0  0  0  0  0  0  0  0
   11.7021    6.0688   -5.1152 H   0  0  0  0  0  0  0  0  0  0  0  0
   12.3970    6.3294   -2.7474 H   0  0  0  0  0  0  0  0  0  0  0  0
   11.6944   10.5723   -3.0009 H   0  0  0  0  0  0  0  0  0  0  0  0
   10.9992   10.3278   -5.3744 H   0  0  0  0  0  0  0  0  0  0  0  0
    9.0133    8.7563   -6.4435 H   0  0  0  0  0  0  0  0  0  0  0  0
    8.1915    9.1117   -8.6325 H   0  0  0  0  0  0  0  0  0  0  0  0
    9.8181    9.7103   -8.6629 H   0  0  0  0  0  0  0  0  0  0  0  0
   10.6367    7.7487   -9.8925 H   0  0  0  0  0  0  0  0  0  0  0  0
    9.2327    8.4123  -10.6802 H   0  0  0  0  0  0  0  0  0  0  0  0
   10.2989    5.4845  -10.7856 H   0  0  0  0  0  0  0  0  0  0  0  0
    8.7555    4.6927  -10.6326 H   0  0  0  0  0  0  0  0  0  0  0  0
    7.7248    6.2746  -12.2278 H   0  0  0  0  0  0  0  0  0  0  0  0
    9.1501    7.1457  -12.4463 H   0  0  0  0  0  0  0  0  0  0  0  0
   11.8274    1.8990  -15.6949 H   0  0  0  0  0  0  0  0  0  0  0  0
   10.4052   -0.0688  -16.2152 H   0  0  0  0  0  0  0  0  0  0  0  0
    8.0081   -0.0861  -15.5484 H   0  0  0  0  0  0  0  0  0  0  0  0
    7.0370    1.8601  -14.3563 H   0  0  0  0  0  0  0  0  0  0  0  0
   10.1884    5.5769   -8.3525 H   0  0  0  0  0  0  0  0  0  0  0  0
    8.5510    4.9678   -8.3456 H   0  0  0  0  0  0  0  0  0  0  0  0
    9.1203    6.2107   -6.2600 H   0  0  0  0  0  0  0  0  0  0  0  0
    7.7364    6.8501   -7.0467 H   0  0  0  0  0  0  0  0  0  0  0  0
    7.8881    6.7788   -9.7502 H   0  0  0  0  0  0  0  0  0  0  0  0
  2  1  2  0
  3  2  1  0
  4  3  1  0
  5  4  2  0
  6  5  1  0
  7  6  1  0
  8  6  2  0
  9  3  2  0
  9  8  1  0
 10  2  1  0
 11 10  1  0
 12 11  1  0
 13 12  1  0
 14 13  1  0
 15 14  1  0
 16 15  1  0
 17 16  1  0
 18 17  1  0
 19 17  2  0
 20 19  1  0
 21 20  2  0
 22 21  1  0
 23 22  2  0
 24 23  1  0
 25 20  1  0
 25 24  2  0
 26 16  1  0
 26 25  1  0
 27 26  2  0
 28 13  1  0
 29 10  1  0
 29 28  1  0
 30  4  1  0
 31  5  1  0
 32  8  1  0
 33  9  1  0
 10 34  1  1
 35 11  1  0
 36 11  1  0
 37 12  1  0
 38 12  1  0
 39 14  1  0
 40 14  1  0
 41 15  1  0
 42 15  1  0
 43 21  1  0
 44 22  1  0
 45 23  1  0
 46 24  1  0
 47 28  1  0
 48 28  1  0
 49 29  1  0
 50 29  1  0
 13 51  1  6
M  CHG  2  13   1  18  -1
M  END
>  <b_m_subgroup_collapsed>  (234) 
0

>  <r_i_docking_score>  (234) 
-8.4810121246204009

>  <s_m_subgroup_title>  (234) 
glide-dock_SP_D22_pv

>  <s_m_subgroupid>  (234) 
glide-dock_SP_D22_pv

>  <Molecule ChEMBL ID>  (234) 
CHEMBL62919

>  <Standard Type>  (234) 
Ki

>  <Standard Value>  (234) 
62.0

>  <label>  (234) 
1

$$$$
CHEMBL568801
     RDKit          3D

 74 78  0  0  1  0  0  0  0  0999 V2000
   11.1798    5.9979  -14.3127 C   0  0  0  0  0  0  0  0  0  0  0  0
   10.1753    5.1140  -13.5650 C   0  0  0  0  0  0  0  0  0  0  0  0
    8.7706    5.7723  -13.3997 C   0  0  0  0  0  0  0  0  0  0  0  0
    7.8464    5.1353  -12.4114 N   0  0  2  0  0  0  0  0  0  0  0  0
    8.4535    4.9476  -11.0567 C   0  0  0  0  0  0  0  0  0  0  0  0
    9.1785    6.2296  -10.5780 C   0  0  0  0  0  0  0  0  0  0  0  0
    9.6893    6.1383   -9.2151 N   0  0  0  0  0  0  0  0  0  0  0  0
    8.6975    6.7356   -8.3115 C   0  0  0  0  0  0  0  0  0  0  0  0
    9.1811    6.7746   -6.8501 C   0  0  0  0  0  0  0  0  0  0  0  0
   10.5162    7.3419   -6.7792 N   0  0  0  0  0  0  0  0  0  0  0  0
   10.8611    8.2816   -5.8130 C   0  0  0  0  0  0  0  0  0  0  0  0
   10.5847    9.6339   -6.0698 C   0  0  0  0  0  0  0  0  0  0  0  0
   10.8061   10.5723   -5.0469 C   0  0  0  0  0  0  0  0  0  0  0  0
   11.2869   10.1772   -3.8679 N   0  0  0  0  0  0  0  0  0  0  0  0
   11.6557    8.9379   -3.6027 C   0  0  0  0  0  0  0  0  0  0  0  0
   12.1890    8.6930   -2.3386 C   0  0  0  0  0  0  0  0  0  0  0  0
   12.4860    7.3790   -2.0129 C   0  0  0  0  0  0  0  0  0  0  0  0
   12.2703    6.3555   -2.9362 C   0  0  0  0  0  0  0  0  0  0  0  0
   11.7213    6.5999   -4.2068 C   0  0  0  0  0  0  0  0  0  0  0  0
   11.4265    7.9245   -4.5652 C   0  0  0  0  0  0  0  0  0  0  0  0
   11.4981    6.8536   -7.7130 C   0  0  0  0  0  0  0  0  0  0  0  0
   10.9156    6.9415   -9.1300 C   0  0  0  0  0  0  0  0  0  0  0  0
    6.9981    4.0278  -12.9794 C   0  0  2  0  0  0  0  0  0  0  0  0
    6.0125    3.3843  -11.9758 C   0  0  0  0  0  0  0  0  0  0  0  0
    5.1657    2.2328  -12.5504 C   0  0  0  0  0  0  0  0  0  0  0  0
    5.8091    1.3809  -13.6383 C   0  0  0  0  0  0  0  0  0  0  0  0
    7.0198    1.7765  -14.2554 C   0  0  0  0  0  0  0  0  0  0  0  0
    7.5488    1.0181  -15.3179 C   0  0  0  0  0  0  0  0  0  0  0  0
    6.8766   -0.1242  -15.7759 C   0  0  0  0  0  0  0  0  0  0  0  0
    5.6861   -0.5358  -15.1563 C   0  0  0  0  0  0  0  0  0  0  0  0
    5.1424    0.2097  -14.0838 C   0  0  0  0  0  0  0  0  0  0  0  0
    3.9785   -0.1587  -13.4478 O   0  0  0  0  0  0  0  0  0  0  0  0
    3.0053   -0.8523  -14.2161 C   0  0  0  0  0  0  0  0  0  0  0  0
    7.7943    3.0008  -13.8136 C   0  0  0  0  0  0  0  0  0  0  0  0
   12.1614    5.5233  -14.3499 H   0  0  0  0  0  0  0  0  0  0  0  0
   10.8636    6.1724  -15.3413 H   0  0  0  0  0  0  0  0  0  0  0  0
   11.3004    6.9640  -13.8221 H   0  0  0  0  0  0  0  0  0  0  0  0
   10.6204    4.8588  -12.6072 H   0  0  0  0  0  0  0  0  0  0  0  0
   10.1192    4.1753  -14.1083 H   0  0  0  0  0  0  0  0  0  0  0  0
    8.2813    5.8440  -14.3698 H   0  0  0  0  0  0  0  0  0  0  0  0
    8.8895    6.7978  -13.0469 H   0  0  0  0  0  0  0  0  0  0  0  0
    7.6860    4.7038  -10.3272 H   0  0  0  0  0  0  0  0  0  0  0  0
    9.1485    4.1097  -11.0681 H   0  0  0  0  0  0  0  0  0  0  0  0
   10.0256    6.4186  -11.2338 H   0  0  0  0  0  0  0  0  0  0  0  0
    8.5275    7.0990  -10.6896 H   0  0  0  0  0  0  0  0  0  0  0  0
    8.4860    7.7580   -8.6281 H   0  0  0  0  0  0  0  0  0  0  0  0
    7.7669    6.1722   -8.3773 H   0  0  0  0  0  0  0  0  0  0  0  0
    8.4859    7.3585   -6.2468 H   0  0  0  0  0  0  0  0  0  0  0  0
    9.2033    5.7723   -6.4380 H   0  0  0  0  0  0  0  0  0  0  0  0
   10.1544    9.9222   -7.0174 H   0  0  0  0  0  0  0  0  0  0  0  0
   10.5704   11.6191   -5.0469 H   0  0  0  0  0  0  0  0  0  0  0  0
   12.3500    9.4826   -1.6170 H   0  0  0  0  0  0  0  0  0  0  0  0
   12.8860    7.1491   -1.0469 H   0  0  0  0  0  0  0  0  0  0  0  0
   12.5451    5.3723   -2.6362 H   0  0  0  0  0  0  0  0  0  0  0  0
   11.5481    5.7812   -4.8910 H   0  0  0  0  0  0  0  0  0  0  0  0
   12.4236    7.4265   -7.6466 H   0  0  0  0  0  0  0  0  0  0  0  0
   11.7153    5.8190   -7.4468 H   0  0  0  0  0  0  0  0  0  0  0  0
   11.6539    6.5729   -9.8428 H   0  0  0  0  0  0  0  0  0  0  0  0
   10.7134    7.9815   -9.3945 H   0  0  0  0  0  0  0  0  0  0  0  0
    6.3495    4.5248  -13.7033 H   0  0  0  0  0  0  0  0  0  0  0  0
    6.5239    2.9828  -11.1094 H   0  0  0  0  0  0  0  0  0  0  0  0
    5.3473    4.1450  -11.5647 H   0  0  0  0  0  0  0  0  0  0  0  0
    4.2411    2.6358  -12.9634 H   0  0  0  0  0  0  0  0  0  0  0  0
    4.8860    1.5744  -11.7299 H   0  0  0  0  0  0  0  0  0  0  0  0
    8.4749    1.3121  -15.7904 H   0  0  0  0  0  0  0  0  0  0  0  0
    7.2857   -0.7022  -16.5916 H   0  0  0  0  0  0  0  0  0  0  0  0
    5.2174   -1.4375  -15.5190 H   0  0  0  0  0  0  0  0  0  0  0  0
    2.1298   -1.0277  -13.5946 H   0  0  0  0  0  0  0  0  0  0  0  0
    2.6923   -0.2650  -15.0807 H   0  0  0  0  0  0  0  0  0  0  0  0
    3.3476   -1.8276  -14.5546 H   0  0  0  0  0  0  0  0  0  0  0  0
    8.6868    2.6626  -13.2875 H   0  0  0  0  0  0  0  0  0  0  0  0
    8.1391    3.4795  -14.7292 H   0  0  0  0  0  0  0  0  0  0  0  0
   11.4184   10.8841   -3.1410 H   0  0  0  0  0  0  0  0  0  0  0  0
    7.1633    5.8587  -12.2237 H   0  0  0  0  0  0  0  0  0  0  0  0
  2  1  1  0
  3  2  1  0
  4  3  1  0
  5  4  1  0
  6  5  1  0
  7  6  1  0
  8  7  1  0
  9  8  1  0
 10  9  1  0
 11 10  1  0
 12 11  2  0
 13 12  1  0
 14 13  2  0
 15 14  1  0
 16 15  2  0
 17 16  1  0
 18 17  2  0
 19 18  1  0
 20 11  1  0
 20 15  1  0
 20 19  2  0
 21 10  1  0
 22  7  1  0
 22 21  1  0
 23  4  1  0
 24 23  1  0
 25 24  1  0
 26 25  1  0
 27 26  1  0
 28 27  2  0
 29 28  1  0
 30 29  2  0
 31 26  2  0
 31 30  1  0
 32 31  1  0
 33 32  1  0
 34 23  1  0
 34 27  1  0
 35  1  1  0
 36  1  1  0
 37  1  1  0
 38  2  1  0
 39  2  1  0
 40  3  1  0
 41  3  1  0
 42  5  1  0
 43  5  1  0
 44  6  1  0
 45  6  1  0
 46  8  1  0
 47  8  1  0
 48  9  1  0
 49  9  1  0
 50 12  1  0
 51 13  1  0
 52 16  1  0
 53 17  1  0
 54 18  1  0
 55 19  1  0
 56 21  1  0
 57 21  1  0
 58 22  1  0
 59 22  1  0
 23 60  1  6
 61 24  1  0
 62 24  1  0
 63 25  1  0
 64 25  1  0
 65 28  1  0
 66 29  1  0
 67 30  1  0
 68 33  1  0
 69 33  1  0
 70 33  1  0
 71 34  1  0
 72 34  1  0
 73 14  1  0
  4 74  1  1
M  CHG  2   4   1  14   1
M  END
>  <b_m_subgroup_collapsed>  (235) 
0

>  <r_i_docking_score>  (235) 
-8.4809969853458593

>  <s_m_subgroup_title>  (235) 
glide-dock_SP_D22_pv

>  <s_m_subgroupid>  (235) 
glide-dock_SP_D22_pv

>  <Molecule ChEMBL ID>  (235) 
CHEMBL568801

>  <Standard Type>  (235) 
Ki

>  <Standard Value>  (235) 
4.89

>  <label>  (235) 
1

$$$$
CHEMBL556272
     RDKit          3D

 45 48  0  0  1  0  0  0  0  0999 V2000
    8.6933    5.1723  -12.5169 O   0  0  0  0  0  0  0  0  0  0  0  0
    9.8404    5.5925  -12.6547 C   0  0  0  0  0  0  0  0  0  0  0  0
   10.3284    6.6610  -12.0048 N   0  0  0  0  0  0  0  0  0  0  0  0
    9.6211    7.4370  -10.9806 C   0  0  0  0  0  0  0  0  0  0  0  0
    9.7720    6.7589   -9.6011 C   0  0  0  0  0  0  0  0  0  0  0  0
    8.9978    7.3785   -8.4885 N   0  0  0  0  0  0  0  0  0  0  0  0
    9.3804    8.7909   -8.1636 C   0  0  0  0  0  0  0  0  0  0  0  0
   10.2104    8.6635   -6.9108 C   0  0  0  0  0  0  0  0  0  0  0  0
   11.0070    9.6393   -6.2815 C   0  0  0  0  0  0  0  0  0  0  0  0
   11.7381    9.2656   -5.1319 C   0  0  0  0  0  0  0  0  0  0  0  0
   11.6860    7.9373   -4.6474 C   0  0  0  0  0  0  0  0  0  0  0  0
   10.8853    6.9722   -5.2988 C   0  0  0  0  0  0  0  0  0  0  0  0
   10.1250    7.3768   -6.4134 C   0  0  0  0  0  0  0  0  0  0  0  0
    9.1525    6.5722   -7.2382 C   0  0  0  0  0  0  0  0  0  0  0  0
   11.6938    6.9724  -12.3799 C   0  0  0  0  0  0  0  0  0  0  0  0
   12.0255    5.8796  -13.3871 C   0  0  0  0  0  0  0  0  0  0  0  0
   10.8084    5.0743  -13.4472 N   0  0  0  0  0  0  0  0  0  0  0  0
   10.7076    3.9255  -14.3026 C   0  0  0  0  0  0  0  0  0  0  0  0
   11.6044    3.7736  -15.3907 C   0  0  0  0  0  0  0  0  0  0  0  0
   11.5271    2.6553  -16.2445 C   0  0  0  0  0  0  0  0  0  0  0  0
   12.3896    2.5365  -17.2813 F   0  0  0  0  0  0  0  0  0  0  0  0
   10.5585    1.6615  -16.0206 C   0  0  0  0  0  0  0  0  0  0  0  0
    9.6709    1.7868  -14.9384 C   0  0  0  0  0  0  0  0  0  0  0  0
    8.4848    0.5722  -14.6472 Cl  0  0  0  0  0  0  0  0  0  0  0  0
    9.7478    2.9046  -14.0862 C   0  0  0  0  0  0  0  0  0  0  0  0
    8.5650    7.5211  -11.2463 H   0  0  0  0  0  0  0  0  0  0  0  0
   10.0202    8.4509  -10.9774 H   0  0  0  0  0  0  0  0  0  0  0  0
   10.8268    6.7239   -9.3250 H   0  0  0  0  0  0  0  0  0  0  0  0
    9.4439    5.7219   -9.6945 H   0  0  0  0  0  0  0  0  0  0  0  0
    8.4848    9.3725   -7.9409 H   0  0  0  0  0  0  0  0  0  0  0  0
    9.9369    9.2959   -8.9511 H   0  0  0  0  0  0  0  0  0  0  0  0
   11.0636   10.6510   -6.6532 H   0  0  0  0  0  0  0  0  0  0  0  0
   12.3552    9.9931   -4.6263 H   0  0  0  0  0  0  0  0  0  0  0  0
   12.2612    7.6601   -3.7755 H   0  0  0  0  0  0  0  0  0  0  0  0
   10.8378    5.9605   -4.9250 H   0  0  0  0  0  0  0  0  0  0  0  0
    9.5090    5.5560   -7.4159 H   0  0  0  0  0  0  0  0  0  0  0  0
    8.1956    6.5175   -6.7155 H   0  0  0  0  0  0  0  0  0  0  0  0
   11.7721    7.9357  -12.8653 H   0  0  0  0  0  0  0  0  0  0  0  0
   12.3581    6.9728  -11.5153 H   0  0  0  0  0  0  0  0  0  0  0  0
   12.8836    5.2827  -13.0663 H   0  0  0  0  0  0  0  0  0  0  0  0
   12.2546    6.3226  -14.3571 H   0  0  0  0  0  0  0  0  0  0  0  0
   12.3635    4.5105  -15.6013 H   0  0  0  0  0  0  0  0  0  0  0  0
   10.5012    0.8045  -16.6751 H   0  0  0  0  0  0  0  0  0  0  0  0
    9.0626    2.9415  -13.2544 H   0  0  0  0  0  0  0  0  0  0  0  0
    8.0156    7.3726   -8.7593 H   0  0  0  0  0  0  0  0  0  0  0  0
  2  1  2  0
  3  2  1  0
  4  3  1  0
  5  4  1  0
  6  5  1  0
  7  6  1  0
  8  7  1  0
  9  8  2  0
 10  9  1  0
 11 10  2  0
 12 11  1  0
 13  8  1  0
 13 12  2  0
 14  6  1  0
 14 13  1  0
 15  3  1  0
 16 15  1  0
 17  2  1  0
 17 16  1  0
 18 17  1  0
 19 18  2  0
 20 19  1  0
 21 20  1  0
 22 20  2  0
 23 22  1  0
 24 23  1  0
 25 18  1  0
 25 23  2  0
 26  4  1  0
 27  4  1  0
 28  5  1  0
 29  5  1  0
 30  7  1  0
 31  7  1  0
 32  9  1  0
 33 10  1  0
 34 11  1  0
 35 12  1  0
 36 14  1  0
 37 14  1  0
 38 15  1  0
 39 15  1  0
 40 16  1  0
 41 16  1  0
 42 19  1  0
 43 22  1  0
 44 25  1  0
 45  6  1  0
M  CHG  1   6   1
M  END
>  <b_m_subgroup_collapsed>  (236) 
0

>  <r_i_docking_score>  (236) 
-8.4771953488244005

>  <s_m_subgroup_title>  (236) 
glide-dock_SP_D22_pv

>  <s_m_subgroupid>  (236) 
glide-dock_SP_D22_pv

>  <Molecule ChEMBL ID>  (236) 
CHEMBL556272

>  <Standard Type>  (236) 
Ki

>  <Standard Value>  (236) 
31.62

>  <label>  (236) 
1

$$$$
CHEMBL4163265
     RDKit          3D

 46 48  0  0  1  0  0  0  0  0999 V2000
   10.7571   10.2805   -6.2462 F   0  0  0  0  0  0  0  0  0  0  0  0
   11.0845    9.1802   -5.5341 C   0  0  0  0  0  0  0  0  0  0  0  0
   11.6881    9.3707   -4.2753 C   0  0  0  0  0  0  0  0  0  0  0  0
   12.0848    8.2739   -3.4922 C   0  0  0  0  0  0  0  0  0  0  0  0
   11.8523    6.9732   -3.9669 C   0  0  0  0  0  0  0  0  0  0  0  0
   11.2285    6.7826   -5.2156 C   0  0  0  0  0  0  0  0  0  0  0  0
   10.8111    7.8713   -6.0176 C   0  0  0  0  0  0  0  0  0  0  0  0
   10.1424    7.6091   -7.2382 N   0  0  0  0  0  0  0  0  0  0  0  0
    9.0250    6.6677   -7.2354 C   0  0  0  0  0  0  0  0  0  0  0  0
    8.9548    5.9172   -8.5788 C   0  0  0  0  0  0  0  0  0  0  0  0
    8.8860    6.8518   -9.7361 N   0  0  0  0  0  0  0  0  0  0  0  0
    8.8709    6.1723  -11.0598 C   0  0  0  0  0  0  0  0  0  0  0  0
    7.6506    5.2596  -11.2950 C   0  0  0  0  0  0  0  0  0  0  0  0
    7.5079    4.8217  -12.7582 C   0  0  0  0  0  0  0  0  0  0  0  0
    6.2560    4.1018  -12.9689 N   0  0  0  0  0  0  0  0  0  0  0  0
    6.2863    2.7853  -13.4466 C   0  0  0  0  0  0  0  0  0  0  0  0
    5.2865    1.8690  -13.0466 C   0  0  0  0  0  0  0  0  0  0  0  0
    5.3011    0.5733  -13.4338 N   0  0  0  0  0  0  0  0  0  0  0  0
    6.3248    0.1962  -14.2348 C   0  0  0  0  0  0  0  0  0  0  0  0
    7.3234    1.1070  -14.6483 C   0  0  0  0  0  0  0  0  0  0  0  0
    8.6166    0.5713  -15.6558 Cl  0  0  0  0  0  0  0  0  0  0  0  0
    7.2989    2.4019  -14.2593 N   0  0  0  0  0  0  0  0  0  0  0  0
    9.9495    7.8973   -9.6847 C   0  0  0  0  0  0  0  0  0  0  0  0
   10.0726    8.5921   -8.3121 C   0  0  0  0  0  0  0  0  0  0  0  0
   11.8318   10.3697   -3.9014 H   0  0  0  0  0  0  0  0  0  0  0  0
   12.5505    8.4320   -2.5303 H   0  0  0  0  0  0  0  0  0  0  0  0
   12.1443    6.1204   -3.3703 H   0  0  0  0  0  0  0  0  0  0  0  0
   11.0743    5.7725   -5.5583 H   0  0  0  0  0  0  0  0  0  0  0  0
    8.0960    7.2170   -7.0672 H   0  0  0  0  0  0  0  0  0  0  0  0
    9.0952    5.9541   -6.4200 H   0  0  0  0  0  0  0  0  0  0  0  0
    8.0844    5.2619   -8.5704 H   0  0  0  0  0  0  0  0  0  0  0  0
    9.8312    5.2756   -8.6835 H   0  0  0  0  0  0  0  0  0  0  0  0
    9.7924    5.6044  -11.1973 H   0  0  0  0  0  0  0  0  0  0  0  0
    8.8640    6.9456  -11.8279 H   0  0  0  0  0  0  0  0  0  0  0  0
    6.7347    5.7724  -11.0137 H   0  0  0  0  0  0  0  0  0  0  0  0
    7.7115    4.3739  -10.6617 H   0  0  0  0  0  0  0  0  0  0  0  0
    8.3824    4.2347  -13.0378 H   0  0  0  0  0  0  0  0  0  0  0  0
    7.5020    5.6966  -13.4080 H   0  0  0  0  0  0  0  0  0  0  0  0
    5.5133    4.3307  -12.3227 H   0  0  0  0  0  0  0  0  0  0  0  0
    4.4846    2.1707  -12.3911 H   0  0  0  0  0  0  0  0  0  0  0  0
    6.3498   -0.8382  -14.5444 H   0  0  0  0  0  0  0  0  0  0  0  0
   10.9080    7.4323   -9.9260 H   0  0  0  0  0  0  0  0  0  0  0  0
    9.7661    8.6464  -10.4562 H   0  0  0  0  0  0  0  0  0  0  0  0
    9.2152    9.2455   -8.1427 H   0  0  0  0  0  0  0  0  0  0  0  0
   10.9668    9.2160   -8.3186 H   0  0  0  0  0  0  0  0  0  0  0  0
    7.9801    7.3274   -9.6814 H   0  0  0  0  0  0  0  0  0  0  0  0
  2  1  1  0
  3  2  2  0
  4  3  1  0
  5  4  2  0
  6  5  1  0
  7  2  1  0
  7  6  2  0
  8  7  1  0
  9  8  1  0
 10  9  1  0
 11 10  1  0
 12 11  1  0
 13 12  1  0
 14 13  1  0
 15 14  1  0
 16 15  1  0
 17 16  2  0
 18 17  1  0
 19 18  2  0
 20 19  1  0
 21 20  1  0
 22 16  1  0
 22 20  2  0
 23 11  1  0
 24  8  1  0
 24 23  1  0
 25  3  1  0
 26  4  1  0
 27  5  1  0
 28  6  1  0
 29  9  1  0
 30  9  1  0
 31 10  1  0
 32 10  1  0
 33 12  1  0
 34 12  1  0
 35 13  1  0
 36 13  1  0
 37 14  1  0
 38 14  1  0
 39 15  1  0
 40 17  1  0
 41 19  1  0
 42 23  1  0
 43 23  1  0
 44 24  1  0
 45 24  1  0
 46 11  1  0
M  CHG  1  11   1
M  END
>  <b_m_subgroup_collapsed>  (237) 
0

>  <r_i_docking_score>  (237) 
-8.4689228171395801

>  <s_m_subgroup_title>  (237) 
glide-dock_SP_D22_pv

>  <s_m_subgroupid>  (237) 
glide-dock_SP_D22_pv

>  <Molecule ChEMBL ID>  (237) 
CHEMBL4163265

>  <Standard Type>  (237) 
Ki

>  <Standard Value>  (237) 
37.0

>  <label>  (237) 
1

$$$$
CHEMBL169631
     RDKit          3D

 59 61  0  0  1  0  0  0  0  0999 V2000
   11.6726    3.0485  -15.2671 C   0  0  0  0  0  0  0  0  0  0  0  0
   11.0916    3.7913  -14.2052 O   0  0  0  0  0  0  0  0  0  0  0  0
    9.7407    3.6532  -13.9664 C   0  0  0  0  0  0  0  0  0  0  0  0
    9.0049    2.5608  -14.4906 C   0  0  0  0  0  0  0  0  0  0  0  0
    7.6241    2.4130  -14.2470 C   0  0  0  0  0  0  0  0  0  0  0  0
    6.9490    1.2850  -14.8056 N   0  0  0  0  0  0  0  0  0  0  0  0
    6.3269    0.3183  -13.8924 C   0  0  0  0  0  0  0  0  0  0  0  0
    6.8892    1.1135  -16.1518 C   0  0  0  0  0  0  0  0  0  0  0  0
    6.1624   -0.1107  -16.7115 C   0  0  0  0  0  0  0  0  0  0  0  0
    7.3608    1.9212  -16.9575 O   0  0  0  0  0  0  0  0  0  0  0  0
    6.9608    3.3727  -13.4477 C   0  0  0  0  0  0  0  0  0  0  0  0
    5.2862    3.2481  -13.0468 Cl  0  0  0  0  0  0  0  0  0  0  0  0
    7.6783    4.4680  -12.9346 C   0  0  0  0  0  0  0  0  0  0  0  0
    9.0655    4.6217  -13.1708 C   0  0  0  0  0  0  0  0  0  0  0  0
    9.7879    5.8318  -12.6259 C   0  0  0  0  0  0  0  0  0  0  0  0
   10.8870    6.1849  -13.0533 O   0  0  0  0  0  0  0  0  0  0  0  0
    9.1790    6.5028  -11.6320 N   0  0  0  0  0  0  0  0  0  0  0  0
    9.6538    7.7698  -11.0813 C   0  0  0  0  0  0  0  0  0  0  0  0
   10.6881    7.5741   -9.9601 C   0  0  1  0  0  0  0  0  0  0  0  0
   11.2908    8.8934   -9.4562 C   0  0  0  0  0  0  0  0  0  0  0  0
   11.1785    8.8534   -7.9313 C   0  0  0  0  0  0  0  0  0  0  0  0
   10.8828    7.4538   -7.5687 N   0  0  1  0  0  0  0  0  0  0  0  0
   10.2018    7.2918   -6.2641 C   0  0  0  0  0  0  0  0  0  0  0  0
   11.0400    7.7661   -5.0844 C   0  0  0  0  0  0  0  0  0  0  0  0
   11.0861    9.1366   -4.7376 C   0  0  0  0  0  0  0  0  0  0  0  0
   11.7171    9.5408   -3.5481 C   0  0  0  0  0  0  0  0  0  0  0  0
   12.3582    8.5964   -2.7259 C   0  0  0  0  0  0  0  0  0  0  0  0
   12.3482    7.2372   -3.0870 C   0  0  0  0  0  0  0  0  0  0  0  0
   11.6863    6.8243   -4.2590 C   0  0  0  0  0  0  0  0  0  0  0  0
   10.1244    6.8932   -8.7045 C   0  0  0  0  0  0  0  0  0  0  0  0
   12.7027    3.3730  -15.4162 H   0  0  0  0  0  0  0  0  0  0  0  0
   11.6869    1.9830  -15.0403 H   0  0  0  0  0  0  0  0  0  0  0  0
   11.1411    3.2105  -16.2054 H   0  0  0  0  0  0  0  0  0  0  0  0
    9.4882    1.8016  -15.0857 H   0  0  0  0  0  0  0  0  0  0  0  0
    6.7483   -0.6789  -14.0349 H   0  0  0  0  0  0  0  0  0  0  0  0
    6.4861    0.5777  -12.8463 H   0  0  0  0  0  0  0  0  0  0  0  0
    5.2496    0.2708  -14.0516 H   0  0  0  0  0  0  0  0  0  0  0  0
    6.6512   -1.0282  -16.3871 H   0  0  0  0  0  0  0  0  0  0  0  0
    5.1205   -0.1296  -16.3893 H   0  0  0  0  0  0  0  0  0  0  0  0
    6.1694   -0.0967  -17.8019 H   0  0  0  0  0  0  0  0  0  0  0  0
    7.1277    5.1911  -12.3489 H   0  0  0  0  0  0  0  0  0  0  0  0
    8.2745    6.1858  -11.3148 H   0  0  0  0  0  0  0  0  0  0  0  0
    8.7943    8.3245  -10.7056 H   0  0  0  0  0  0  0  0  0  0  0  0
   10.0816    8.3782  -11.8769 H   0  0  0  0  0  0  0  0  0  0  0  0
   11.5157    6.9723  -10.3369 H   0  0  0  0  0  0  0  0  0  0  0  0
   10.7731    9.7727   -9.8460 H   0  0  0  0  0  0  0  0  0  0  0  0
   12.3332    8.9715   -9.7660 H   0  0  0  0  0  0  0  0  0  0  0  0
   10.3386    9.4823   -7.6273 H   0  0  0  0  0  0  0  0  0  0  0  0
   12.0773    9.2269   -7.4355 H   0  0  0  0  0  0  0  0  0  0  0  0
    9.9534    6.2362   -6.1254 H   0  0  0  0  0  0  0  0  0  0  0  0
    9.2530    7.8332   -6.2690 H   0  0  0  0  0  0  0  0  0  0  0  0
   10.5758    9.8763   -5.3388 H   0  0  0  0  0  0  0  0  0  0  0  0
   11.6910   10.5783   -3.2524 H   0  0  0  0  0  0  0  0  0  0  0  0
   12.8408    8.9165   -1.8138 H   0  0  0  0  0  0  0  0  0  0  0  0
   12.8344    6.5047   -2.4581 H   0  0  0  0  0  0  0  0  0  0  0  0
   11.6490    5.7725   -4.5021 H   0  0  0  0  0  0  0  0  0  0  0  0
   10.2053    5.8053   -8.7505 H   0  0  0  0  0  0  0  0  0  0  0  0
    9.0662    7.1419   -8.5887 H   0  0  0  0  0  0  0  0  0  0  0  0
   11.7621    6.9604   -7.5306 H   0  0  0  0  0  0  0  0  0  0  0  0
  2  1  1  0
  3  2  1  0
  4  3  1  0
  5  4  2  0
  6  5  1  0
  7  6  1  0
  8  6  1  0
  9  8  1  0
 10  8  2  0
 11  5  1  0
 12 11  1  0
 13 11  2  0
 14  3  2  0
 14 13  1  0
 15 14  1  0
 16 15  2  0
 17 15  1  0
 18 17  1  0
 19 18  1  0
 20 19  1  0
 21 20  1  0
 22 21  1  0
 23 22  1  0
 24 23  1  0
 25 24  2  0
 26 25  1  0
 27 26  2  0
 28 27  1  0
 29 24  1  0
 29 28  2  0
 30 19  1  0
 30 22  1  0
 31  1  1  0
 32  1  1  0
 33  1  1  0
 34  4  1  0
 35  7  1  0
 36  7  1  0
 37  7  1  0
 38  9  1  0
 39  9  1  0
 40  9  1  0
 41 13  1  0
 42 17  1  0
 43 18  1  0
 44 18  1  0
 19 45  1  6
 46 20  1  0
 47 20  1  0
 48 21  1  0
 49 21  1  0
 50 23  1  0
 51 23  1  0
 52 25  1  0
 53 26  1  0
 54 27  1  0
 55 28  1  0
 56 29  1  0
 57 30  1  0
 58 30  1  0
 22 59  1  1
M  CHG  1  22   1
M  END
>  <b_m_subgroup_collapsed>  (238) 
0

>  <r_i_docking_score>  (238) 
-8.4686516824297602

>  <s_m_subgroup_title>  (238) 
glide-dock_SP_D22_pv

>  <s_m_subgroupid>  (238) 
glide-dock_SP_D22_pv

>  <Molecule ChEMBL ID>  (238) 
CHEMBL169631

>  <Standard Type>  (238) 
Ki

>  <Standard Value>  (238) 
28000.0

>  <label>  (238) 
0

$$$$
CHEMBL3115578
     RDKit          3D

 57 60  0  0  1  0  0  0  0  0999 V2000
    7.9121   -0.2276  -15.9655 O   0  0  0  0  0  0  0  0  0  0  0  0
    7.3063    0.6417  -15.1044 C   0  0  0  0  0  0  0  0  0  0  0  0
    6.1672    0.2552  -14.3707 C   0  0  0  0  0  0  0  0  0  0  0  0
    5.5377    1.1797  -13.5126 C   0  0  0  0  0  0  0  0  0  0  0  0
    6.0525    2.4868  -13.3761 C   0  0  0  0  0  0  0  0  0  0  0  0
    7.2295    2.8558  -14.0678 C   0  0  0  0  0  0  0  0  0  0  0  0
    7.8330    1.9385  -14.9500 C   0  0  0  0  0  0  0  0  0  0  0  0
    7.8139    4.0882  -13.8992 O   0  0  0  0  0  0  0  0  0  0  0  0
    7.4996    4.7864  -12.6974 C   0  0  1  0  0  0  0  0  0  0  0  0
    8.2115    6.1406  -12.8285 C   0  0  0  0  0  0  0  0  0  0  0  0
    8.4860    6.8101  -11.5439 N   0  0  0  0  0  0  0  0  0  0  0  0
    9.5970    7.7793  -11.6559 C   0  0  0  0  0  0  0  0  0  0  0  0
    9.6220    8.7351  -10.4686 C   0  0  0  0  0  0  0  0  0  0  0  0
    9.5951    7.9940   -9.2213 N   0  0  0  0  0  0  0  0  0  0  0  0
   10.9026    7.4437   -8.8481 C   0  0  0  0  0  0  0  0  0  0  0  0
   10.7361    6.5734   -7.5876 C   0  0  0  0  0  0  0  0  0  0  0  0
   10.1068    7.3505   -6.5291 N   0  0  0  0  0  0  0  0  0  0  0  0
   10.8807    7.7839   -5.4469 C   0  0  0  0  0  0  0  0  0  0  0  0
   11.4952    6.8043   -4.6482 C   0  0  0  0  0  0  0  0  0  0  0  0
   12.1535    7.1493   -3.4625 C   0  0  0  0  0  0  0  0  0  0  0  0
   12.2227    8.4968   -3.0869 C   0  0  0  0  0  0  0  0  0  0  0  0
   13.1847    8.9723   -1.3153 I   0  0  0  0  0  0  0  0  0  0  0  0
   11.6462    9.4985   -3.8889 C   0  0  0  0  0  0  0  0  0  0  0  0
   10.9758    9.1448   -5.0756 C   0  0  0  0  0  0  0  0  0  0  0  0
    8.8817    8.0420   -6.9032 C   0  0  0  0  0  0  0  0  0  0  0  0
    9.1190    8.8789   -8.1592 C   0  0  0  0  0  0  0  0  0  0  0  0
    5.9741    4.8914  -12.5602 C   0  0  0  0  0  0  0  0  0  0  0  0
    5.3534    3.4897  -12.4746 C   0  0  0  0  0  0  0  0  0  0  0  0
    7.6862   -1.1491  -15.8468 H   0  0  0  0  0  0  0  0  0  0  0  0
    5.7612   -0.7406  -14.4796 H   0  0  0  0  0  0  0  0  0  0  0  0
    4.6476    0.8899  -12.9760 H   0  0  0  0  0  0  0  0  0  0  0  0
    8.7213    2.2244  -15.4938 H   0  0  0  0  0  0  0  0  0  0  0  0
    7.9216    4.2302  -11.8580 H   0  0  0  0  0  0  0  0  0  0  0  0
    9.1657    5.9687  -13.3299 H   0  0  0  0  0  0  0  0  0  0  0  0
    7.6468    6.8314  -13.4469 H   0  0  0  0  0  0  0  0  0  0  0  0
    7.6432    7.2802  -11.1889 H   0  0  0  0  0  0  0  0  0  0  0  0
   10.5415    7.2439  -11.7553 H   0  0  0  0  0  0  0  0  0  0  0  0
    9.4760    8.3734  -12.5626 H   0  0  0  0  0  0  0  0  0  0  0  0
   10.5051    9.3723  -10.5006 H   0  0  0  0  0  0  0  0  0  0  0  0
    8.7425    9.3772  -10.5398 H   0  0  0  0  0  0  0  0  0  0  0  0
   11.3010    6.8311   -9.6557 H   0  0  0  0  0  0  0  0  0  0  0  0
   11.6186    8.2476   -8.6678 H   0  0  0  0  0  0  0  0  0  0  0  0
   10.1079    5.7092   -7.8065 H   0  0  0  0  0  0  0  0  0  0  0  0
   11.7029    6.1852   -7.2682 H   0  0  0  0  0  0  0  0  0  0  0  0
   11.4120    5.7720   -4.9247 H   0  0  0  0  0  0  0  0  0  0  0  0
   12.5929    6.3819   -2.8418 H   0  0  0  0  0  0  0  0  0  0  0  0
   11.6861   10.5309   -3.5753 H   0  0  0  0  0  0  0  0  0  0  0  0
   10.5060    9.9148   -5.6689 H   0  0  0  0  0  0  0  0  0  0  0  0
    8.0988    7.3028   -7.0806 H   0  0  0  0  0  0  0  0  0  0  0  0
    8.5157    8.6814   -6.1071 H   0  0  0  0  0  0  0  0  0  0  0  0
    9.8440    9.6683   -7.9649 H   0  0  0  0  0  0  0  0  0  0  0  0
    8.1816    9.3585   -8.4449 H   0  0  0  0  0  0  0  0  0  0  0  0
    5.6870    5.4906  -11.6945 H   0  0  0  0  0  0  0  0  0  0  0  0
    5.5769    5.4016  -13.4383 H   0  0  0  0  0  0  0  0  0  0  0  0
    4.3011    3.5354  -12.7524 H   0  0  0  0  0  0  0  0  0  0  0  0
    5.4093    3.1266  -11.4475 H   0  0  0  0  0  0  0  0  0  0  0  0
    8.7471    6.1367  -10.8380 H   0  0  0  0  0  0  0  0  0  0  0  0
  2  1  1  0
  3  2  1  0
  4  3  2  0
  5  4  1  0
  6  5  2  0
  7  2  2  0
  7  6  1  0
  8  6  1  0
  9  8  1  0
 10  9  1  0
 11 10  1  0
 12 11  1  0
 13 12  1  0
 14 13  1  0
 15 14  1  0
 16 15  1  0
 17 16  1  0
 18 17  1  0
 19 18  1  0
 20 19  2  0
 21 20  1  0
 22 21  1  0
 23 21  2  0
 24 18  2  0
 24 23  1  0
 25 17  1  0
 26 14  1  0
 26 25  1  0
 27  9  1  0
 28  5  1  0
 28 27  1  0
 29  1  1  0
 30  3  1  0
 31  4  1  0
 32  7  1  0
  9 33  1  1
 34 10  1  0
 35 10  1  0
 36 11  1  0
 37 12  1  0
 38 12  1  0
 39 13  1  0
 40 13  1  0
 41 15  1  0
 42 15  1  0
 43 16  1  0
 44 16  1  0
 45 19  1  0
 46 20  1  0
 47 23  1  0
 48 24  1  0
 49 25  1  0
 50 25  1  0
 51 26  1  0
 52 26  1  0
 53 27  1  0
 54 27  1  0
 55 28  1  0
 56 28  1  0
 57 11  1  0
M  CHG  1  11   1
M  END
>  <b_m_subgroup_collapsed>  (239) 
0

>  <r_i_docking_score>  (239) 
-8.4654893872864907

>  <s_m_subgroup_title>  (239) 
glide-dock_SP_D22_pv

>  <s_m_subgroupid>  (239) 
glide-dock_SP_D22_pv

>  <Molecule ChEMBL ID>  (239) 
CHEMBL3115578

>  <Standard Type>  (239) 
Ki

>  <Standard Value>  (239) 
66.07

>  <label>  (239) 
1

$$$$
CHEMBL549759
     RDKit          3D

 54 58  0  0  1  0  0  0  0  0999 V2000
    4.9913   -1.4836  -15.3865 C   0  0  0  0  0  0  0  0  0  0  0  0
    5.0444   -0.2282  -14.5152 C   0  0  0  0  0  0  0  0  0  0  0  0
    4.0916    0.0746  -13.7983 O   0  0  0  0  0  0  0  0  0  0  0  0
    6.2033    0.6375  -14.5195 N   0  0  0  0  0  0  0  0  0  0  0  0
    7.3448    0.2956  -15.2462 C   0  0  0  0  0  0  0  0  0  0  0  0
    8.3049    1.2628  -15.1125 C   0  0  0  0  0  0  0  0  0  0  0  0
    7.7602    2.2629  -14.2471 C   0  0  0  0  0  0  0  0  0  0  0  0
    8.2590    3.4732  -13.7039 C   0  0  0  0  0  0  0  0  0  0  0  0
    7.4841    4.2504  -12.8124 C   0  0  0  0  0  0  0  0  0  0  0  0
    8.0171    5.4351  -12.2442 N   0  0  0  0  0  0  0  0  0  0  0  0
    7.7541    6.7372  -12.8158 C   0  0  0  0  0  0  0  0  0  0  0  0
    8.6483    7.6822  -12.0179 C   0  0  0  0  0  0  0  0  0  0  0  0
    9.2394    6.7880  -11.0444 N   0  0  0  0  0  0  0  0  0  0  0  0
   10.0916    7.3021   -9.9824 C   0  0  0  0  0  0  0  0  0  0  0  0
    9.4061    7.2027   -8.6080 C   0  0  0  0  0  0  0  0  0  0  0  0
   10.3752    7.5893   -7.5564 N   0  0  0  0  0  0  0  0  0  0  0  0
   10.5483    6.5910   -6.4646 C   0  0  0  0  0  0  0  0  0  0  0  0
   11.0823    7.4341   -5.3457 C   0  0  0  0  0  0  0  0  0  0  0  0
   11.6860    7.0090   -4.1506 C   0  0  0  0  0  0  0  0  0  0  0  0
   12.0868    7.9991   -3.2251 C   0  0  0  0  0  0  0  0  0  0  0  0
   11.8917    9.3725   -3.5098 C   0  0  0  0  0  0  0  0  0  0  0  0
   11.2862    9.7773   -4.7202 C   0  0  0  0  0  0  0  0  0  0  0  0
   10.8860    8.7786   -5.6238 C   0  0  0  0  0  0  0  0  0  0  0  0
   10.2028    8.9419   -6.9539 C   0  0  0  0  0  0  0  0  0  0  0  0
    8.8819    5.5076  -11.2186 C   0  0  0  0  0  0  0  0  0  0  0  0
    9.2859    4.5725  -10.5318 O   0  0  0  0  0  0  0  0  0  0  0  0
    6.1666    3.8581  -12.5020 C   0  0  0  0  0  0  0  0  0  0  0  0
    5.6435    2.6648  -13.0352 C   0  0  0  0  0  0  0  0  0  0  0  0
    6.4384    1.8605  -13.8838 C   0  0  0  0  0  0  0  0  0  0  0  0
    5.6864   -2.2375  -15.0189 H   0  0  0  0  0  0  0  0  0  0  0  0
    3.9879   -1.9129  -15.3739 H   0  0  0  0  0  0  0  0  0  0  0  0
    5.2333   -1.2471  -16.4229 H   0  0  0  0  0  0  0  0  0  0  0  0
    7.4090   -0.6242  -15.8123 H   0  0  0  0  0  0  0  0  0  0  0  0
    9.2911    1.2709  -15.5518 H   0  0  0  0  0  0  0  0  0  0  0  0
    9.2634    3.7839  -13.9473 H   0  0  0  0  0  0  0  0  0  0  0  0
    8.0664    6.6957  -13.8479 H   0  0  0  0  0  0  0  0  0  0  0  0
    6.6996    7.0016  -12.7447 H   0  0  0  0  0  0  0  0  0  0  0  0
    8.0864    8.4810  -11.5338 H   0  0  0  0  0  0  0  0  0  0  0  0
    9.4214    8.1317  -12.6411 H   0  0  0  0  0  0  0  0  0  0  0  0
   10.3579    8.3372  -10.1991 H   0  0  0  0  0  0  0  0  0  0  0  0
   11.0215    6.7313   -9.9863 H   0  0  0  0  0  0  0  0  0  0  0  0
    9.0849    6.1745   -8.4335 H   0  0  0  0  0  0  0  0  0  0  0  0
    8.4890    7.8034   -8.5695 H   0  0  0  0  0  0  0  0  0  0  0  0
   11.2306    5.7896   -6.7511 H   0  0  0  0  0  0  0  0  0  0  0  0
    9.5881    6.1725   -6.1606 H   0  0  0  0  0  0  0  0  0  0  0  0
   11.8300    5.9586   -3.9371 H   0  0  0  0  0  0  0  0  0  0  0  0
   12.5447    7.7069   -2.2911 H   0  0  0  0  0  0  0  0  0  0  0  0
   12.2026   10.1182   -2.7918 H   0  0  0  0  0  0  0  0  0  0  0  0
   11.1271   10.8220   -4.9406 H   0  0  0  0  0  0  0  0  0  0  0  0
    9.1463    9.1444   -6.7875 H   0  0  0  0  0  0  0  0  0  0  0  0
   10.6401    9.7528   -7.5491 H   0  0  0  0  0  0  0  0  0  0  0  0
    5.5676    4.4605  -11.8313 H   0  0  0  0  0  0  0  0  0  0  0  0
    4.6408    2.3590  -12.7773 H   0  0  0  0  0  0  0  0  0  0  0  0
   11.2805    7.6190   -8.0027 H   0  0  0  0  0  0  0  0  0  0  0  0
  2  1  1  0
  3  2  2  0
  4  2  1  0
  5  4  1  0
  6  5  2  0
  7  6  1  0
  8  7  2  0
  9  8  1  0
 10  9  1  0
 11 10  1  0
 12 11  1  0
 13 12  1  0
 14 13  1  0
 15 14  1  0
 16 15  1  0
 17 16  1  0
 18 17  1  0
 19 18  2  0
 20 19  1  0
 21 20  2  0
 22 21  1  0
 23 18  1  0
 23 22  2  0
 24 16  1  0
 24 23  1  0
 25 10  1  0
 25 13  1  0
 26 25  2  0
 27  9  2  0
 28 27  1  0
 29  4  1  0
 29  7  1  0
 29 28  2  0
 30  1  1  0
 31  1  1  0
 32  1  1  0
 33  5  1  0
 34  6  1  0
 35  8  1  0
 36 11  1  0
 37 11  1  0
 38 12  1  0
 39 12  1  0
 40 14  1  0
 41 14  1  0
 42 15  1  0
 43 15  1  0
 44 17  1  0
 45 17  1  0
 46 19  1  0
 47 20  1  0
 48 21  1  0
 49 22  1  0
 50 24  1  0
 51 24  1  0
 52 27  1  0
 53 28  1  0
 54 16  1  0
M  CHG  1  16   1
M  END
>  <b_m_subgroup_collapsed>  (240) 
0

>  <r_i_docking_score>  (240) 
-8.4641855841263904

>  <s_m_subgroup_title>  (240) 
glide-dock_SP_D22_pv

>  <s_m_subgroupid>  (240) 
glide-dock_SP_D22_pv

>  <Molecule ChEMBL ID>  (240) 
CHEMBL549759

>  <Standard Type>  (240) 
Ki

>  <Standard Value>  (240) 
10000.0

>  <label>  (240) 
0

$$$$
CHEMBL302186
     RDKit          3D

 52 55  0  0  1  0  0  0  0  0999 V2000
   11.9644    8.3425   -2.4341 C   0  0  0  0  0  0  0  0  0  0  0  0
   11.9534    7.2129   -3.2677 C   0  0  0  0  0  0  0  0  0  0  0  0
   11.7177    7.3730   -4.6459 C   0  0  0  0  0  0  0  0  0  0  0  0
   11.5079    8.6584   -5.2022 C   0  0  0  0  0  0  0  0  0  0  0  0
   11.5312    8.9042   -6.7033 C   0  0  0  0  0  0  0  0  0  0  0  0
   10.4418    8.3581   -7.5087 N   0  0  0  0  0  0  0  0  0  0  0  0
   10.7773    8.7014   -8.8951 C   0  0  0  0  0  0  0  0  0  0  0  0
    9.6870    8.2161   -9.8504 C   0  0  0  0  0  0  0  0  0  0  0  0
    9.5711    6.6909   -9.7497 C   0  0  0  0  0  0  0  0  0  0  0  0
    8.4860    6.1733  -10.5827 N   0  0  0  0  0  0  0  0  0  0  0  0
    8.6011    6.3958  -12.0302 C   0  0  0  0  0  0  0  0  0  0  0  0
    7.8553    5.2976  -12.6999 C   0  0  0  0  0  0  0  0  0  0  0  0
    6.5081    5.0456  -12.6456 C   0  0  0  0  0  0  0  0  0  0  0  0
    6.1057    3.5544  -13.4476 S   0  0  0  0  0  0  0  0  0  0  0  0
    7.8089    3.3574  -13.8819 C   0  0  0  0  0  0  0  0  0  0  0  0
    8.3100    2.2206  -14.6560 C   0  0  0  0  0  0  0  0  0  0  0  0
    9.7037    2.0644  -14.8458 C   0  0  0  0  0  0  0  0  0  0  0  0
   10.2107    0.9911  -15.6026 C   0  0  0  0  0  0  0  0  0  0  0  0
    9.3255    0.0643  -16.1816 C   0  0  0  0  0  0  0  0  0  0  0  0
    7.9375    0.2025  -15.9909 C   0  0  0  0  0  0  0  0  0  0  0  0
    7.4304    1.2750  -15.2320 C   0  0  0  0  0  0  0  0  0  0  0  0
    8.5747    4.3427  -13.4111 N   0  0  0  0  0  0  0  0  0  0  0  0
    9.2852    6.3133   -8.2997 C   0  0  0  0  0  0  0  0  0  0  0  0
   10.3390    6.9018   -7.3659 C   0  0  0  0  0  0  0  0  0  0  0  0
   11.4446    9.7720   -4.3490 C   0  0  0  0  0  0  0  0  0  0  0  0
   11.6868    9.6120   -2.9756 C   0  0  0  0  0  0  0  0  0  0  0  0
   12.1640    8.2366   -1.3774 H   0  0  0  0  0  0  0  0  0  0  0  0
   12.1550    6.2322   -2.8583 H   0  0  0  0  0  0  0  0  0  0  0  0
   11.8205    6.4995   -5.2708 H   0  0  0  0  0  0  0  0  0  0  0  0
   12.4869    8.5513   -7.0818 H   0  0  0  0  0  0  0  0  0  0  0  0
   11.5482    9.9844   -6.8594 H   0  0  0  0  0  0  0  0  0  0  0  0
   11.7370    8.2622   -9.1741 H   0  0  0  0  0  0  0  0  0  0  0  0
   10.8876    9.7787   -9.0009 H   0  0  0  0  0  0  0  0  0  0  0  0
    9.9371    8.5227  -10.8666 H   0  0  0  0  0  0  0  0  0  0  0  0
    8.7391    8.6970   -9.6011 H   0  0  0  0  0  0  0  0  0  0  0  0
   10.5050    6.2248  -10.0632 H   0  0  0  0  0  0  0  0  0  0  0  0
    7.6256    6.6491  -10.2893 H   0  0  0  0  0  0  0  0  0  0  0  0
    9.6488    6.3920  -12.3313 H   0  0  0  0  0  0  0  0  0  0  0  0
    8.1936    7.3741  -12.2896 H   0  0  0  0  0  0  0  0  0  0  0  0
    5.7415    5.6166  -12.1403 H   0  0  0  0  0  0  0  0  0  0  0  0
   10.4009    2.7666  -14.4097 H   0  0  0  0  0  0  0  0  0  0  0  0
   11.2762    0.8830  -15.7416 H   0  0  0  0  0  0  0  0  0  0  0  0
    9.7084   -0.7621  -16.7623 H   0  0  0  0  0  0  0  0  0  0  0  0
    7.2613   -0.5222  -16.4214 H   0  0  0  0  0  0  0  0  0  0  0  0
    6.3621    1.3580  -15.1060 H   0  0  0  0  0  0  0  0  0  0  0  0
    8.3031    6.6809   -8.0002 H   0  0  0  0  0  0  0  0  0  0  0  0
    9.2544    5.2295   -8.1836 H   0  0  0  0  0  0  0  0  0  0  0  0
   11.3030    6.4268   -7.5432 H   0  0  0  0  0  0  0  0  0  0  0  0
   10.0138    6.6539   -6.3581 H   0  0  0  0  0  0  0  0  0  0  0  0
   11.2861   10.7616   -4.7490 H   0  0  0  0  0  0  0  0  0  0  0  0
   11.7066   10.4781   -2.3371 H   0  0  0  0  0  0  0  0  0  0  0  0
    8.3797    5.1830  -10.4208 H   0  0  0  0  0  0  0  0  0  0  0  0
  2  1  2  0
  3  2  1  0
  4  3  2  0
  5  4  1  0
  6  5  1  0
  7  6  1  0
  8  7  1  0
  9  8  1  0
 10  9  1  0
 11 10  1  0
 12 11  1  0
 13 12  2  0
 14 13  1  0
 15 14  1  0
 16 15  1  0
 17 16  2  0
 18 17  1  0
 19 18  2  0
 20 19  1  0
 21 16  1  0
 21 20  2  0
 22 12  1  0
 22 15  2  0
 23  9  1  0
 24  6  1  0
 24 23  1  0
 25  4  1  0
 26  1  1  0
 26 25  2  0
 27  1  1  0
 28  2  1  0
 29  3  1  0
 30  5  1  0
 31  5  1  0
 32  7  1  0
 33  7  1  0
 34  8  1  0
 35  8  1  0
 36  9  1  0
 37 10  1  0
 38 11  1  0
 39 11  1  0
 40 13  1  0
 41 17  1  0
 42 18  1  0
 43 19  1  0
 44 20  1  0
 45 21  1  0
 46 23  1  0
 47 23  1  0
 48 24  1  0
 49 24  1  0
 50 25  1  0
 51 26  1  0
 52 10  1  0
M  CHG  1  10   1
M  END
>  <b_m_subgroup_collapsed>  (241) 
0

>  <r_i_docking_score>  (241) 
-8.4616389178693403

>  <s_m_subgroup_title>  (241) 
glide-dock_SP_D22_pv

>  <s_m_subgroupid>  (241) 
glide-dock_SP_D22_pv

>  <Molecule ChEMBL ID>  (241) 
CHEMBL302186

>  <Standard Type>  (241) 
Ki

>  <Standard Value>  (241) 
13500.0

>  <label>  (241) 
0

$$$$
CHEMBL124234
     RDKit          3D

 53 56  0  0  1  0  0  0  0  0999 V2000
    5.7319    1.9317  -13.6253 C   0  0  0  0  0  0  0  0  0  0  0  0
    6.4860    3.2196  -13.3659 C   0  0  0  0  0  0  0  0  0  0  0  0
    5.9008    4.2372  -12.5869 C   0  0  0  0  0  0  0  0  0  0  0  0
    6.6422    5.3846  -12.2469 C   0  0  0  0  0  0  0  0  0  0  0  0
    7.9848    5.5117  -12.6606 C   0  0  0  0  0  0  0  0  0  0  0  0
    8.7980    6.7456  -12.3020 C   0  0  0  0  0  0  0  0  0  0  0  0
    8.8860    7.0749  -10.8563 N   0  0  2  0  0  0  0  0  0  0  0  0
    9.6266    8.3407  -10.6609 C   0  0  0  0  0  0  0  0  0  0  0  0
    9.6427    8.7780   -9.1935 C   0  0  0  0  0  0  0  0  0  0  0  0
   10.2400    7.6895   -8.2714 C   0  0  1  0  0  0  0  0  0  0  0  0
   10.3469    8.1200   -6.7648 C   0  0  2  0  0  0  0  0  0  0  0  0
   10.8488    9.5607   -6.6171 C   0  0  0  0  0  0  0  0  0  0  0  0
   11.0425   10.0938   -5.1974 C   0  0  0  0  0  0  0  0  0  0  0  0
   11.6059    9.0737   -4.2379 C   0  0  0  0  0  0  0  0  0  0  0  0
   12.0486    9.5041   -2.9719 C   0  0  0  0  0  0  0  0  0  0  0  0
   12.4860    8.5723   -2.0167 C   0  0  0  0  0  0  0  0  0  0  0  0
   12.4860    7.2025   -2.3299 C   0  0  0  0  0  0  0  0  0  0  0  0
   12.0860    6.7766   -3.6061 C   0  0  0  0  0  0  0  0  0  0  0  0
   11.6423    7.7005   -4.5715 C   0  0  0  0  0  0  0  0  0  0  0  0
   11.2637    7.2194   -5.9276 C   0  0  0  0  0  0  0  0  0  0  0  0
   11.6860    6.1723   -6.4010 O   0  0  0  0  0  0  0  0  0  0  0  0
    9.4072    6.4039   -8.4995 C   0  0  0  0  0  0  0  0  0  0  0  0
    9.3963    5.9846   -9.9850 C   0  0  0  0  0  0  0  0  0  0  0  0
    8.5581    4.5059  -13.4686 C   0  0  0  0  0  0  0  0  0  0  0  0
    7.8070    3.3723  -13.8353 C   0  0  0  0  0  0  0  0  0  0  0  0
    5.8913    1.5846  -14.6462 H   0  0  0  0  0  0  0  0  0  0  0  0
    6.0860    1.1527  -12.9503 H   0  0  0  0  0  0  0  0  0  0  0  0
    4.6634    2.0563  -13.4469 H   0  0  0  0  0  0  0  0  0  0  0  0
    4.8897    4.1329  -12.2225 H   0  0  0  0  0  0  0  0  0  0  0  0
    6.1782    6.1550  -11.6472 H   0  0  0  0  0  0  0  0  0  0  0  0
    8.3384    7.5883  -12.8193 H   0  0  0  0  0  0  0  0  0  0  0  0
    9.8095    6.6387  -12.6965 H   0  0  0  0  0  0  0  0  0  0  0  0
    9.1570    9.1217  -11.2595 H   0  0  0  0  0  0  0  0  0  0  0  0
   10.6492    8.2293  -11.0257 H   0  0  0  0  0  0  0  0  0  0  0  0
    8.6337    9.0375   -8.8670 H   0  0  0  0  0  0  0  0  0  0  0  0
   10.2346    9.6911   -9.1598 H   0  0  0  0  0  0  0  0  0  0  0  0
   11.2538    7.4985   -8.6296 H   0  0  0  0  0  0  0  0  0  0  0  0
    9.3529    8.0628   -6.3189 H   0  0  0  0  0  0  0  0  0  0  0  0
   11.7681    9.6937   -7.1895 H   0  0  0  0  0  0  0  0  0  0  0  0
   10.0860   10.1723   -7.0469 H   0  0  0  0  0  0  0  0  0  0  0  0
   10.0860   10.4251   -4.7931 H   0  0  0  0  0  0  0  0  0  0  0  0
   11.6835   10.9723   -5.2367 H   0  0  0  0  0  0  0  0  0  0  0  0
   12.0280   10.5534   -2.7129 H   0  0  0  0  0  0  0  0  0  0  0  0
   12.8131    8.9128   -1.0469 H   0  0  0  0  0  0  0  0  0  0  0  0
   12.8174    6.4744   -1.6039 H   0  0  0  0  0  0  0  0  0  0  0  0
   12.1083    5.7279   -3.8427 H   0  0  0  0  0  0  0  0  0  0  0  0
    9.7883    5.5719   -7.9092 H   0  0  0  0  0  0  0  0  0  0  0  0
    8.3839    6.5653   -8.1574 H   0  0  0  0  0  0  0  0  0  0  0  0
    8.7782    5.0933  -10.1001 H   0  0  0  0  0  0  0  0  0  0  0  0
   10.4050    5.7182  -10.2979 H   0  0  0  0  0  0  0  0  0  0  0  0
    9.5780    4.5955  -13.8135 H   0  0  0  0  0  0  0  0  0  0  0  0
    8.2647    2.5963  -14.4318 H   0  0  0  0  0  0  0  0  0  0  0  0
    7.9232    7.2735  -10.5595 H   0  0  0  0  0  0  0  0  0  0  0  0
  2  1  1  0
  3  2  1  0
  4  3  2  0
  5  4  1  0
  6  5  1  0
  7  6  1  0
  8  7  1  0
  9  8  1  0
 10  9  1  0
 11 10  1  0
 12 11  1  0
 13 12  1  0
 14 13  1  0
 15 14  2  0
 16 15  1  0
 17 16  2  0
 18 17  1  0
 19 14  1  0
 19 18  2  0
 20 11  1  0
 20 19  1  0
 21 20  2  0
 22 10  1  0
 23  7  1  0
 23 22  1  0
 24  5  2  0
 25  2  2  0
 25 24  1  0
 26  1  1  0
 27  1  1  0
 28  1  1  0
 29  3  1  0
 30  4  1  0
 31  6  1  0
 32  6  1  0
 33  8  1  0
 34  8  1  0
 35  9  1  0
 36  9  1  0
 10 37  1  6
 11 38  1  1
 39 12  1  0
 40 12  1  0
 41 13  1  0
 42 13  1  0
 43 15  1  0
 44 16  1  0
 45 17  1  0
 46 18  1  0
 47 22  1  0
 48 22  1  0
 49 23  1  0
 50 23  1  0
 51 24  1  0
 52 25  1  0
  7 53  1  1
M  CHG  1   7   1
M  END
>  <b_m_subgroup_collapsed>  (242) 
0

>  <r_i_docking_score>  (242) 
-8.4606479658655296

>  <s_m_subgroup_title>  (242) 
glide-dock_SP_D22_pv

>  <s_m_subgroupid>  (242) 
glide-dock_SP_D22_pv

>  <Molecule ChEMBL ID>  (242) 
CHEMBL124234

>  <Standard Type>  (242) 
Ki

>  <Standard Value>  (242) 
37.0

>  <label>  (242) 
1

$$$$
CHEMBL93958
     RDKit          3D

 49 52  0  0  1  0  0  0  0  0999 V2000
   12.4837    8.1731   -9.9749 O   0  0  0  0  0  0  0  0  0  0  0  0
   11.7943    8.0927   -8.9618 C   0  0  0  0  0  0  0  0  0  0  0  0
   12.0868    8.5779   -7.7502 N   0  0  0  0  0  0  0  0  0  0  0  0
   11.1540    8.1475   -6.8258 C   0  0  0  0  0  0  0  0  0  0  0  0
   11.3857    8.1738   -5.3794 C   0  0  0  0  0  0  0  0  0  0  0  0
   11.7796    9.3678   -4.7419 C   0  0  0  0  0  0  0  0  0  0  0  0
   12.1160    9.3493   -3.3737 C   0  0  0  0  0  0  0  0  0  0  0  0
   12.0869    8.1426   -2.6507 C   0  0  0  0  0  0  0  0  0  0  0  0
   11.6866    6.9536   -3.2876 C   0  0  0  0  0  0  0  0  0  0  0  0
   11.3022    6.9724   -4.6447 C   0  0  0  0  0  0  0  0  0  0  0  0
   10.2587    7.4329   -7.5066 C   0  0  0  0  0  0  0  0  0  0  0  0
   10.6251    7.4399   -8.8454 N   0  0  0  0  0  0  0  0  0  0  0  0
    9.9934    6.6682   -9.9189 C   0  0  1  0  0  0  0  0  0  0  0  0
    9.0442    5.5597   -9.4135 C   0  0  0  0  0  0  0  0  0  0  0  0
    8.3931    4.8134  -10.5846 C   0  0  0  0  0  0  0  0  0  0  0  0
    7.6864    5.7807  -11.4471 N   0  0  2  0  0  0  0  0  0  0  0  0
    6.6346    5.2520  -12.3538 C   0  0  0  0  0  0  0  0  0  0  0  0
    6.9721    3.9868  -13.1304 C   0  0  0  0  0  0  0  0  0  0  0  0
    6.0642    2.9062  -13.1079 C   0  0  0  0  0  0  0  0  0  0  0  0
    6.3255    1.7340  -13.8478 C   0  0  0  0  0  0  0  0  0  0  0  0
    7.5009    1.6344  -14.6151 C   0  0  0  0  0  0  0  0  0  0  0  0
    8.4115    2.7082  -14.6408 C   0  0  0  0  0  0  0  0  0  0  0  0
    8.1433    3.8832  -13.9119 C   0  0  0  0  0  0  0  0  0  0  0  0
    8.6194    6.7667  -12.0487 C   0  0  0  0  0  0  0  0  0  0  0  0
    9.2848    7.5912  -10.9317 C   0  0  0  0  0  0  0  0  0  0  0  0
   12.9379    9.0576   -7.4941 H   0  0  0  0  0  0  0  0  0  0  0  0
   11.8469   10.2881   -5.3032 H   0  0  0  0  0  0  0  0  0  0  0  0
   12.4300   10.2487   -2.8721 H   0  0  0  0  0  0  0  0  0  0  0  0
   12.3620    8.1344   -1.6064 H   0  0  0  0  0  0  0  0  0  0  0  0
   11.6591    6.0282   -2.7293 H   0  0  0  0  0  0  0  0  0  0  0  0
   11.0053    6.0525   -5.1267 H   0  0  0  0  0  0  0  0  0  0  0  0
    9.4429    6.8238   -7.1480 H   0  0  0  0  0  0  0  0  0  0  0  0
   10.8011    6.1725  -10.4537 H   0  0  0  0  0  0  0  0  0  0  0  0
    9.5817    4.8553   -8.7784 H   0  0  0  0  0  0  0  0  0  0  0  0
    8.2468    5.9921   -8.8061 H   0  0  0  0  0  0  0  0  0  0  0  0
    7.6854    4.0905  -10.1892 H   0  0  0  0  0  0  0  0  0  0  0  0
    9.1360    4.2577  -11.1595 H   0  0  0  0  0  0  0  0  0  0  0  0
    5.7644    5.0478  -11.7292 H   0  0  0  0  0  0  0  0  0  0  0  0
    6.3080    6.0269  -13.0469 H   0  0  0  0  0  0  0  0  0  0  0  0
    5.1542    2.9695  -12.5281 H   0  0  0  0  0  0  0  0  0  0  0  0
    5.6236    0.9125  -13.8269 H   0  0  0  0  0  0  0  0  0  0  0  0
    7.7051    0.7339  -15.1763 H   0  0  0  0  0  0  0  0  0  0  0  0
    9.3122    2.6318  -15.2330 H   0  0  0  0  0  0  0  0  0  0  0  0
    8.8436    4.6994  -13.9751 H   0  0  0  0  0  0  0  0  0  0  0  0
    8.0763    7.4397  -12.7131 H   0  0  0  0  0  0  0  0  0  0  0  0
    9.3858    6.2717  -12.6420 H   0  0  0  0  0  0  0  0  0  0  0  0
    8.5025    8.1765  -10.4362 H   0  0  0  0  0  0  0  0  0  0  0  0
    9.9862    8.3069  -11.3619 H   0  0  0  0  0  0  0  0  0  0  0  0
    7.1503    6.3723  -10.8087 H   0  0  0  0  0  0  0  0  0  0  0  0
  2  1  2  0
  3  2  1  0
  4  3  1  0
  5  4  1  0
  6  5  2  0
  7  6  1  0
  8  7  2  0
  9  8  1  0
 10  5  1  0
 10  9  2  0
 11  4  2  0
 12  2  1  0
 12 11  1  0
 13 12  1  0
 14 13  1  0
 15 14  1  0
 16 15  1  0
 17 16  1  0
 18 17  1  0
 19 18  2  0
 20 19  1  0
 21 20  2  0
 22 21  1  0
 23 18  1  0
 23 22  2  0
 24 16  1  0
 25 13  1  0
 25 24  1  0
 26  3  1  0
 27  6  1  0
 28  7  1  0
 29  8  1  0
 30  9  1  0
 31 10  1  0
 32 11  1  0
 13 33  1  6
 34 14  1  0
 35 14  1  0
 36 15  1  0
 37 15  1  0
 38 17  1  0
 39 17  1  0
 40 19  1  0
 41 20  1  0
 42 21  1  0
 43 22  1  0
 44 23  1  0
 45 24  1  0
 46 24  1  0
 47 25  1  0
 48 25  1  0
 16 49  1  1
M  CHG  1  16   1
M  END
>  <b_m_subgroup_collapsed>  (243) 
0

>  <r_i_docking_score>  (243) 
-8.4538425998584508

>  <s_m_subgroup_title>  (243) 
glide-dock_SP_D22_pv

>  <s_m_subgroupid>  (243) 
glide-dock_SP_D22_pv

>  <Molecule ChEMBL ID>  (243) 
CHEMBL93958

>  <Standard Type>  (243) 
Ki

>  <Standard Value>  (243) 
82.0

>  <label>  (243) 
1

$$$$
CHEMBL493909
     RDKit          3D

 64 66  0  0  1  0  0  0  0  0999 V2000
   12.1594   10.8401   -6.2570 C   0  0  0  0  0  0  0  0  0  0  0  0
   10.8860   10.5723   -5.0467 S   0  0  0  0  0  0  0  0  0  0  0  0
   11.3734    9.0772   -4.2940 C   0  0  0  0  0  0  0  0  0  0  0  0
   11.8839    9.1662   -2.9849 C   0  0  0  0  0  0  0  0  0  0  0  0
   12.2737    8.0107   -2.2929 C   0  0  0  0  0  0  0  0  0  0  0  0
   12.1583    6.7621   -2.9219 C   0  0  0  0  0  0  0  0  0  0  0  0
   11.6862    6.6838   -4.2457 C   0  0  0  0  0  0  0  0  0  0  0  0
   11.2860    7.8295   -4.9680 C   0  0  0  0  0  0  0  0  0  0  0  0
   10.8338    7.6786   -6.3023 N   0  0  0  0  0  0  0  0  0  0  0  0
   11.5252    6.7643   -7.2036 C   0  0  0  0  0  0  0  0  0  0  0  0
   10.4862    5.8441   -7.8411 C   0  0  0  0  0  0  0  0  0  0  0  0
    9.5025    6.6222   -8.5976 N   0  0  0  0  0  0  0  0  0  0  0  0
    8.6463    5.7298   -9.4016 C   0  0  0  0  0  0  0  0  0  0  0  0
    9.1485    5.5566  -10.8367 C   0  0  0  0  0  0  0  0  0  0  0  0
    8.0357    4.9699  -11.7160 C   0  0  0  0  0  0  0  0  0  0  0  0
    8.4622    4.7131  -13.1639 C   0  0  0  0  0  0  0  0  0  0  0  0
    9.5291    3.6059  -13.2920 C   0  0  0  0  0  0  0  0  0  0  0  0
    9.2590    2.6762  -14.4723 C   0  0  0  0  0  0  0  0  0  0  0  0
    8.8976    3.1325  -15.5562 O   0  0  0  0  0  0  0  0  0  0  0  0
    9.4313    1.3682  -14.2470 N   0  0  0  0  0  0  0  0  0  0  0  0
    9.1466    0.3239  -15.2282 C   0  0  0  0  0  0  0  0  0  0  0  0
   10.0628    0.2394  -16.4502 C   0  0  0  0  0  0  0  0  0  0  0  0
    9.6886   -0.6197  -17.5051 C   0  0  0  0  0  0  0  0  0  0  0  0
   10.5100   -0.7625  -18.6396 C   0  0  0  0  0  0  0  0  0  0  0  0
   11.7183   -0.0439  -18.7326 C   0  0  0  0  0  0  0  0  0  0  0  0
   12.5876   -0.2250  -19.8824 C   0  0  0  0  0  0  0  0  0  0  0  0
   13.2801   -0.3711  -20.7979 N   0  0  0  0  0  0  0  0  0  0  0  0
   12.0852    0.8411  -17.7007 C   0  0  0  0  0  0  0  0  0  0  0  0
   11.2666    0.9757  -16.5617 C   0  0  0  0  0  0  0  0  0  0  0  0
    8.7494    7.5130   -7.6790 C   0  0  0  0  0  0  0  0  0  0  0  0
    9.6818    8.4049   -6.8471 C   0  0  0  0  0  0  0  0  0  0  0  0
   12.0907   11.8547   -6.6469 H   0  0  0  0  0  0  0  0  0  0  0  0
   13.1415   10.6579   -5.8430 H   0  0  0  0  0  0  0  0  0  0  0  0
   12.0298   10.1175   -7.0521 H   0  0  0  0  0  0  0  0  0  0  0  0
   11.9641   10.1280   -2.4986 H   0  0  0  0  0  0  0  0  0  0  0  0
   12.6527    8.0854   -1.2842 H   0  0  0  0  0  0  0  0  0  0  0  0
   12.4430    5.8628   -2.3944 H   0  0  0  0  0  0  0  0  0  0  0  0
   11.6028    5.7176   -4.7030 H   0  0  0  0  0  0  0  0  0  0  0  0
   12.0455    7.3472   -7.9647 H   0  0  0  0  0  0  0  0  0  0  0  0
   12.2834    6.1676   -6.6984 H   0  0  0  0  0  0  0  0  0  0  0  0
   10.8862    5.0551   -8.4685 H   0  0  0  0  0  0  0  0  0  0  0  0
    9.9266    5.3722   -7.0470 H   0  0  0  0  0  0  0  0  0  0  0  0
    8.4895    4.7637   -8.9167 H   0  0  0  0  0  0  0  0  0  0  0  0
    7.6785    6.1728   -9.4531 H   0  0  0  0  0  0  0  0  0  0  0  0
    9.4517    6.5197  -11.2501 H   0  0  0  0  0  0  0  0  0  0  0  0
   10.0285    4.9136  -10.8423 H   0  0  0  0  0  0  0  0  0  0  0  0
    7.6575    4.0464  -11.2760 H   0  0  0  0  0  0  0  0  0  0  0  0
    7.1902    5.6611  -11.7232 H   0  0  0  0  0  0  0  0  0  0  0  0
    7.5616    4.4485  -13.7208 H   0  0  0  0  0  0  0  0  0  0  0  0
    8.8278    5.6357  -13.6172 H   0  0  0  0  0  0  0  0  0  0  0  0
   10.5205    4.0459  -13.4023 H   0  0  0  0  0  0  0  0  0  0  0  0
    9.5689    2.9953  -12.3870 H   0  0  0  0  0  0  0  0  0  0  0  0
    9.6868    1.0816  -13.3023 H   0  0  0  0  0  0  0  0  0  0  0  0
    9.1993   -0.6278  -14.7079 H   0  0  0  0  0  0  0  0  0  0  0  0
    8.1153    0.4265  -15.5679 H   0  0  0  0  0  0  0  0  0  0  0  0
    8.7662   -1.1796  -17.4469 H   0  0  0  0  0  0  0  0  0  0  0  0
   10.2106   -1.4303  -19.4348 H   0  0  0  0  0  0  0  0  0  0  0  0
   13.0082    1.4005  -17.7610 H   0  0  0  0  0  0  0  0  0  0  0  0
   11.5833    1.6402  -15.7718 H   0  0  0  0  0  0  0  0  0  0  0  0
    8.0870    8.1621   -8.2458 H   0  0  0  0  0  0  0  0  0  0  0  0
    8.1223    6.9126   -7.0176 H   0  0  0  0  0  0  0  0  0  0  0  0
    9.0888    8.8569   -6.0562 H   0  0  0  0  0  0  0  0  0  0  0  0
   10.0427    9.2140   -7.4805 H   0  0  0  0  0  0  0  0  0  0  0  0
    9.9952    7.2245   -9.2401 H   0  0  0  0  0  0  0  0  0  0  0  0
  2  1  1  0
  3  2  1  0
  4  3  2  0
  5  4  1  0
  6  5  2  0
  7  6  1  0
  8  3  1  0
  8  7  2  0
  9  8  1  0
 10  9  1  0
 11 10  1  0
 12 11  1  0
 13 12  1  0
 14 13  1  0
 15 14  1  0
 16 15  1  0
 17 16  1  0
 18 17  1  0
 19 18  2  0
 20 18  1  0
 21 20  1  0
 22 21  1  0
 23 22  1  0
 24 23  2  0
 25 24  1  0
 26 25  1  0
 27 26  3  0
 28 25  2  0
 29 22  2  0
 29 28  1  0
 30 12  1  0
 31  9  1  0
 31 30  1  0
 32  1  1  0
 33  1  1  0
 34  1  1  0
 35  4  1  0
 36  5  1  0
 37  6  1  0
 38  7  1  0
 39 10  1  0
 40 10  1  0
 41 11  1  0
 42 11  1  0
 43 13  1  0
 44 13  1  0
 45 14  1  0
 46 14  1  0
 47 15  1  0
 48 15  1  0
 49 16  1  0
 50 16  1  0
 51 17  1  0
 52 17  1  0
 53 20  1  0
 54 21  1  0
 55 21  1  0
 56 23  1  0
 57 24  1  0
 58 28  1  0
 59 29  1  0
 60 30  1  0
 61 30  1  0
 62 31  1  0
 63 31  1  0
 64 12  1  0
M  CHG  1  12   1
M  END
>  <b_m_subgroup_collapsed>  (244) 
0

>  <r_i_docking_score>  (244) 
-8.4474102065726395

>  <s_m_subgroup_title>  (244) 
glide-dock_SP_D22_pv

>  <s_m_subgroupid>  (244) 
glide-dock_SP_D22_pv

>  <Molecule ChEMBL ID>  (244) 
CHEMBL493909

>  <Standard Type>  (244) 
Ki

>  <Standard Value>  (244) 
5.3

>  <label>  (244) 
1

$$$$
CHEMBL2159469
     RDKit          3D

 61 65  0  0  1  0  0  0  0  0999 V2000
    9.1171    6.1722   -7.3789 O   0  0  0  0  0  0  0  0  0  0  0  0
    9.8886    7.0803   -7.6779 C   0  0  0  0  0  0  0  0  0  0  0  0
   10.0951    7.5170   -8.9298 N   0  0  0  0  0  0  0  0  0  0  0  0
    9.2379    7.2603  -10.0843 C   0  0  1  0  0  0  0  0  0  0  0  0
    9.9540    7.3467  -11.4361 C   0  0  0  0  0  0  0  0  0  0  0  0
    9.2855    6.2535  -12.2866 C   0  0  0  0  0  0  0  0  0  0  0  0
    8.1111    5.7707  -11.5278 N   0  0  1  0  0  0  0  0  0  0  0  0
    7.6502    4.4183  -11.9228 C   0  0  0  0  0  0  0  0  0  0  0  0
    7.0265    4.3867  -13.3397 C   0  0  0  0  0  0  0  0  0  0  0  0
    6.8781    3.0600  -13.8453 O   0  0  0  0  0  0  0  0  0  0  0  0
    7.9826    2.3873  -14.3424 C   0  0  0  0  0  0  0  0  0  0  0  0
    9.2864    2.9542  -14.3742 C   0  0  0  0  0  0  0  0  0  0  0  0
   10.3844    2.2348  -14.8762 C   0  0  0  0  0  0  0  0  0  0  0  0
   10.1967    0.9330  -15.3634 C   0  0  0  0  0  0  0  0  0  0  0  0
    8.9117    0.3698  -15.3544 C   0  0  0  0  0  0  0  0  0  0  0  0
    7.7923    1.0739  -14.8539 C   0  0  0  0  0  0  0  0  0  0  0  0
    6.4654    0.4219  -14.9132 C   0  0  0  0  0  0  0  0  0  0  0  0
    6.0495   -0.2261  -16.1004 C   0  0  0  0  0  0  0  0  0  0  0  0
    4.7946   -0.8610  -16.1875 C   0  0  0  0  0  0  0  0  0  0  0  0
    3.9251   -0.8527  -15.0829 C   0  0  0  0  0  0  0  0  0  0  0  0
    4.3207   -0.2161  -13.8939 C   0  0  0  0  0  0  0  0  0  0  0  0
    5.5821    0.4099  -13.8067 C   0  0  0  0  0  0  0  0  0  0  0  0
    8.5322    5.8931  -10.1260 C   0  0  0  0  0  0  0  0  0  0  0  0
   10.6603    7.7909   -6.6139 C   0  0  0  0  0  0  0  0  0  0  0  0
   10.7112    9.2002   -6.5928 C   0  0  0  0  0  0  0  0  0  0  0  0
   11.2324    9.8402   -5.4531 C   0  0  0  0  0  0  0  0  0  0  0  0
   11.6698    9.0433   -4.3778 C   0  0  0  0  0  0  0  0  0  0  0  0
   12.0786    9.6285   -3.1633 C   0  0  0  0  0  0  0  0  0  0  0  0
   12.4860    8.8170   -2.0931 C   0  0  0  0  0  0  0  0  0  0  0  0
   12.4858    7.4217   -2.2461 C   0  0  0  0  0  0  0  0  0  0  0  0
   12.0782    6.8419   -3.4496 C   0  0  0  0  0  0  0  0  0  0  0  0
   11.6466    7.6310   -4.5228 C   0  0  0  0  0  0  0  0  0  0  0  0
   11.1641    7.0297   -5.6241 N   0  0  0  0  0  0  0  0  0  0  0  0
   10.7938    8.2369   -9.0412 H   0  0  0  0  0  0  0  0  0  0  0  0
    8.4863    8.0475  -10.0687 H   0  0  0  0  0  0  0  0  0  0  0  0
   11.0235    7.1527  -11.3439 H   0  0  0  0  0  0  0  0  0  0  0  0
    9.8305    8.3343  -11.8787 H   0  0  0  0  0  0  0  0  0  0  0  0
   10.0021    5.4415  -12.4115 H   0  0  0  0  0  0  0  0  0  0  0  0
    8.9873    6.5721  -13.2793 H   0  0  0  0  0  0  0  0  0  0  0  0
    6.9216    4.0509  -11.1979 H   0  0  0  0  0  0  0  0  0  0  0  0
    8.5126    3.7621  -11.8566 H   0  0  0  0  0  0  0  0  0  0  0  0
    7.5845    4.9850  -14.0585 H   0  0  0  0  0  0  0  0  0  0  0  0
    6.0363    4.8422  -13.3006 H   0  0  0  0  0  0  0  0  0  0  0  0
    9.4869    3.9489  -14.0165 H   0  0  0  0  0  0  0  0  0  0  0  0
   11.3692    2.6800  -14.8873 H   0  0  0  0  0  0  0  0  0  0  0  0
   11.0363    0.3717  -15.7490 H   0  0  0  0  0  0  0  0  0  0  0  0
    8.7801   -0.6275  -15.7418 H   0  0  0  0  0  0  0  0  0  0  0  0
    6.7007   -0.2420  -16.9627 H   0  0  0  0  0  0  0  0  0  0  0  0
    4.4997   -1.3536  -17.1026 H   0  0  0  0  0  0  0  0  0  0  0  0
    2.9621   -1.3373  -15.1527 H   0  0  0  0  0  0  0  0  0  0  0  0
    3.6473   -0.2170  -13.0506 H   0  0  0  0  0  0  0  0  0  0  0  0
    5.8707    0.8851  -12.8816 H   0  0  0  0  0  0  0  0  0  0  0  0
    7.6859    5.8343   -9.4459 H   0  0  0  0  0  0  0  0  0  0  0  0
    9.2256    5.0856   -9.8759 H   0  0  0  0  0  0  0  0  0  0  0  0
   10.2798    9.7728   -7.3995 H   0  0  0  0  0  0  0  0  0  0  0  0
   11.2331   10.9199   -5.3851 H   0  0  0  0  0  0  0  0  0  0  0  0
   12.0595   10.6961   -3.0291 H   0  0  0  0  0  0  0  0  0  0  0  0
   12.7996    9.2691   -1.1632 H   0  0  0  0  0  0  0  0  0  0  0  0
   12.8164    6.7798   -1.4466 H   0  0  0  0  0  0  0  0  0  0  0  0
   12.0662    5.7724   -3.5497 H   0  0  0  0  0  0  0  0  0  0  0  0
    7.3496    6.4366  -11.6251 H   0  0  0  0  0  0  0  0  0  0  0  0
  2  1  2  0
  3  2  1  0
  4  3  1  0
  5  4  1  0
  6  5  1  0
  7  6  1  0
  8  7  1  0
  9  8  1  0
 10  9  1  0
 11 10  1  0
 12 11  2  0
 13 12  1  0
 14 13  2  0
 15 14  1  0
 16 11  1  0
 16 15  2  0
 17 16  1  0
 18 17  2  0
 19 18  1  0
 20 19  2  0
 21 20  1  0
 22 17  1  0
 22 21  2  0
 23  4  1  0
 23  7  1  0
 24  2  1  0
 25 24  1  0
 26 25  2  0
 27 26  1  0
 28 27  2  0
 29 28  1  0
 30 29  2  0
 31 30  1  0
 32 27  1  0
 32 31  2  0
 33 24  2  0
 33 32  1  0
 34  3  1  0
  4 35  1  6
 36  5  1  0
 37  5  1  0
 38  6  1  0
 39  6  1  0
 40  8  1  0
 41  8  1  0
 42  9  1  0
 43  9  1  0
 44 12  1  0
 45 13  1  0
 46 14  1  0
 47 15  1  0
 48 18  1  0
 49 19  1  0
 50 20  1  0
 51 21  1  0
 52 22  1  0
 53 23  1  0
 54 23  1  0
 55 25  1  0
 56 26  1  0
 57 28  1  0
 58 29  1  0
 59 30  1  0
 60 31  1  0
  7 61  1  1
M  CHG  1   7   1
M  END
>  <b_m_subgroup_collapsed>  (245) 
0

>  <r_i_docking_score>  (245) 
-8.4443667437704004

>  <s_m_subgroup_title>  (245) 
glide-dock_SP_D22_pv

>  <s_m_subgroupid>  (245) 
glide-dock_SP_D22_pv

>  <Molecule ChEMBL ID>  (245) 
CHEMBL2159469

>  <Standard Type>  (245) 
Ki

>  <Standard Value>  (245) 
24.0

>  <label>  (245) 
1

$$$$
CHEMBL5723030
     RDKit          3D

 44 47  0  0  1  0  0  0  0  0999 V2000
   10.6403    4.2028  -14.0971 O   0  0  0  0  0  0  0  0  0  0  0  0
    9.8573    4.8549  -13.4067 C   0  0  0  0  0  0  0  0  0  0  0  0
   10.3052    6.0378  -12.6468 C   0  0  0  0  0  0  0  0  0  0  0  0
    9.4372    6.7593  -11.9093 C   0  0  0  0  0  0  0  0  0  0  0  0
    9.8921    7.9349  -11.0642 C   0  0  0  0  0  0  0  0  0  0  0  0
    9.2860    7.9798   -9.7421 N   0  0  0  0  0  0  0  0  0  0  0  0
    9.3890    6.7257   -9.0020 C   0  0  0  0  0  0  0  0  0  0  0  0
    9.5651    7.0500   -7.5177 C   0  0  0  0  0  0  0  0  0  0  0  0
   11.0207    7.4364   -7.2263 C   0  0  0  0  0  0  0  0  0  0  0  0
   11.1564    8.4266   -6.1240 C   0  0  0  0  0  0  0  0  0  0  0  0
   11.0046    9.7446   -6.2577 N   0  0  0  0  0  0  0  0  0  0  0  0
   11.2860   10.3405   -5.0469 N   0  0  0  0  0  0  0  0  0  0  0  0
   11.6361    9.3758   -4.1953 C   0  0  0  0  0  0  0  0  0  0  0  0
   12.0834    9.3696   -2.8495 C   0  0  0  0  0  0  0  0  0  0  0  0
   12.3032    8.1722   -2.2122 C   0  0  0  0  0  0  0  0  0  0  0  0
   12.0860    6.9484   -2.8891 C   0  0  0  0  0  0  0  0  0  0  0  0
   11.6886    6.9440   -4.2061 C   0  0  0  0  0  0  0  0  0  0  0  0
   11.4918    8.1358   -4.8375 N   0  0  0  0  0  0  0  0  0  0  0  0
    8.0861    6.4431  -11.8470 N   0  0  0  0  0  0  0  0  0  0  0  0
    7.5622    5.3128  -12.4794 C   0  0  0  0  0  0  0  0  0  0  0  0
    6.2054    4.9703  -12.3201 C   0  0  0  0  0  0  0  0  0  0  0  0
    5.6988    3.8051  -12.9295 C   0  0  0  0  0  0  0  0  0  0  0  0
    6.5487    2.9889  -13.7012 C   0  0  0  0  0  0  0  0  0  0  0  0
    6.0860    1.8399  -14.2434 F   0  0  0  0  0  0  0  0  0  0  0  0
    7.8981    3.3432  -13.8817 C   0  0  0  0  0  0  0  0  0  0  0  0
    8.4157    4.5010  -13.2671 C   0  0  0  0  0  0  0  0  0  0  0  0
   11.3539    6.2941  -12.6798 H   0  0  0  0  0  0  0  0  0  0  0  0
   10.9749    7.8908  -10.9392 H   0  0  0  0  0  0  0  0  0  0  0  0
    9.6724    8.8627  -11.5928 H   0  0  0  0  0  0  0  0  0  0  0  0
    8.2893    8.1725   -9.8471 H   0  0  0  0  0  0  0  0  0  0  0  0
    8.4766    6.1482   -9.1588 H   0  0  0  0  0  0  0  0  0  0  0  0
   10.2250    6.1161   -9.3493 H   0  0  0  0  0  0  0  0  0  0  0  0
    8.8804    7.8559   -7.2441 H   0  0  0  0  0  0  0  0  0  0  0  0
    9.2827    6.1974   -6.8991 H   0  0  0  0  0  0  0  0  0  0  0  0
   11.6198    6.5496   -7.0202 H   0  0  0  0  0  0  0  0  0  0  0  0
   11.4721    7.8937   -8.1075 H   0  0  0  0  0  0  0  0  0  0  0  0
   12.2127   10.3120   -2.3304 H   0  0  0  0  0  0  0  0  0  0  0  0
   12.6247    8.1724   -1.1757 H   0  0  0  0  0  0  0  0  0  0  0  0
   12.2410    6.0047   -2.3736 H   0  0  0  0  0  0  0  0  0  0  0  0
   11.5209    6.0347   -4.7741 H   0  0  0  0  0  0  0  0  0  0  0  0
    7.4651    6.9882  -11.2378 H   0  0  0  0  0  0  0  0  0  0  0  0
    5.5611    5.5870  -11.7091 H   0  0  0  0  0  0  0  0  0  0  0  0
    4.6651    3.5274  -12.7897 H   0  0  0  0  0  0  0  0  0  0  0  0
    8.5382    2.7010  -14.4693 H   0  0  0  0  0  0  0  0  0  0  0  0
  2  1  2  0
  3  2  1  0
  4  3  2  0
  5  4  1  0
  6  5  1  0
  7  6  1  0
  8  7  1  0
  9  8  1  0
 10  9  1  0
 11 10  2  0
 12 11  1  0
 13 12  2  0
 14 13  1  0
 15 14  2  0
 16 15  1  0
 17 16  2  0
 18 10  1  0
 18 13  1  0
 18 17  1  0
 19  4  1  0
 20 19  1  0
 21 20  2  0
 22 21  1  0
 23 22  2  0
 24 23  1  0
 25 23  1  0
 26  2  1  0
 26 20  1  0
 26 25  2  0
 27  3  1  0
 28  5  1  0
 29  5  1  0
 30  6  1  0
 31  7  1  0
 32  7  1  0
 33  8  1  0
 34  8  1  0
 35  9  1  0
 36  9  1  0
 37 14  1  0
 38 15  1  0
 39 16  1  0
 40 17  1  0
 41 19  1  0
 42 21  1  0
 43 22  1  0
 44 25  1  0
M  END
>  <b_m_subgroup_collapsed>  (246) 
0

>  <r_i_docking_score>  (246) 
-8.4421210328712792

>  <s_m_subgroup_title>  (246) 
glide-dock_SP_D22_pv

>  <s_m_subgroupid>  (246) 
glide-dock_SP_D22_pv

>  <Molecule ChEMBL ID>  (246) 
CHEMBL5723030

>  <Standard Type>  (246) 
Ki

>  <Standard Value>  (246) 
10000.0

>  <label>  (246) 
0

$$$$
CHEMBL521025
     RDKit          3D

 59 62  0  0  1  0  0  0  0  0999 V2000
    3.7157   -2.1396  -18.4069 C   0  0  0  0  0  0  0  0  0  0  0  0
    4.8517   -1.5312  -17.8088 O   0  0  0  0  0  0  0  0  0  0  0  0
    4.7169   -1.0318  -16.5318 C   0  0  0  0  0  0  0  0  0  0  0  0
    3.5399   -1.1360  -15.7492 C   0  0  0  0  0  0  0  0  0  0  0  0
    3.4783   -0.5745  -14.4602 C   0  0  0  0  0  0  0  0  0  0  0  0
    4.5944    0.1028  -13.9351 C   0  0  0  0  0  0  0  0  0  0  0  0
    5.7756    0.1966  -14.6980 C   0  0  0  0  0  0  0  0  0  0  0  0
    6.9807    0.9287  -14.1506 C   0  0  0  0  0  0  0  0  0  0  0  0
    7.0941    2.3683  -14.6832 C   0  0  0  0  0  0  0  0  0  0  0  0
    8.4394    3.0232  -14.3855 C   0  0  0  0  0  0  0  0  0  0  0  0
    9.5631    2.5750  -15.1131 C   0  0  0  0  0  0  0  0  0  0  0  0
   10.8219    3.1740  -14.9350 C   0  0  0  0  0  0  0  0  0  0  0  0
   10.9604    4.2438  -14.0354 C   0  0  0  0  0  0  0  0  0  0  0  0
    9.8477    4.6973  -13.3036 C   0  0  0  0  0  0  0  0  0  0  0  0
    8.5751    4.0815  -13.4471 C   0  0  0  0  0  0  0  0  0  0  0  0
    7.4583    4.4624  -12.7248 O   0  0  0  0  0  0  0  0  0  0  0  0
    7.5677    5.4815  -11.7276 C   0  0  0  0  0  0  0  0  0  0  0  0
    8.2863    4.9698  -10.4612 C   0  0  0  0  0  0  0  0  0  0  0  0
    8.5182    6.0414   -9.4549 N   0  0  1  0  0  0  0  0  0  0  0  0
    8.5720    5.4945   -8.0752 C   0  0  0  0  0  0  0  0  0  0  0  0
    8.6943    6.6070   -7.0273 C   0  0  0  0  0  0  0  0  0  0  0  0
    9.8820    7.4870   -7.3134 C   0  0  0  0  0  0  0  0  0  0  0  0
   10.5082    8.1708   -6.2553 C   0  0  0  0  0  0  0  0  0  0  0  0
   11.6860    8.8961   -6.4955 C   0  0  0  0  0  0  0  0  0  0  0  0
   12.2431    8.9042   -7.7857 C   0  0  0  0  0  0  0  0  0  0  0  0
   11.5825    8.2832   -8.8588 C   0  0  0  0  0  0  0  0  0  0  0  0
   10.3859    7.5758   -8.6296 C   0  0  0  0  0  0  0  0  0  0  0  0
    9.7114    6.8667   -9.7993 C   0  0  0  0  0  0  0  0  0  0  0  0
    5.8303   -0.3684  -15.9880 C   0  0  0  0  0  0  0  0  0  0  0  0
    3.9618   -2.4565  -19.4201 H   0  0  0  0  0  0  0  0  0  0  0  0
    3.3999   -3.0271  -17.8557 H   0  0  0  0  0  0  0  0  0  0  0  0
    2.8823   -1.4383  -18.4764 H   0  0  0  0  0  0  0  0  0  0  0  0
    2.6682   -1.6479  -16.1189 H   0  0  0  0  0  0  0  0  0  0  0  0
    2.5681   -0.6515  -13.8844 H   0  0  0  0  0  0  0  0  0  0  0  0
    4.5409    0.5501  -12.9534 H   0  0  0  0  0  0  0  0  0  0  0  0
    7.8743    0.3520  -14.3906 H   0  0  0  0  0  0  0  0  0  0  0  0
    6.8861    0.9355  -13.0722 H   0  0  0  0  0  0  0  0  0  0  0  0
    6.2706    2.9763  -14.3055 H   0  0  0  0  0  0  0  0  0  0  0  0
    6.9782    2.3601  -15.7674 H   0  0  0  0  0  0  0  0  0  0  0  0
    9.4599    1.7679  -15.8246 H   0  0  0  0  0  0  0  0  0  0  0  0
   11.6735    2.8233  -15.4983 H   0  0  0  0  0  0  0  0  0  0  0  0
   11.9234    4.7167  -13.9091 H   0  0  0  0  0  0  0  0  0  0  0  0
   10.0064    5.5206  -12.6285 H   0  0  0  0  0  0  0  0  0  0  0  0
    8.0330    6.3789  -12.1385 H   0  0  0  0  0  0  0  0  0  0  0  0
    6.5539    5.7728  -11.4583 H   0  0  0  0  0  0  0  0  0  0  0  0
    7.6863    4.1729  -10.0273 H   0  0  0  0  0  0  0  0  0  0  0  0
    9.2302    4.4797  -10.6982 H   0  0  0  0  0  0  0  0  0  0  0  0
    7.6861    4.9063   -7.8528 H   0  0  0  0  0  0  0  0  0  0  0  0
    9.4238    4.8172   -8.0025 H   0  0  0  0  0  0  0  0  0  0  0  0
    8.8185    6.1724   -6.0373 H   0  0  0  0  0  0  0  0  0  0  0  0
    7.8062    7.2280   -6.9678 H   0  0  0  0  0  0  0  0  0  0  0  0
   10.1106    8.1040   -5.2566 H   0  0  0  0  0  0  0  0  0  0  0  0
   12.1950    9.3937   -5.6816 H   0  0  0  0  0  0  0  0  0  0  0  0
   13.2017    9.3722   -7.9547 H   0  0  0  0  0  0  0  0  0  0  0  0
   12.0153    8.3257   -9.8474 H   0  0  0  0  0  0  0  0  0  0  0  0
   10.4824    6.2350  -10.2473 H   0  0  0  0  0  0  0  0  0  0  0  0
    9.4345    7.6048  -10.5545 H   0  0  0  0  0  0  0  0  0  0  0  0
    6.7365   -0.2885  -16.5702 H   0  0  0  0  0  0  0  0  0  0  0  0
    7.7136    6.6690   -9.4761 H   0  0  0  0  0  0  0  0  0  0  0  0
  2  1  1  0
  3  2  1  0
  4  3  1  0
  5  4  2  0
  6  5  1  0
  7  6  2  0
  8  7  1  0
  9  8  1  0
 10  9  1  0
 11 10  2  0
 12 11  1  0
 13 12  2  0
 14 13  1  0
 15 10  1  0
 15 14  2  0
 16 15  1  0
 17 16  1  0
 18 17  1  0
 19 18  1  0
 20 19  1  0
 21 20  1  0
 22 21  1  0
 23 22  2  0
 24 23  1  0
 25 24  2  0
 26 25  1  0
 27 22  1  0
 27 26  2  0
 28 19  1  0
 28 27  1  0
 29  3  2  0
 29  7  1  0
 30  1  1  0
 31  1  1  0
 32  1  1  0
 33  4  1  0
 34  5  1  0
 35  6  1  0
 36  8  1  0
 37  8  1  0
 38  9  1  0
 39  9  1  0
 40 11  1  0
 41 12  1  0
 42 13  1  0
 43 14  1  0
 44 17  1  0
 45 17  1  0
 46 18  1  0
 47 18  1  0
 48 20  1  0
 49 20  1  0
 50 21  1  0
 51 21  1  0
 52 23  1  0
 53 24  1  0
 54 25  1  0
 55 26  1  0
 56 28  1  0
 57 28  1  0
 58 29  1  0
 19 59  1  1
M  CHG  1  19   1
M  END
>  <b_m_subgroup_collapsed>  (247) 
0

>  <r_i_docking_score>  (247) 
-8.4410772680007398

>  <s_m_subgroup_title>  (247) 
glide-dock_SP_D22_pv

>  <s_m_subgroupid>  (247) 
glide-dock_SP_D22_pv

>  <Molecule ChEMBL ID>  (247) 
CHEMBL521025

>  <Standard Type>  (247) 
Ki

>  <Standard Value>  (247) 
1000000.0

>  <label>  (247) 
0

$$$$
CHEMBL383102
     RDKit          3D

 43 47  0  0  1  0  0  0  0  0999 V2000
    7.3671    3.4509  -13.6279 C   0  0  0  0  0  0  0  0  0  0  0  0
    6.4882    4.3829  -13.0469 C   0  0  0  0  0  0  0  0  0  0  0  0
    7.0030    5.4996  -12.3627 C   0  0  0  0  0  0  0  0  0  0  0  0
    8.3975    5.6943  -12.2443 C   0  0  0  0  0  0  0  0  0  0  0  0
    8.9000    6.9723  -11.5711 C   0  0  2  0  0  0  0  0  0  0  0  0
   10.2654    7.5345  -12.0072 C   0  0  0  0  0  0  0  0  0  0  0  0
   10.9350    8.0350  -10.7304 C   0  0  0  0  0  0  0  0  0  0  0  0
    9.7857    8.1380   -9.7340 C   0  0  2  0  0  0  0  0  0  0  0  0
   10.2454    8.0989   -8.3220 C   0  0  0  0  0  0  0  0  0  0  0  0
   10.9831    9.0872   -7.7016 N   0  0  0  0  0  0  0  0  0  0  0  0
   11.2860    8.7164   -6.4087 C   0  0  0  0  0  0  0  0  0  0  0  0
   11.9872    9.3723   -5.3812 C   0  0  0  0  0  0  0  0  0  0  0  0
   12.1774    8.7202   -4.1497 C   0  0  0  0  0  0  0  0  0  0  0  0
   11.6860    7.4128   -3.9716 C   0  0  0  0  0  0  0  0  0  0  0  0
   10.9765    6.7701   -5.0073 C   0  0  0  0  0  0  0  0  0  0  0  0
   10.7383    7.4076   -6.2446 C   0  0  0  0  0  0  0  0  0  0  0  0
   10.0445    7.0678   -7.4594 C   0  0  0  0  0  0  0  0  0  0  0  0
    9.2289    5.8819   -7.8677 C   0  0  0  0  0  0  0  0  0  0  0  0
    9.1982    5.7232   -9.4022 C   0  0  0  0  0  0  0  0  0  0  0  0
    8.8860    7.0085  -10.0917 N   0  0  2  0  0  0  0  0  0  0  0  0
    9.2732    4.7231  -12.7833 C   0  0  0  0  0  0  0  0  0  0  0  0
    8.7584    3.6156  -13.4840 C   0  0  0  0  0  0  0  0  0  0  0  0
    6.9754    2.5975  -14.1619 H   0  0  0  0  0  0  0  0  0  0  0  0
    5.4200    4.2506  -13.1386 H   0  0  0  0  0  0  0  0  0  0  0  0
    6.3158    6.2168  -11.9353 H   0  0  0  0  0  0  0  0  0  0  0  0
    8.1725    7.7374  -11.8524 H   0  0  0  0  0  0  0  0  0  0  0  0
   10.9179    6.8370  -12.5275 H   0  0  0  0  0  0  0  0  0  0  0  0
   10.0860    8.3731  -12.6726 H   0  0  0  0  0  0  0  0  0  0  0  0
   11.6553    7.2883  -10.3920 H   0  0  0  0  0  0  0  0  0  0  0  0
   11.4762    8.9723  -10.8559 H   0  0  0  0  0  0  0  0  0  0  0  0
    9.2346    9.0637   -9.9114 H   0  0  0  0  0  0  0  0  0  0  0  0
   11.2643    9.9431   -8.1558 H   0  0  0  0  0  0  0  0  0  0  0  0
   12.3880   10.3615   -5.5425 H   0  0  0  0  0  0  0  0  0  0  0  0
   12.7154    9.2123   -3.3517 H   0  0  0  0  0  0  0  0  0  0  0  0
   11.8435    6.9003   -3.0332 H   0  0  0  0  0  0  0  0  0  0  0  0
   10.5986    5.7731   -4.8422 H   0  0  0  0  0  0  0  0  0  0  0  0
    9.6385    4.9723   -7.4469 H   0  0  0  0  0  0  0  0  0  0  0  0
    8.2121    5.9824   -7.4841 H   0  0  0  0  0  0  0  0  0  0  0  0
   10.1666    5.3635   -9.7499 H   0  0  0  0  0  0  0  0  0  0  0  0
    8.4647    4.9606   -9.6670 H   0  0  0  0  0  0  0  0  0  0  0  0
   10.3437    4.8103  -12.6860 H   0  0  0  0  0  0  0  0  0  0  0  0
    9.4326    2.8835  -13.9048 H   0  0  0  0  0  0  0  0  0  0  0  0
    7.9249    7.2707   -9.8469 H   0  0  0  0  0  0  0  0  0  0  0  0
  2  1  2  0
  3  2  1  0
  4  3  2  0
  5  4  1  0
  6  5  1  0
  7  6  1  0
  8  7  1  0
  9  8  1  0
 10  9  1  0
 11 10  1  0
 12 11  2  0
 13 12  1  0
 14 13  2  0
 15 14  1  0
 16 11  1  0
 16 15  2  0
 17  9  2  0
 17 16  1  0
 18 17  1  0
 19 18  1  0
 20  5  1  0
 20  8  1  0
 20 19  1  0
 21  4  1  0
 22  1  1  0
 22 21  2  0
 23  1  1  0
 24  2  1  0
 25  3  1  0
  5 26  1  6
 27  6  1  0
 28  6  1  0
 29  7  1  0
 30  7  1  0
  8 31  1  6
 32 10  1  0
 33 12  1  0
 34 13  1  0
 35 14  1  0
 36 15  1  0
 37 18  1  0
 38 18  1  0
 39 19  1  0
 40 19  1  0
 41 21  1  0
 42 22  1  0
 20 43  1  6
M  CHG  1  20   1
M  END
>  <b_m_subgroup_collapsed>  (248) 
0

>  <r_i_docking_score>  (248) 
-8.4405000713856104

>  <s_m_subgroup_title>  (248) 
glide-dock_SP_D22_pv

>  <s_m_subgroupid>  (248) 
glide-dock_SP_D22_pv

>  <Molecule ChEMBL ID>  (248) 
CHEMBL383102

>  <Standard Type>  (248) 
Ki

>  <Standard Value>  (248) 
10000.0

>  <label>  (248) 
0

$$$$
CHEMBL160396
     RDKit          3D

 47 50  0  0  1  0  0  0  0  0999 V2000
   12.8858    4.5726  -13.8467 O   0  0  0  0  0  0  0  0  0  0  0  0
   11.7014    5.3172  -14.0665 C   0  0  0  0  0  0  0  0  0  0  0  0
   10.4420    4.4591  -14.0405 C   0  0  0  0  0  0  0  0  0  0  0  0
   10.4119    3.3732  -14.8938 C   0  0  0  0  0  0  0  0  0  0  0  0
    9.2696    2.5486  -14.9927 C   0  0  0  0  0  0  0  0  0  0  0  0
    8.1540    2.8288  -14.2471 C   0  0  0  0  0  0  0  0  0  0  0  0
    8.1750    3.8902  -13.3976 N   0  0  0  0  0  0  0  0  0  0  0  0
    7.1189    4.2584  -12.6166 N   0  0  0  0  0  0  0  0  0  0  0  0
    7.5624    5.2988  -11.9559 C   0  0  0  0  0  0  0  0  0  0  0  0
    8.9074    5.6603  -12.2534 C   0  0  0  0  0  0  0  0  0  0  0  0
    9.6589    6.8194  -11.6519 C   0  0  0  0  0  0  0  0  0  0  0  0
    9.2758    7.1995  -10.2639 N   0  0  0  0  0  0  0  0  0  0  0  0
    9.5316    6.1198   -9.2685 C   0  0  0  0  0  0  0  0  0  0  0  0
    9.2907    6.5910   -7.8241 C   0  0  0  0  0  0  0  0  0  0  0  0
   10.0715    7.7956   -7.5508 N   0  0  0  0  0  0  0  0  0  0  0  0
   10.6611    8.0061   -6.2815 C   0  0  0  0  0  0  0  0  0  0  0  0
   10.8200    9.3037   -5.7304 C   0  0  0  0  0  0  0  0  0  0  0  0
   11.3812    9.4876   -4.4517 C   0  0  0  0  0  0  0  0  0  0  0  0
   11.8145    8.3791   -3.7035 C   0  0  0  0  0  0  0  0  0  0  0  0
   12.4858    8.5894   -2.1313 Cl  0  0  0  0  0  0  0  0  0  0  0  0
   11.6865    7.0879   -4.2409 C   0  0  0  0  0  0  0  0  0  0  0  0
   11.1323    6.9106   -5.5189 C   0  0  0  0  0  0  0  0  0  0  0  0
    9.7520    8.9052   -8.4386 C   0  0  0  0  0  0  0  0  0  0  0  0
    9.9291    8.4909   -9.9067 C   0  0  0  0  0  0  0  0  0  0  0  0
    9.2935    4.7426  -13.2203 C   0  0  0  0  0  0  0  0  0  0  0  0
   13.5974    5.1799  -13.6743 H   0  0  0  0  0  0  0  0  0  0  0  0
   11.6685    6.1359  -13.3601 H   0  0  0  0  0  0  0  0  0  0  0  0
   11.7761    5.7838  -15.0493 H   0  0  0  0  0  0  0  0  0  0  0  0
   11.2808    3.1516  -15.5071 H   0  0  0  0  0  0  0  0  0  0  0  0
    9.2674    1.6994  -15.6685 H   0  0  0  0  0  0  0  0  0  0  0  0
    7.2404    2.2443  -14.2874 H   0  0  0  0  0  0  0  0  0  0  0  0
    6.8970    5.7735  -11.2486 H   0  0  0  0  0  0  0  0  0  0  0  0
   10.7212    6.5964  -11.6054 H   0  0  0  0  0  0  0  0  0  0  0  0
    9.5466    7.6875  -12.3036 H   0  0  0  0  0  0  0  0  0  0  0  0
    8.8926    5.2620   -9.4792 H   0  0  0  0  0  0  0  0  0  0  0  0
   10.5610    5.7761   -9.3640 H   0  0  0  0  0  0  0  0  0  0  0  0
    8.2361    6.8274   -7.6827 H   0  0  0  0  0  0  0  0  0  0  0  0
    9.4925    5.7720   -7.1402 H   0  0  0  0  0  0  0  0  0  0  0  0
   10.4858   10.1843   -6.2517 H   0  0  0  0  0  0  0  0  0  0  0  0
   11.4649   10.4811   -4.0373 H   0  0  0  0  0  0  0  0  0  0  0  0
   12.0238    6.2302   -3.6761 H   0  0  0  0  0  0  0  0  0  0  0  0
   11.0938    5.9033   -5.9006 H   0  0  0  0  0  0  0  0  0  0  0  0
    8.7238    9.2221   -8.2564 H   0  0  0  0  0  0  0  0  0  0  0  0
   10.3966    9.7679   -8.2692 H   0  0  0  0  0  0  0  0  0  0  0  0
   10.9981    8.4157  -10.1164 H   0  0  0  0  0  0  0  0  0  0  0  0
    9.5332    9.2781  -10.5478 H   0  0  0  0  0  0  0  0  0  0  0  0
    8.2725    7.3731  -10.2462 H   0  0  0  0  0  0  0  0  0  0  0  0
  2  1  1  0
  3  2  1  0
  4  3  2  0
  5  4  1  0
  6  5  2  0
  7  6  1  0
  8  7  1  0
  9  8  2  0
 10  9  1  0
 11 10  1  0
 12 11  1  0
 13 12  1  0
 14 13  1  0
 15 14  1  0
 16 15  1  0
 17 16  1  0
 18 17  2  0
 19 18  1  0
 20 19  1  0
 21 19  2  0
 22 16  2  0
 22 21  1  0
 23 15  1  0
 24 12  1  0
 24 23  1  0
 25  3  1  0
 25  7  1  0
 25 10  2  0
 26  1  1  0
 27  2  1  0
 28  2  1  0
 29  4  1  0
 30  5  1  0
 31  6  1  0
 32  9  1  0
 33 11  1  0
 34 11  1  0
 35 13  1  0
 36 13  1  0
 37 14  1  0
 38 14  1  0
 39 17  1  0
 40 18  1  0
 41 21  1  0
 42 22  1  0
 43 23  1  0
 44 23  1  0
 45 24  1  0
 46 24  1  0
 47 12  1  0
M  CHG  1  12   1
M  END
>  <b_m_subgroup_collapsed>  (249) 
0

>  <r_i_docking_score>  (249) 
-8.4327729635436306

>  <s_m_subgroup_title>  (249) 
glide-dock_SP_D22_pv

>  <s_m_subgroupid>  (249) 
glide-dock_SP_D22_pv

>  <Molecule ChEMBL ID>  (249) 
CHEMBL160396

>  <Standard Type>  (249) 
Ki

>  <Standard Value>  (249) 
56000.0

>  <label>  (249) 
0

$$$$
CHEMBL556496
     RDKit          3D

 58 61  0  0  1  0  0  0  0  0999 V2000
   12.4412    7.6299   -2.1348 C   0  0  0  0  0  0  0  0  0  0  0  0
   12.0416    7.0278   -3.3536 O   0  0  0  0  0  0  0  0  0  0  0  0
   11.6860    7.8562   -4.3931 C   0  0  0  0  0  0  0  0  0  0  0  0
   12.0793    9.2111   -4.5014 C   0  0  0  0  0  0  0  0  0  0  0  0
   11.6864    9.9638   -5.6206 C   0  0  0  0  0  0  0  0  0  0  0  0
   10.8820    9.3872   -6.6140 C   0  0  0  0  0  0  0  0  0  0  0  0
   10.4571    8.0490   -6.5229 C   0  0  0  0  0  0  0  0  0  0  0  0
    9.5323    7.4687   -7.6020 C   0  0  2  0  0  0  0  0  0  0  0  0
    9.3424    5.9523   -7.4468 C   0  0  0  0  0  0  0  0  0  0  0  0
    8.4802    5.3587   -8.5476 C   0  0  0  0  0  0  0  0  0  0  0  0
    9.0439    5.6918   -9.9228 C   0  0  0  0  0  0  0  0  0  0  0  0
    9.1762    7.1616  -10.0903 N   0  0  2  0  0  0  0  0  0  0  0  0
    9.5590    7.5195  -11.4797 C   0  0  0  0  0  0  0  0  0  0  0  0
   11.0575    7.2573  -11.7583 C   0  0  0  0  0  0  0  0  0  0  0  0
   11.3330    6.7039  -13.0808 N   0  0  0  0  0  0  0  0  0  0  0  0
   12.3480    7.2907  -13.9248 C   0  0  0  0  0  0  0  0  0  0  0  0
   12.4576    6.2795  -15.0577 C   0  0  0  0  0  0  0  0  0  0  0  0
   11.5795    5.1838  -14.6522 N   0  0  0  0  0  0  0  0  0  0  0  0
   11.4753    3.9721  -15.4220 C   0  0  0  0  0  0  0  0  0  0  0  0
   11.9997    3.9396  -16.7388 C   0  0  0  0  0  0  0  0  0  0  0  0
   11.9254    2.7732  -17.5240 C   0  0  0  0  0  0  0  0  0  0  0  0
   11.3246    1.6117  -17.0085 C   0  0  0  0  0  0  0  0  0  0  0  0
   10.8064    1.6187  -15.7023 C   0  0  0  0  0  0  0  0  0  0  0  0
   10.0852    0.1903  -15.0572 Cl  0  0  0  0  0  0  0  0  0  0  0  0
   10.8856    2.7834  -14.9142 C   0  0  0  0  0  0  0  0  0  0  0  0
   10.9237    5.4984  -13.5135 C   0  0  0  0  0  0  0  0  0  0  0  0
   10.0902    4.8116  -12.9229 O   0  0  0  0  0  0  0  0  0  0  0  0
   10.0133    7.8007   -9.0344 C   0  0  0  0  0  0  0  0  0  0  0  0
   10.8922    7.2890   -5.4097 C   0  0  0  0  0  0  0  0  0  0  0  0
   12.7457    6.8428   -1.4471 H   0  0  0  0  0  0  0  0  0  0  0  0
   13.2861    8.3025   -2.2469 H   0  0  0  0  0  0  0  0  0  0  0  0
   11.6161    8.1788   -1.6827 H   0  0  0  0  0  0  0  0  0  0  0  0
   12.6960    9.6905   -3.7574 H   0  0  0  0  0  0  0  0  0  0  0  0
   12.0007   10.9892   -5.7274 H   0  0  0  0  0  0  0  0  0  0  0  0
   10.5886    9.9943   -7.4468 H   0  0  0  0  0  0  0  0  0  0  0  0
    8.5566    7.9384   -7.4585 H   0  0  0  0  0  0  0  0  0  0  0  0
    8.8471    5.7724   -6.4960 H   0  0  0  0  0  0  0  0  0  0  0  0
   10.3081    5.4453   -7.4473 H   0  0  0  0  0  0  0  0  0  0  0  0
    7.4825    5.7723   -8.4562 H   0  0  0  0  0  0  0  0  0  0  0  0
    8.3892    4.2794   -8.4231 H   0  0  0  0  0  0  0  0  0  0  0  0
    8.3728    5.2928  -10.6849 H   0  0  0  0  0  0  0  0  0  0  0  0
   10.0049    5.1943  -10.0546 H   0  0  0  0  0  0  0  0  0  0  0  0
    9.3456    8.5772  -11.6393 H   0  0  0  0  0  0  0  0  0  0  0  0
    8.9048    6.9916  -12.1744 H   0  0  0  0  0  0  0  0  0  0  0  0
   11.4630    6.5724  -11.0269 H   0  0  0  0  0  0  0  0  0  0  0  0
   11.6282    8.1724  -11.6099 H   0  0  0  0  0  0  0  0  0  0  0  0
   12.0488    8.2747  -14.2831 H   0  0  0  0  0  0  0  0  0  0  0  0
   13.2861    7.3872  -13.3788 H   0  0  0  0  0  0  0  0  0  0  0  0
   13.4860    5.9367  -15.1852 H   0  0  0  0  0  0  0  0  0  0  0  0
   12.1144    6.7204  -15.9952 H   0  0  0  0  0  0  0  0  0  0  0  0
   12.4659    4.8087  -17.1768 H   0  0  0  0  0  0  0  0  0  0  0  0
   12.3299    2.7710  -18.5255 H   0  0  0  0  0  0  0  0  0  0  0  0
   11.2693    0.7163  -17.6100 H   0  0  0  0  0  0  0  0  0  0  0  0
   10.4947    2.7188  -13.9117 H   0  0  0  0  0  0  0  0  0  0  0  0
   11.0531    7.4862   -9.1168 H   0  0  0  0  0  0  0  0  0  0  0  0
    9.9932    8.8762   -9.2088 H   0  0  0  0  0  0  0  0  0  0  0  0
   10.6114    6.2552   -5.2817 H   0  0  0  0  0  0  0  0  0  0  0  0
    8.2250    7.5121   -9.9741 H   0  0  0  0  0  0  0  0  0  0  0  0
  2  1  1  0
  3  2  1  0
  4  3  1  0
  5  4  2  0
  6  5  1  0
  7  6  2  0
  8  7  1  0
  9  8  1  0
 10  9  1  0
 11 10  1  0
 12 11  1  0
 13 12  1  0
 14 13  1  0
 15 14  1  0
 16 15  1  0
 17 16  1  0
 18 17  1  0
 19 18  1  0
 20 19  2  0
 21 20  1  0
 22 21  2  0
 23 22  1  0
 24 23  1  0
 25 19  1  0
 25 23  2  0
 26 15  1  0
 26 18  1  0
 27 26  2  0
 28  8  1  0
 28 12  1  0
 29  3  2  0
 29  7  1  0
 30  1  1  0
 31  1  1  0
 32  1  1  0
 33  4  1  0
 34  5  1  0
 35  6  1  0
  8 36  1  1
 37  9  1  0
 38  9  1  0
 39 10  1  0
 40 10  1  0
 41 11  1  0
 42 11  1  0
 43 13  1  0
 44 13  1  0
 45 14  1  0
 46 14  1  0
 47 16  1  0
 48 16  1  0
 49 17  1  0
 50 17  1  0
 51 20  1  0
 52 21  1  0
 53 22  1  0
 54 25  1  0
 55 28  1  0
 56 28  1  0
 57 29  1  0
 12 58  1  1
M  CHG  1  12   1
M  END
>  <b_m_subgroup_collapsed>  (250) 
0

>  <r_i_docking_score>  (250) 
-8.4304454223947598

>  <s_m_subgroup_title>  (250) 
glide-dock_SP_D22_pv

>  <s_m_subgroupid>  (250) 
glide-dock_SP_D22_pv

>  <Molecule ChEMBL ID>  (250) 
CHEMBL556496

>  <Standard Type>  (250) 
Ki

>  <Standard Value>  (250) 
25.12

>  <label>  (250) 
1

$$$$
CHEMBL26120
     RDKit          3D

 52 55  0  0  1  0  0  0  0  0999 V2000
   11.6852   10.9704   -6.2478 C   0  0  0  0  0  0  0  0  0  0  0  0
   11.2344    9.5985   -6.6467 C   0  0  0  0  0  0  0  0  0  0  0  0
   10.9084    9.3636   -7.9015 N   0  0  0  0  0  0  0  0  0  0  0  0
   10.5284    8.0642   -7.9567 N   0  0  0  0  0  0  0  0  0  0  0  0
   10.2211    7.4752   -9.2565 C   0  0  1  0  0  0  0  0  0  0  0  0
    9.4082    6.1687   -9.1771 C   0  0  0  0  0  0  0  0  0  0  0  0
    9.1462    5.5924  -10.5846 C   0  0  0  0  0  0  0  0  0  0  0  0
    8.4861    6.5820  -11.4802 N   0  0  2  0  0  0  0  0  0  0  0  0
    8.2503    6.0989  -12.8680 C   0  0  0  0  0  0  0  0  0  0  0  0
    7.5176    4.7761  -13.0210 C   0  0  0  0  0  0  0  0  0  0  0  0
    6.3778    4.4830  -12.2474 C   0  0  0  0  0  0  0  0  0  0  0  0
    5.6940    3.2708  -12.4464 C   0  0  0  0  0  0  0  0  0  0  0  0
    6.0906    2.3730  -13.4534 C   0  0  0  0  0  0  0  0  0  0  0  0
    7.2308    2.6608  -14.2312 C   0  0  0  0  0  0  0  0  0  0  0  0
    7.6748    1.7270  -15.2526 C   0  0  0  0  0  0  0  0  0  0  0  0
    8.0292    0.9857  -16.0666 N   0  0  0  0  0  0  0  0  0  0  0  0
    7.9541    3.8493  -13.9948 C   0  0  0  0  0  0  0  0  0  0  0  0
    9.2138    7.8734  -11.5380 C   0  0  0  0  0  0  0  0  0  0  0  0
    9.4546    8.4615  -10.1514 C   0  0  0  0  0  0  0  0  0  0  0  0
   10.6642    7.4576   -6.7245 C   0  0  0  0  0  0  0  0  0  0  0  0
   11.1145    8.4193   -5.8652 C   0  0  0  0  0  0  0  0  0  0  0  0
   11.5050    8.2429   -4.4592 C   0  0  0  0  0  0  0  0  0  0  0  0
   11.6853    9.3391   -3.5829 C   0  0  0  0  0  0  0  0  0  0  0  0
   12.1860    9.1632   -2.2925 C   0  0  0  0  0  0  0  0  0  0  0  0
   12.4860    7.8787   -1.8463 C   0  0  0  0  0  0  0  0  0  0  0  0
   12.2316    6.7622   -2.6536 C   0  0  0  0  0  0  0  0  0  0  0  0
   11.7361    6.9453   -3.9550 C   0  0  0  0  0  0  0  0  0  0  0  0
   12.6961   10.9403   -5.8483 H   0  0  0  0  0  0  0  0  0  0  0  0
   11.6855   11.6893   -7.0566 H   0  0  0  0  0  0  0  0  0  0  0  0
   11.0052   11.3723   -5.5045 H   0  0  0  0  0  0  0  0  0  0  0  0
   11.1818    7.2541   -9.7253 H   0  0  0  0  0  0  0  0  0  0  0  0
    9.9381    5.4216   -8.5861 H   0  0  0  0  0  0  0  0  0  0  0  0
    8.4583    6.3517   -8.6715 H   0  0  0  0  0  0  0  0  0  0  0  0
    8.5280    4.6999  -10.4878 H   0  0  0  0  0  0  0  0  0  0  0  0
   10.0846    5.2714  -11.0354 H   0  0  0  0  0  0  0  0  0  0  0  0
    7.6859    6.8527  -13.4177 H   0  0  0  0  0  0  0  0  0  0  0  0
    9.2152    6.0134  -13.3704 H   0  0  0  0  0  0  0  0  0  0  0  0
    6.0381    5.1673  -11.4818 H   0  0  0  0  0  0  0  0  0  0  0  0
    4.8858    3.0102  -11.7965 H   0  0  0  0  0  0  0  0  0  0  0  0
    5.5448    1.4518  -13.5985 H   0  0  0  0  0  0  0  0  0  0  0  0
    8.8274    4.0683  -14.5938 H   0  0  0  0  0  0  0  0  0  0  0  0
    8.6426    8.5892  -12.1310 H   0  0  0  0  0  0  0  0  0  0  0  0
   10.1707    7.7360  -12.0446 H   0  0  0  0  0  0  0  0  0  0  0  0
    8.5104    8.7469   -9.6848 H   0  0  0  0  0  0  0  0  0  0  0  0
   10.0309    9.3725  -10.2741 H   0  0  0  0  0  0  0  0  0  0  0  0
   10.4622    6.4088   -6.5693 H   0  0  0  0  0  0  0  0  0  0  0  0
   11.4559   10.3487   -3.8494 H   0  0  0  0  0  0  0  0  0  0  0  0
   12.3504   10.0130   -1.6475 H   0  0  0  0  0  0  0  0  0  0  0  0
   12.9047    7.7715   -0.8605 H   0  0  0  0  0  0  0  0  0  0  0  0
   12.4430    5.7719   -2.2834 H   0  0  0  0  0  0  0  0  0  0  0  0
   11.5856    6.0745   -4.5754 H   0  0  0  0  0  0  0  0  0  0  0  0
    7.5830    6.8126  -11.0593 H   0  0  0  0  0  0  0  0  0  0  0  0
  2  1  1  0
  3  2  2  0
  4  3  1  0
  5  4  1  0
  6  5  1  0
  7  6  1  0
  8  7  1  0
  9  8  1  0
 10  9  1  0
 11 10  2  0
 12 11  1  0
 13 12  2  0
 14 13  1  0
 15 14  1  0
 16 15  3  0
 17 10  1  0
 17 14  2  0
 18  8  1  0
 19  5  1  0
 19 18  1  0
 20  4  1  0
 21  2  1  0
 21 20  2  0
 22 21  1  0
 23 22  2  0
 24 23  1  0
 25 24  2  0
 26 25  1  0
 27 22  1  0
 27 26  2  0
 28  1  1  0
 29  1  1  0
 30  1  1  0
  5 31  1  6
 32  6  1  0
 33  6  1  0
 34  7  1  0
 35  7  1  0
 36  9  1  0
 37  9  1  0
 38 11  1  0
 39 12  1  0
 40 13  1  0
 41 17  1  0
 42 18  1  0
 43 18  1  0
 44 19  1  0
 45 19  1  0
 46 20  1  0
 47 23  1  0
 48 24  1  0
 49 25  1  0
 50 26  1  0
 51 27  1  0
  8 52  1  1
M  CHG  1   8   1
M  END
>  <b_m_subgroup_collapsed>  (251) 
0

>  <r_i_docking_score>  (251) 
-8.4297738052103792

>  <s_m_subgroup_title>  (251) 
glide-dock_SP_D22_pv

>  <s_m_subgroupid>  (251) 
glide-dock_SP_D22_pv

>  <Molecule ChEMBL ID>  (251) 
CHEMBL26120

>  <Standard Type>  (251) 
Ki

>  <Standard Value>  (251) 
15.0

>  <label>  (251) 
1

$$$$
CHEMBL4438602
     RDKit          3D

 61 64  0  0  1  0  0  0  0  0999 V2000
   16.0859   -0.6189  -21.2552 N   0  0  0  0  0  0  0  0  0  0  0  0
   15.1648   -0.3244  -20.6220 C   0  0  0  0  0  0  0  0  0  0  0  0
   14.0030    0.0371  -19.8298 C   0  0  0  0  0  0  0  0  0  0  0  0
   13.0951   -0.9625  -19.4447 C   0  0  0  0  0  0  0  0  0  0  0  0
   11.9436   -0.6272  -18.7045 C   0  0  0  0  0  0  0  0  0  0  0  0
   11.6796    0.7113  -18.3316 C   0  0  0  0  0  0  0  0  0  0  0  0
   10.4885    1.0295  -17.6423 N   0  0  0  0  0  0  0  0  0  0  0  0
    9.9345    2.3788  -17.6874 C   0  0  0  0  0  0  0  0  0  0  0  0
   10.1420    3.0973  -16.3423 C   0  0  0  0  0  0  0  0  0  0  0  0
    9.6104    2.2817  -15.2150 N   0  0  0  0  0  0  0  0  0  0  0  0
    9.7057    2.9385  -13.8859 C   0  0  0  0  0  0  0  0  0  0  0  0
    8.9371    4.2716  -13.7670 C   0  0  0  0  0  0  0  0  0  0  0  0
    9.0471    4.8477  -12.3480 C   0  0  0  0  0  0  0  0  0  0  0  0
    8.5068    6.2842  -12.2136 C   0  0  0  0  0  0  0  0  0  0  0  0
    8.8860    6.8610  -10.9309 N   0  0  0  0  0  0  0  0  0  0  0  0
   10.1210    7.2770  -10.6107 C   0  0  0  0  0  0  0  0  0  0  0  0
   11.0335    7.3729  -11.4339 O   0  0  0  0  0  0  0  0  0  0  0  0
   10.3596    7.6060   -9.1645 C   0  0  0  0  0  0  0  0  0  0  0  0
   11.3521    8.5466   -8.8091 C   0  0  0  0  0  0  0  0  0  0  0  0
   11.6874    8.7502   -7.4561 C   0  0  0  0  0  0  0  0  0  0  0  0
   11.0428    8.0146   -6.4406 C   0  0  0  0  0  0  0  0  0  0  0  0
   11.4594    8.1525   -5.0468 C   0  0  0  0  0  0  0  0  0  0  0  0
   11.6991    9.4329   -4.4584 C   0  0  0  0  0  0  0  0  0  0  0  0
   12.0802    9.3636   -3.1435 C   0  0  0  0  0  0  0  0  0  0  0  0
   12.1048    7.7188   -2.5760 S   0  0  0  0  0  0  0  0  0  0  0  0
   11.6860    7.1314   -4.1580 C   0  0  0  0  0  0  0  0  0  0  0  0
   10.0270    7.1017   -6.7893 C   0  0  0  0  0  0  0  0  0  0  0  0
    9.6858    6.8996   -8.1405 C   0  0  0  0  0  0  0  0  0  0  0  0
   10.2184    0.9214  -15.1954 C   0  0  0  0  0  0  0  0  0  0  0  0
   10.0240    0.1927  -16.5392 C   0  0  0  0  0  0  0  0  0  0  0  0
   12.6192    1.7053  -18.7009 C   0  0  0  0  0  0  0  0  0  0  0  0
   13.7698    1.3725  -19.4468 C   0  0  0  0  0  0  0  0  0  0  0  0
   13.2861   -1.9888  -19.7262 H   0  0  0  0  0  0  0  0  0  0  0  0
   11.2475   -1.4130  -18.4547 H   0  0  0  0  0  0  0  0  0  0  0  0
    8.8674    2.2937  -17.8915 H   0  0  0  0  0  0  0  0  0  0  0  0
   10.3385    2.9653  -18.5117 H   0  0  0  0  0  0  0  0  0  0  0  0
    9.6404    4.0616  -16.3969 H   0  0  0  0  0  0  0  0  0  0  0  0
   11.2031    3.2959  -16.1798 H   0  0  0  0  0  0  0  0  0  0  0  0
   10.7560    3.0866  -13.6305 H   0  0  0  0  0  0  0  0  0  0  0  0
    9.2940    2.2545  -13.1431 H   0  0  0  0  0  0  0  0  0  0  0  0
    7.8870    4.1349  -14.0295 H   0  0  0  0  0  0  0  0  0  0  0  0
    9.3457    5.0078  -14.4580 H   0  0  0  0  0  0  0  0  0  0  0  0
   10.0973    4.8328  -12.0605 H   0  0  0  0  0  0  0  0  0  0  0  0
    8.5367    4.1949  -11.6366 H   0  0  0  0  0  0  0  0  0  0  0  0
    7.4184    6.2880  -12.2887 H   0  0  0  0  0  0  0  0  0  0  0  0
    8.8744    6.9231  -13.0157 H   0  0  0  0  0  0  0  0  0  0  0  0
    8.1406    6.9721  -10.2479 H   0  0  0  0  0  0  0  0  0  0  0  0
   11.8924    9.0859   -9.5758 H   0  0  0  0  0  0  0  0  0  0  0  0
   12.4812    9.4373   -7.2038 H   0  0  0  0  0  0  0  0  0  0  0  0
   11.5837   10.3517   -5.0143 H   0  0  0  0  0  0  0  0  0  0  0  0
   12.3201   10.1727   -2.4683 H   0  0  0  0  0  0  0  0  0  0  0  0
   11.5903    6.0692   -4.3308 H   0  0  0  0  0  0  0  0  0  0  0  0
    9.5190    6.5355   -6.0222 H   0  0  0  0  0  0  0  0  0  0  0  0
    8.9248    6.1693   -8.3763 H   0  0  0  0  0  0  0  0  0  0  0  0
   11.2859    1.0092  -14.9816 H   0  0  0  0  0  0  0  0  0  0  0  0
    9.7817    0.3258  -14.3931 H   0  0  0  0  0  0  0  0  0  0  0  0
    8.9653   -0.0219  -16.6933 H   0  0  0  0  0  0  0  0  0  0  0  0
   10.5261   -0.7727  -16.5053 H   0  0  0  0  0  0  0  0  0  0  0  0
   12.4781    2.7373  -18.4205 H   0  0  0  0  0  0  0  0  0  0  0  0
   14.4655    2.1499  -19.7289 H   0  0  0  0  0  0  0  0  0  0  0  0
    8.6267    2.1437  -15.4000 H   0  0  0  0  0  0  0  0  0  0  0  0
  2  1  3  0
  3  2  1  0
  4  3  1  0
  5  4  2  0
  6  5  1  0
  7  6  1  0
  8  7  1  0
  9  8  1  0
 10  9  1  0
 11 10  1  0
 12 11  1  0
 13 12  1  0
 14 13  1  0
 15 14  1  0
 16 15  1  0
 17 16  2  0
 18 16  1  0
 19 18  1  0
 20 19  2  0
 21 20  1  0
 22 21  1  0
 23 22  1  0
 24 23  2  0
 25 24  1  0
 26 22  2  0
 26 25  1  0
 27 21  2  0
 28 18  2  0
 28 27  1  0
 29 10  1  0
 30  7  1  0
 30 29  1  0
 31  6  2  0
 32  3  2  0
 32 31  1  0
 33  4  1  0
 34  5  1  0
 35  8  1  0
 36  8  1  0
 37  9  1  0
 38  9  1  0
 39 11  1  0
 40 11  1  0
 41 12  1  0
 42 12  1  0
 43 13  1  0
 44 13  1  0
 45 14  1  0
 46 14  1  0
 47 15  1  0
 48 19  1  0
 49 20  1  0
 50 23  1  0
 51 24  1  0
 52 26  1  0
 53 27  1  0
 54 28  1  0
 55 29  1  0
 56 29  1  0
 57 30  1  0
 58 30  1  0
 59 31  1  0
 60 32  1  0
 61 10  1  0
M  CHG  1  10   1
M  END
>  <b_m_subgroup_collapsed>  (252) 
0

>  <r_i_docking_score>  (252) 
-8.4289275485049799

>  <s_m_subgroup_title>  (252) 
glide-dock_SP_D22_pv

>  <s_m_subgroupid>  (252) 
glide-dock_SP_D22_pv

>  <Molecule ChEMBL ID>  (252) 
CHEMBL4438602

>  <Standard Type>  (252) 
Ki

>  <Standard Value>  (252) 
20000.0

>  <label>  (252) 
0

$$$$
CHEMBL3409263
     RDKit          3D

 67 71  0  0  1  0  0  0  0  0999 V2000
    4.0175   -0.6279  -13.7789 O   0  0  0  0  0  0  0  0  0  0  0  0
    5.3488   -0.4177  -14.3707 S   0  0  0  0  0  0  0  0  0  0  0  0
    6.4861   -1.2342  -13.9360 O   0  0  0  0  0  0  0  0  0  0  0  0
    5.1410   -0.4967  -16.1551 C   0  0  0  0  0  0  0  0  0  0  0  0
    5.9255    0.2665  -17.0455 C   0  0  0  0  0  0  0  0  0  0  0  0
    5.6832    0.1894  -18.4322 C   0  0  0  0  0  0  0  0  0  0  0  0
    4.6659   -0.6496  -18.9293 C   0  0  0  0  0  0  0  0  0  0  0  0
    3.8937   -1.4230  -18.0408 C   0  0  0  0  0  0  0  0  0  0  0  0
    4.1308   -1.3470  -16.6553 C   0  0  0  0  0  0  0  0  0  0  0  0
    5.7681    1.1918  -13.9174 N   0  0  0  0  0  0  0  0  0  0  0  0
    4.8857    1.9848  -13.2153 C   0  0  0  0  0  0  0  0  0  0  0  0
    5.4294    3.1951  -12.9314 C   0  0  0  0  0  0  0  0  0  0  0  0
    6.7567    3.1500  -13.4468 C   0  0  0  0  0  0  0  0  0  0  0  0
    7.8271    4.0665  -13.3758 C   0  0  0  0  0  0  0  0  0  0  0  0
    7.6481    5.2393  -12.6246 N   0  0  0  0  0  0  0  0  0  0  0  0
    7.3224    5.1461  -11.2120 C   0  0  0  0  0  0  0  0  0  0  0  0
    8.4905    5.6565  -10.3518 C   0  0  0  0  0  0  0  0  0  0  0  0
    8.8861    7.0215  -10.7821 N   0  0  0  0  0  0  0  0  0  0  0  0
    9.9431    7.6326   -9.9439 C   0  0  0  0  0  0  0  0  0  0  0  0
    9.4227    8.1489   -8.5907 C   0  0  0  0  0  0  0  0  0  0  0  0
   10.4675    9.0100   -7.8611 C   0  0  0  0  0  0  0  0  0  0  0  0
   11.6759    8.2297   -7.3321 C   0  0  0  0  0  0  0  0  0  0  0  0
   11.2861    7.3886   -6.2545 O   0  0  0  0  0  0  0  0  0  0  0  0
   11.5575    7.8056   -4.9705 C   0  0  0  0  0  0  0  0  0  0  0  0
   11.6865    6.7969   -3.9986 C   0  0  0  0  0  0  0  0  0  0  0  0
   12.0621    7.1008   -2.6781 C   0  0  0  0  0  0  0  0  0  0  0  0
   12.2697    8.4402   -2.3092 C   0  0  0  0  0  0  0  0  0  0  0  0
   12.6436    8.7430   -1.0475 F   0  0  0  0  0  0  0  0  0  0  0  0
   12.0852    9.4650   -3.2534 C   0  0  0  0  0  0  0  0  0  0  0  0
   11.7354    9.1558   -4.5823 C   0  0  0  0  0  0  0  0  0  0  0  0
    9.2272    7.0752  -12.2295 C   0  0  0  0  0  0  0  0  0  0  0  0
    8.0875    6.5259  -13.1020 C   0  0  0  0  0  0  0  0  0  0  0  0
    9.0563    3.7642  -14.0026 C   0  0  0  0  0  0  0  0  0  0  0  0
    9.2421    2.5233  -14.6470 C   0  0  0  0  0  0  0  0  0  0  0  0
    8.2016    1.5739  -14.6754 C   0  0  0  0  0  0  0  0  0  0  0  0
    6.9606    1.8895  -14.0899 C   0  0  0  0  0  0  0  0  0  0  0  0
    6.6963    0.9244  -16.6852 H   0  0  0  0  0  0  0  0  0  0  0  0
    6.2764    0.7760  -19.1177 H   0  0  0  0  0  0  0  0  0  0  0  0
    4.4792   -0.7047  -19.9922 H   0  0  0  0  0  0  0  0  0  0  0  0
    3.1156   -2.0724  -18.4167 H   0  0  0  0  0  0  0  0  0  0  0  0
    3.5310   -1.9439  -15.9824 H   0  0  0  0  0  0  0  0  0  0  0  0
    3.8774    1.6464  -13.0467 H   0  0  0  0  0  0  0  0  0  0  0  0
    4.9698    4.0212  -12.4090 H   0  0  0  0  0  0  0  0  0  0  0  0
    6.4413    5.7704  -11.0464 H   0  0  0  0  0  0  0  0  0  0  0  0
    7.0730    4.1220  -10.9350 H   0  0  0  0  0  0  0  0  0  0  0  0
    8.1832    5.6662   -9.3059 H   0  0  0  0  0  0  0  0  0  0  0  0
    9.3425    4.9791  -10.4336 H   0  0  0  0  0  0  0  0  0  0  0  0
   10.7579    6.9194   -9.8130 H   0  0  0  0  0  0  0  0  0  0  0  0
   10.3647    8.4830  -10.4820 H   0  0  0  0  0  0  0  0  0  0  0  0
    8.5349    8.7603   -8.7605 H   0  0  0  0  0  0  0  0  0  0  0  0
    9.1036    7.3261   -7.9498 H   0  0  0  0  0  0  0  0  0  0  0  0
   10.8326    9.7720   -8.5474 H   0  0  0  0  0  0  0  0  0  0  0  0
    9.9923    9.5394   -7.0367 H   0  0  0  0  0  0  0  0  0  0  0  0
   12.0962    7.5999   -8.1143 H   0  0  0  0  0  0  0  0  0  0  0  0
   12.4850    8.9097   -7.0624 H   0  0  0  0  0  0  0  0  0  0  0  0
   11.5312    5.7723   -4.2870 H   0  0  0  0  0  0  0  0  0  0  0  0
   12.1862    6.3080   -1.9546 H   0  0  0  0  0  0  0  0  0  0  0  0
   12.2191   10.4930   -2.9529 H   0  0  0  0  0  0  0  0  0  0  0  0
   11.6160    9.9641   -5.2877 H   0  0  0  0  0  0  0  0  0  0  0  0
    9.4387    8.1038  -12.5236 H   0  0  0  0  0  0  0  0  0  0  0  0
   10.1375    6.4996  -12.4040 H   0  0  0  0  0  0  0  0  0  0  0  0
    8.3853    6.4050  -14.1386 H   0  0  0  0  0  0  0  0  0  0  0  0
    7.2392    7.2115  -13.0782 H   0  0  0  0  0  0  0  0  0  0  0  0
    9.8799    4.4606  -13.9541 H   0  0  0  0  0  0  0  0  0  0  0  0
   10.1969    2.2873  -15.0946 H   0  0  0  0  0  0  0  0  0  0  0  0
    8.3624    0.6058  -15.1276 H   0  0  0  0  0  0  0  0  0  0  0  0
    8.0197    7.5568  -10.6501 H   0  0  0  0  0  0  0  0  0  0  0  0
  2  1  2  0
  3  2  2  0
  4  2  1  0
  5  4  2  0
  6  5  1  0
  7  6  2  0
  8  7  1  0
  9  4  1  0
  9  8  2  0
 10  2  1  0
 11 10  1  0
 12 11  2  0
 13 12  1  0
 14 13  2  0
 15 14  1  0
 16 15  1  0
 17 16  1  0
 18 17  1  0
 19 18  1  0
 20 19  1  0
 21 20  1  0
 22 21  1  0
 23 22  1  0
 24 23  1  0
 25 24  1  0
 26 25  2  0
 27 26  1  0
 28 27  1  0
 29 27  2  0
 30 24  2  0
 30 29  1  0
 31 18  1  0
 32 15  1  0
 32 31  1  0
 33 14  1  0
 34 33  2  0
 35 34  1  0
 36 10  1  0
 36 13  1  0
 36 35  2  0
 37  5  1  0
 38  6  1  0
 39  7  1  0
 40  8  1  0
 41  9  1  0
 42 11  1  0
 43 12  1  0
 44 16  1  0
 45 16  1  0
 46 17  1  0
 47 17  1  0
 48 19  1  0
 49 19  1  0
 50 20  1  0
 51 20  1  0
 52 21  1  0
 53 21  1  0
 54 22  1  0
 55 22  1  0
 56 25  1  0
 57 26  1  0
 58 29  1  0
 59 30  1  0
 60 31  1  0
 61 31  1  0
 62 32  1  0
 63 32  1  0
 64 33  1  0
 65 34  1  0
 66 35  1  0
 67 18  1  0
M  CHG  1  18   1
M  END
>  <b_m_subgroup_collapsed>  (253) 
0

>  <r_i_docking_score>  (253) 
-8.4199333072284492

>  <s_m_subgroup_title>  (253) 
glide-dock_SP_D22_pv

>  <s_m_subgroupid>  (253) 
glide-dock_SP_D22_pv

>  <Molecule ChEMBL ID>  (253) 
CHEMBL3409263

>  <Standard Type>  (253) 
Ki

>  <Standard Value>  (253) 
47.0

>  <label>  (253) 
1

$$$$
CHEMBL3797758
     RDKit          3D

 44 45  0  0  1  0  0  0  0  0999 V2000
   11.3051    3.3416  -14.3162 C   0  0  0  0  0  0  0  0  0  0  0  0
   10.5682    3.9636  -13.2759 O   0  0  0  0  0  0  0  0  0  0  0  0
    9.1940    3.8664  -13.2958 C   0  0  0  0  0  0  0  0  0  0  0  0
    8.4808    3.1100  -14.2606 C   0  0  0  0  0  0  0  0  0  0  0  0
    7.0760    3.0792  -14.2456 C   0  0  0  0  0  0  0  0  0  0  0  0
    6.3707    3.8229  -13.2848 C   0  0  0  0  0  0  0  0  0  0  0  0
    7.0694    4.5714  -12.3183 C   0  0  0  0  0  0  0  0  0  0  0  0
    8.4905    4.5741  -12.2937 C   0  0  0  0  0  0  0  0  0  0  0  0
    9.2586    5.2055  -11.3313 O   0  0  0  0  0  0  0  0  0  0  0  0
    8.6405    6.0929  -10.4112 C   0  0  0  0  0  0  0  0  0  0  0  0
    9.5257    6.2749   -9.1708 C   0  0  0  0  0  0  0  0  0  0  0  0
    8.8860    7.2321   -8.2428 N   0  0  0  0  0  0  0  0  0  0  0  0
    9.4209    7.2939   -6.8656 C   0  0  0  0  0  0  0  0  0  0  0  0
   10.8396    7.8845   -6.8035 C   0  0  0  0  0  0  0  0  0  0  0  0
   11.2860    8.1547   -5.3777 C   0  0  0  0  0  0  0  0  0  0  0  0
   11.2823    9.4758   -4.8825 C   0  0  0  0  0  0  0  0  0  0  0  0
   11.6971    9.7359   -3.5639 C   0  0  0  0  0  0  0  0  0  0  0  0
   12.1378    8.6873   -2.7369 C   0  0  0  0  0  0  0  0  0  0  0  0
   12.6154    8.9723   -1.4909 O   0  0  0  0  0  0  0  0  0  0  0  0
   12.1037    7.3593   -3.2131 C   0  0  0  0  0  0  0  0  0  0  0  0
   12.4859    6.3303   -2.4003 O   0  0  0  0  0  0  0  0  0  0  0  0
   11.6840    7.0947   -4.5329 C   0  0  0  0  0  0  0  0  0  0  0  0
   12.3616    3.5812  -14.1969 H   0  0  0  0  0  0  0  0  0  0  0  0
   11.2025    2.2544  -14.2820 H   0  0  0  0  0  0  0  0  0  0  0  0
   10.9983    3.7060  -15.2972 H   0  0  0  0  0  0  0  0  0  0  0  0
    8.9898    2.5408  -15.0224 H   0  0  0  0  0  0  0  0  0  0  0  0
    6.5385    2.5003  -14.9814 H   0  0  0  0  0  0  0  0  0  0  0  0
    5.2909    3.8138  -13.2839 H   0  0  0  0  0  0  0  0  0  0  0  0
    6.4749    5.1111  -11.5996 H   0  0  0  0  0  0  0  0  0  0  0  0
    7.6855    5.7246  -10.0477 H   0  0  0  0  0  0  0  0  0  0  0  0
    8.4854    7.0507  -10.9081 H   0  0  0  0  0  0  0  0  0  0  0  0
   10.5151    6.6367   -9.4533 H   0  0  0  0  0  0  0  0  0  0  0  0
    9.6553    5.3110   -8.6768 H   0  0  0  0  0  0  0  0  0  0  0  0
    7.8994    6.9829   -8.1728 H   0  0  0  0  0  0  0  0  0  0  0  0
    9.3901    6.3063   -6.4060 H   0  0  0  0  0  0  0  0  0  0  0  0
    8.7431    7.9270   -6.2914 H   0  0  0  0  0  0  0  0  0  0  0  0
   10.8859    8.8131   -7.3724 H   0  0  0  0  0  0  0  0  0  0  0  0
   11.5544    7.2051   -7.2674 H   0  0  0  0  0  0  0  0  0  0  0  0
   10.9607   10.2949   -5.5082 H   0  0  0  0  0  0  0  0  0  0  0  0
   11.6859   10.7440   -3.1797 H   0  0  0  0  0  0  0  0  0  0  0  0
   12.8798    9.8787   -1.3990 H   0  0  0  0  0  0  0  0  0  0  0  0
   12.1961    5.4788   -2.6962 H   0  0  0  0  0  0  0  0  0  0  0  0
   11.6751    6.0792   -4.9032 H   0  0  0  0  0  0  0  0  0  0  0  0
    8.9147    8.1540   -8.6543 H   0  0  0  0  0  0  0  0  0  0  0  0
  2  1  1  0
  3  2  1  0
  4  3  2  0
  5  4  1  0
  6  5  2  0
  7  6  1  0
  8  3  1  0
  8  7  2  0
  9  8  1  0
 10  9  1  0
 11 10  1  0
 12 11  1  0
 13 12  1  0
 14 13  1  0
 15 14  1  0
 16 15  1  0
 17 16  2  0
 18 17  1  0
 19 18  1  0
 20 18  2  0
 21 20  1  0
 22 15  2  0
 22 20  1  0
 23  1  1  0
 24  1  1  0
 25  1  1  0
 26  4  1  0
 27  5  1  0
 28  6  1  0
 29  7  1  0
 30 10  1  0
 31 10  1  0
 32 11  1  0
 33 11  1  0
 34 12  1  0
 35 13  1  0
 36 13  1  0
 37 14  1  0
 38 14  1  0
 39 16  1  0
 40 17  1  0
 41 19  1  0
 42 21  1  0
 43 22  1  0
 44 12  1  0
M  CHG  1  12   1
M  END
>  <b_m_subgroup_collapsed>  (254) 
0

>  <r_i_docking_score>  (254) 
-8.4183420742578594

>  <s_m_subgroup_title>  (254) 
glide-dock_SP_D22_pv

>  <s_m_subgroupid>  (254) 
glide-dock_SP_D22_pv

>  <Molecule ChEMBL ID>  (254) 
CHEMBL3797758

>  <Standard Type>  (254) 
Ki

>  <Standard Value>  (254) 
48.0

>  <label>  (254) 
1

$$$$
CHEMBL77563
     RDKit          3D

 42 45  0  0  1  0  0  0  0  0999 V2000
   11.2856   10.5736   -5.8139 Cl  0  0  0  0  0  0  0  0  0  0  0  0
   11.5760    9.1660   -4.8776 C   0  0  0  0  0  0  0  0  0  0  0  0
   11.9763    9.3034   -3.5329 C   0  0  0  0  0  0  0  0  0  0  0  0
   12.2242    8.1635   -2.7502 C   0  0  0  0  0  0  0  0  0  0  0  0
   12.0742    6.8880   -3.3189 C   0  0  0  0  0  0  0  0  0  0  0  0
   11.6669    6.7563   -4.6608 C   0  0  0  0  0  0  0  0  0  0  0  0
   11.4016    7.8906   -5.4601 C   0  0  0  0  0  0  0  0  0  0  0  0
   11.0185    7.7803   -6.8149 N   0  0  0  0  0  0  0  0  0  0  0  0
   12.0078    8.1755   -7.8172 C   0  0  0  0  0  0  0  0  0  0  0  0
   11.3087    8.4819   -9.1494 C   0  0  0  0  0  0  0  0  0  0  0  0
   10.6008    7.2887   -9.6208 N   0  0  0  0  0  0  0  0  0  0  0  0
    9.9888    7.6105  -10.9086 C   0  0  0  0  0  0  0  0  0  0  0  0
    9.3973    6.4429  -11.6336 C   0  0  0  0  0  0  0  0  0  0  0  0
   10.0840    5.6421  -12.4506 N   0  0  0  0  0  0  0  0  0  0  0  0
    9.0969    4.7967  -12.9381 C   0  0  0  0  0  0  0  0  0  0  0  0
    9.1713    3.7363  -13.8694 C   0  0  0  0  0  0  0  0  0  0  0  0
    8.0064    3.0328  -14.2473 C   0  0  0  0  0  0  0  0  0  0  0  0
    6.7517    3.3751  -13.6979 C   0  0  0  0  0  0  0  0  0  0  0  0
    6.6563    4.4159  -12.7522 C   0  0  0  0  0  0  0  0  0  0  0  0
    7.8224    5.1136  -12.3861 C   0  0  0  0  0  0  0  0  0  0  0  0
    8.0847    6.1730  -11.5377 N   0  0  0  0  0  0  0  0  0  0  0  0
    9.5804    6.9275   -8.6232 C   0  0  0  0  0  0  0  0  0  0  0  0
   10.2343    6.6318   -7.2539 C   0  0  0  0  0  0  0  0  0  0  0  0
   12.0858   10.2831   -3.0939 H   0  0  0  0  0  0  0  0  0  0  0  0
   12.5304    8.2704   -1.7201 H   0  0  0  0  0  0  0  0  0  0  0  0
   12.2623    6.0046   -2.7266 H   0  0  0  0  0  0  0  0  0  0  0  0
   11.5588    5.7722   -5.0792 H   0  0  0  0  0  0  0  0  0  0  0  0
   12.5860    9.0401   -7.4956 H   0  0  0  0  0  0  0  0  0  0  0  0
   12.7300    7.3723   -7.9520 H   0  0  0  0  0  0  0  0  0  0  0  0
   10.6164    9.3178   -9.0314 H   0  0  0  0  0  0  0  0  0  0  0  0
   12.0558    8.7828   -9.8841 H   0  0  0  0  0  0  0  0  0  0  0  0
    9.2233    8.3779  -10.7815 H   0  0  0  0  0  0  0  0  0  0  0  0
   10.7473    8.0369  -11.5644 H   0  0  0  0  0  0  0  0  0  0  0  0
   10.1277    3.4717  -14.2950 H   0  0  0  0  0  0  0  0  0  0  0  0
    8.0712    2.2248  -14.9617 H   0  0  0  0  0  0  0  0  0  0  0  0
    5.8676    2.8295  -13.9915 H   0  0  0  0  0  0  0  0  0  0  0  0
    5.7049    4.6810  -12.3117 H   0  0  0  0  0  0  0  0  0  0  0  0
    7.4191    6.7327  -10.9848 H   0  0  0  0  0  0  0  0  0  0  0  0
    8.8498    7.7334   -8.5208 H   0  0  0  0  0  0  0  0  0  0  0  0
    9.0308    6.0460   -8.9538 H   0  0  0  0  0  0  0  0  0  0  0  0
   10.8803    5.7584   -7.3331 H   0  0  0  0  0  0  0  0  0  0  0  0
    9.4628    6.4020   -6.5179 H   0  0  0  0  0  0  0  0  0  0  0  0
  2  1  1  0
  3  2  2  0
  4  3  1  0
  5  4  2  0
  6  5  1  0
  7  2  1  0
  7  6  2  0
  8  7  1  0
  9  8  1  0
 10  9  1  0
 11 10  1  0
 12 11  1  0
 13 12  1  0
 14 13  2  0
 15 14  1  0
 16 15  2  0
 17 16  1  0
 18 17  2  0
 19 18  1  0
 20 15  1  0
 20 19  2  0
 21 13  1  0
 21 20  1  0
 22 11  1  0
 23  8  1  0
 23 22  1  0
 24  3  1  0
 25  4  1  0
 26  5  1  0
 27  6  1  0
 28  9  1  0
 29  9  1  0
 30 10  1  0
 31 10  1  0
 32 12  1  0
 33 12  1  0
 34 16  1  0
 35 17  1  0
 36 18  1  0
 37 19  1  0
 38 21  1  0
 39 22  1  0
 40 22  1  0
 41 23  1  0
 42 23  1  0
M  END
>  <b_m_subgroup_collapsed>  (255) 
0

>  <r_i_docking_score>  (255) 
-8.4180217527273502

>  <s_m_subgroup_title>  (255) 
glide-dock_SP_D22_pv

>  <s_m_subgroupid>  (255) 
glide-dock_SP_D22_pv

>  <Molecule ChEMBL ID>  (255) 
CHEMBL77563

>  <Standard Type>  (255) 
Ki

>  <Standard Value>  (255) 
10000.0

>  <label>  (255) 
0

$$$$
CHEMBL3797205
     RDKit          3D

 69 72  0  0  1  0  0  0  0  0999 V2000
   12.6974    7.5251  -14.3611 C   0  0  0  0  0  0  0  0  0  0  0  0
   12.4765    7.6453  -12.9632 O   0  0  0  0  0  0  0  0  0  0  0  0
   11.3896    6.9830  -12.4324 C   0  0  0  0  0  0  0  0  0  0  0  0
   10.8178    5.8436  -13.0469 C   0  0  0  0  0  0  0  0  0  0  0  0
    9.7227    5.1864  -12.4459 C   0  0  0  0  0  0  0  0  0  0  0  0
    9.1789    3.8844  -12.9871 C   0  0  0  0  0  0  0  0  0  0  0  0
    9.3201    3.6844  -14.4997 C   0  0  0  0  0  0  0  0  0  0  0  0
    8.7468    2.3779  -14.8264 N   0  0  0  0  0  0  0  0  0  0  0  0
    8.8288    1.9339  -16.2254 C   0  0  0  0  0  0  0  0  0  0  0  0
    8.5014    0.4340  -16.2819 C   0  0  1  0  0  0  0  0  0  0  0  0
    9.4703   -0.2270  -15.4949 O   0  0  0  0  0  0  0  0  0  0  0  0
    7.0847    0.1011  -15.8150 C   0  0  0  0  0  0  0  0  0  0  0  0
    6.7616    0.1275  -14.4390 C   0  0  0  0  0  0  0  0  0  0  0  0
    5.4761   -0.2232  -13.9985 C   0  0  0  0  0  0  0  0  0  0  0  0
    4.5142   -0.6840  -14.9125 C   0  0  0  0  0  0  0  0  0  0  0  0
    3.2840   -1.0278  -14.4390 O   0  0  0  0  0  0  0  0  0  0  0  0
    4.8464   -0.7855  -16.2820 C   0  0  0  0  0  0  0  0  0  0  0  0
    6.1083   -0.3294  -16.7415 C   0  0  0  0  0  0  0  0  0  0  0  0
    6.4208   -0.3915  -18.0837 O   0  0  0  0  0  0  0  0  0  0  0  0
    5.3224   -0.4466  -18.9988 C   0  0  0  0  0  0  0  0  0  0  0  0
    4.2370   -1.4205  -18.5229 C   0  0  0  0  0  0  0  0  0  0  0  0
    3.6789   -2.1657  -19.3214 O   0  0  0  0  0  0  0  0  0  0  0  0
    3.9832   -1.4273  -17.2066 N   0  0  0  0  0  0  0  0  0  0  0  0
    9.1682    5.6958  -11.2576 C   0  0  0  0  0  0  0  0  0  0  0  0
    9.7271    6.8260  -10.6435 C   0  0  0  0  0  0  0  0  0  0  0  0
   10.8600    7.4621  -11.2094 C   0  0  0  0  0  0  0  0  0  0  0  0
   11.4927    8.5455  -10.6354 O   0  0  0  0  0  0  0  0  0  0  0  0
   10.9177    9.1554   -9.4844 C   0  0  0  0  0  0  0  0  0  0  0  0
   11.3478    8.4553   -8.1819 C   0  0  0  0  0  0  0  0  0  0  0  0
   10.6082    9.0363   -6.9654 C   0  0  0  0  0  0  0  0  0  0  0  0
   11.1576    8.5850   -5.6225 C   0  0  0  0  0  0  0  0  0  0  0  0
   11.5784    9.5462   -4.6792 C   0  0  0  0  0  0  0  0  0  0  0  0
   12.0559    9.1478   -3.4154 C   0  0  0  0  0  0  0  0  0  0  0  0
   12.1033    7.7818   -3.0849 C   0  0  0  0  0  0  0  0  0  0  0  0
   11.6866    6.8190   -4.0233 C   0  0  0  0  0  0  0  0  0  0  0  0
   11.2231    7.2157   -5.2921 C   0  0  0  0  0  0  0  0  0  0  0  0
   13.2856    8.3741  -14.7032 H   0  0  0  0  0  0  0  0  0  0  0  0
   13.2481    6.6122  -14.5977 H   0  0  0  0  0  0  0  0  0  0  0  0
   11.7684    7.5428  -14.9328 H   0  0  0  0  0  0  0  0  0  0  0  0
   11.2604    5.4467  -13.9459 H   0  0  0  0  0  0  0  0  0  0  0  0
    8.1260    3.8139  -12.7072 H   0  0  0  0  0  0  0  0  0  0  0  0
    9.6890    3.0785  -12.4585 H   0  0  0  0  0  0  0  0  0  0  0  0
   10.3656    3.6843  -14.8050 H   0  0  0  0  0  0  0  0  0  0  0  0
    8.8079    4.4760  -15.0486 H   0  0  0  0  0  0  0  0  0  0  0  0
    7.7792    2.3507  -14.5421 H   0  0  0  0  0  0  0  0  0  0  0  0
    9.8359    2.1048  -16.6088 H   0  0  0  0  0  0  0  0  0  0  0  0
    8.1395    2.5101  -16.8459 H   0  0  0  0  0  0  0  0  0  0  0  0
    8.6457    0.0837  -17.3036 H   0  0  0  0  0  0  0  0  0  0  0  0
    9.2184   -1.1418  -15.4497 H   0  0  0  0  0  0  0  0  0  0  0  0
    7.5000    0.3971  -13.6988 H   0  0  0  0  0  0  0  0  0  0  0  0
    5.2442   -0.1655  -12.9458 H   0  0  0  0  0  0  0  0  0  0  0  0
    2.6625   -1.2465  -15.1145 H   0  0  0  0  0  0  0  0  0  0  0  0
    5.6911   -0.7543  -19.9767 H   0  0  0  0  0  0  0  0  0  0  0  0
    4.8877    0.5477  -19.1093 H   0  0  0  0  0  0  0  0  0  0  0  0
    3.2842   -2.0699  -16.8588 H   0  0  0  0  0  0  0  0  0  0  0  0
    8.3246    5.2112  -10.7878 H   0  0  0  0  0  0  0  0  0  0  0  0
    9.2734    7.1650   -9.7246 H   0  0  0  0  0  0  0  0  0  0  0  0
   11.2859   10.1776   -9.4588 H   0  0  0  0  0  0  0  0  0  0  0  0
    9.8342    9.2442   -9.5701 H   0  0  0  0  0  0  0  0  0  0  0  0
   11.1694    7.3816   -8.2423 H   0  0  0  0  0  0  0  0  0  0  0  0
   12.4247    8.5847   -8.0608 H   0  0  0  0  0  0  0  0  0  0  0  0
   10.6589   10.1221   -7.0042 H   0  0  0  0  0  0  0  0  0  0  0  0
    9.5483    8.7796   -7.0131 H   0  0  0  0  0  0  0  0  0  0  0  0
   11.5281   10.5948   -4.9240 H   0  0  0  0  0  0  0  0  0  0  0  0
   12.3797    9.8893   -2.6969 H   0  0  0  0  0  0  0  0  0  0  0  0
   12.4572    7.4696   -2.1134 H   0  0  0  0  0  0  0  0  0  0  0  0
   11.7239    5.7725   -3.7668 H   0  0  0  0  0  0  0  0  0  0  0  0
   10.8941    6.4661   -5.9963 H   0  0  0  0  0  0  0  0  0  0  0  0
    9.2518    1.6786  -14.2953 H   0  0  0  0  0  0  0  0  0  0  0  0
  2  1  1  0
  3  2  1  0
  4  3  1  0
  5  4  2  0
  6  5  1  0
  7  6  1  0
  8  7  1  0
  9  8  1  0
 10  9  1  0
 11 10  1  0
 12 10  1  0
 13 12  1  0
 14 13  2  0
 15 14  1  0
 16 15  1  0
 17 15  2  0
 18 12  2  0
 18 17  1  0
 19 18  1  0
 20 19  1  0
 21 20  1  0
 22 21  2  0
 23 17  1  0
 23 21  1  0
 24  5  1  0
 25 24  2  0
 26  3  2  0
 26 25  1  0
 27 26  1  0
 28 27  1  0
 29 28  1  0
 30 29  1  0
 31 30  1  0
 32 31  2  0
 33 32  1  0
 34 33  2  0
 35 34  1  0
 36 31  1  0
 36 35  2  0
 37  1  1  0
 38  1  1  0
 39  1  1  0
 40  4  1  0
 41  6  1  0
 42  6  1  0
 43  7  1  0
 44  7  1  0
 45  8  1  0
 46  9  1  0
 47  9  1  0
 10 48  1  6
 49 11  1  0
 50 13  1  0
 51 14  1  0
 52 16  1  0
 53 20  1  0
 54 20  1  0
 55 23  1  0
 56 24  1  0
 57 25  1  0
 58 28  1  0
 59 28  1  0
 60 29  1  0
 61 29  1  0
 62 30  1  0
 63 30  1  0
 64 32  1  0
 65 33  1  0
 66 34  1  0
 67 35  1  0
 68 36  1  0
 69  8  1  0
M  CHG  1   8   1
M  END
>  <b_m_subgroup_collapsed>  (256) 
0

>  <r_i_docking_score>  (256) 
-8.4144212105597997

>  <s_m_subgroup_title>  (256) 
glide-dock_SP_D22_pv

>  <s_m_subgroupid>  (256) 
glide-dock_SP_D22_pv

>  <Molecule ChEMBL ID>  (256) 
CHEMBL3797205

>  <Standard Type>  (256) 
Ki

>  <Standard Value>  (256) 
96.0

>  <label>  (256) 
1

$$$$
CHEMBL1173436
     RDKit          3D

 53 57  0  0  1  0  0  0  0  0999 V2000
    6.6537    3.7488  -13.2285 C   0  0  0  0  0  0  0  0  0  0  0  0
    7.8159    4.3525  -12.6799 O   0  0  0  0  0  0  0  0  0  0  0  0
    8.9757    4.3267  -13.4240 C   0  0  0  0  0  0  0  0  0  0  0  0
    9.1936    3.4103  -14.4843 C   0  0  0  0  0  0  0  0  0  0  0  0
   10.3871    3.4407  -15.2314 C   0  0  0  0  0  0  0  0  0  0  0  0
   11.3713    4.4003  -14.9424 C   0  0  0  0  0  0  0  0  0  0  0  0
   11.1550    5.3093  -13.8941 C   0  0  0  0  0  0  0  0  0  0  0  0
   11.9126    6.3550  -13.4100 N   0  0  0  0  0  0  0  0  0  0  0  0
   11.2738    6.9717  -12.3480 C   0  0  0  0  0  0  0  0  0  0  0  0
   10.0970    6.3067  -12.0850 C   0  0  0  0  0  0  0  0  0  0  0  0
    9.1124    6.6101  -10.9932 C   0  0  0  0  0  0  0  0  0  0  0  0
    9.7753    7.1508   -9.7787 N   0  0  2  0  0  0  0  0  0  0  0  0
   10.3351    6.1392   -8.8492 C   0  0  0  0  0  0  0  0  0  0  0  0
   11.2014    6.8253   -7.7551 C   0  0  0  0  0  0  0  0  0  0  0  0
   10.3320    7.8009   -6.9351 C   0  0  1  0  0  0  0  0  0  0  0  0
   11.0472    8.5289   -5.8600 N   0  0  0  0  0  0  0  0  0  0  0  0
   11.2501    9.8684   -5.7550 C   0  0  0  0  0  0  0  0  0  0  0  0
   11.2877   10.6947   -6.6472 O   0  0  0  0  0  0  0  0  0  0  0  0
   11.4896   10.1723   -4.4825 N   0  0  0  0  0  0  0  0  0  0  0  0
   11.7663    9.0231   -3.7931 C   0  0  0  0  0  0  0  0  0  0  0  0
   12.2693    8.8827   -2.4993 C   0  0  0  0  0  0  0  0  0  0  0  0
   12.4833    7.5678   -2.0640 C   0  0  0  0  0  0  0  0  0  0  0  0
   12.1756    6.4702   -2.9020 C   0  0  0  0  0  0  0  0  0  0  0  0
   11.6697    6.6459   -4.2128 C   0  0  0  0  0  0  0  0  0  0  0  0
   11.4852    7.9688   -4.6417 C   0  0  0  0  0  0  0  0  0  0  0  0
    9.6230    8.7557   -7.9221 C   0  0  0  0  0  0  0  0  0  0  0  0
    8.8847    8.0463   -9.0355 C   0  0  0  0  0  0  0  0  0  0  0  0
    9.9747    5.2799  -13.0919 C   0  0  0  0  0  0  0  0  0  0  0  0
    5.8006    3.9735  -12.5894 H   0  0  0  0  0  0  0  0  0  0  0  0
    6.4327    4.1411  -14.2210 H   0  0  0  0  0  0  0  0  0  0  0  0
    6.7420    2.6656  -13.2856 H   0  0  0  0  0  0  0  0  0  0  0  0
    8.4568    2.6650  -14.7409 H   0  0  0  0  0  0  0  0  0  0  0  0
   10.5412    2.7325  -16.0331 H   0  0  0  0  0  0  0  0  0  0  0  0
   12.2815    4.4392  -15.5230 H   0  0  0  0  0  0  0  0  0  0  0  0
   12.8237    6.6322  -13.7520 H   0  0  0  0  0  0  0  0  0  0  0  0
   11.7367    7.8112  -11.8511 H   0  0  0  0  0  0  0  0  0  0  0  0
    8.3999    7.3335  -11.3919 H   0  0  0  0  0  0  0  0  0  0  0  0
    8.5263    5.7325  -10.7168 H   0  0  0  0  0  0  0  0  0  0  0  0
    9.5223    5.5795   -8.3813 H   0  0  0  0  0  0  0  0  0  0  0  0
   10.8857    5.4042   -9.4174 H   0  0  0  0  0  0  0  0  0  0  0  0
   11.6443    6.0693   -7.1069 H   0  0  0  0  0  0  0  0  0  0  0  0
   12.0287    7.3718   -8.2122 H   0  0  0  0  0  0  0  0  0  0  0  0
    9.5573    7.2163   -6.4342 H   0  0  0  0  0  0  0  0  0  0  0  0
   11.6810   11.0968   -4.1231 H   0  0  0  0  0  0  0  0  0  0  0  0
   12.4930    9.7328   -1.8736 H   0  0  0  0  0  0  0  0  0  0  0  0
   12.8881    7.3979   -1.0779 H   0  0  0  0  0  0  0  0  0  0  0  0
   12.3465    5.4722   -2.5311 H   0  0  0  0  0  0  0  0  0  0  0  0
   11.4452    5.7911   -4.8370 H   0  0  0  0  0  0  0  0  0  0  0  0
    8.9025    9.3688   -7.3883 H   0  0  0  0  0  0  0  0  0  0  0  0
   10.3423    9.4064   -8.4153 H   0  0  0  0  0  0  0  0  0  0  0  0
    8.4848    8.8040   -9.7071 H   0  0  0  0  0  0  0  0  0  0  0  0
    8.0860    7.4476   -8.6109 H   0  0  0  0  0  0  0  0  0  0  0  0
   10.5392    7.7203  -10.1087 H   0  0  0  0  0  0  0  0  0  0  0  0
  2  1  1  0
  3  2  1  0
  4  3  1  0
  5  4  2  0
  6  5  1  0
  7  6  2  0
  8  7  1  0
  9  8  1  0
 10  9  2  0
 11 10  1  0
 12 11  1  0
 13 12  1  0
 14 13  1  0
 15 14  1  0
 16 15  1  0
 17 16  1  0
 18 17  2  0
 19 17  1  0
 20 19  1  0
 21 20  2  0
 22 21  1  0
 23 22  2  0
 24 23  1  0
 25 16  1  0
 25 20  1  0
 25 24  2  0
 26 15  1  0
 27 12  1  0
 27 26  1  0
 28  3  2  0
 28  7  1  0
 28 10  1  0
 29  1  1  0
 30  1  1  0
 31  1  1  0
 32  4  1  0
 33  5  1  0
 34  6  1  0
 35  8  1  0
 36  9  1  0
 37 11  1  0
 38 11  1  0
 39 13  1  0
 40 13  1  0
 41 14  1  0
 42 14  1  0
 15 43  1  1
 44 19  1  0
 45 21  1  0
 46 22  1  0
 47 23  1  0
 48 24  1  0
 49 26  1  0
 50 26  1  0
 51 27  1  0
 52 27  1  0
 12 53  1  6
M  CHG  1  12   1
M  END
>  <b_m_subgroup_collapsed>  (257) 
0

>  <r_i_docking_score>  (257) 
-8.4076436180487093

>  <s_m_subgroup_title>  (257) 
glide-dock_SP_D22_pv

>  <s_m_subgroupid>  (257) 
glide-dock_SP_D22_pv

>  <Molecule ChEMBL ID>  (257) 
CHEMBL1173436

>  <Standard Type>  (257) 
Ki

>  <Standard Value>  (257) 
23.3

>  <label>  (257) 
1

$$$$
CHEMBL3409235
     RDKit          3D

 69 73  0  0  1  0  0  0  0  0999 V2000
   13.0984    8.9723   -1.4469 O   0  0  0  0  0  0  0  0  0  0  0  0
   12.4860    8.5232   -2.4057 C   0  0  0  0  0  0  0  0  0  0  0  0
   11.7088    7.2258   -2.2156 C   0  0  0  0  0  0  0  0  0  0  0  0
   11.5477    6.4176   -3.4927 C   0  0  0  0  0  0  0  0  0  0  0  0
   11.3239    7.2729   -4.7127 C   0  0  0  0  0  0  0  0  0  0  0  0
   10.6394    6.7435   -5.8102 C   0  0  0  0  0  0  0  0  0  0  0  0
   10.5640    7.4502   -7.0077 C   0  0  0  0  0  0  0  0  0  0  0  0
   11.2010    8.7047   -7.1281 C   0  0  0  0  0  0  0  0  0  0  0  0
   11.2791    9.3722   -8.3258 O   0  0  0  0  0  0  0  0  0  0  0  0
   10.4688    8.9221   -9.4048 C   0  0  0  0  0  0  0  0  0  0  0  0
   11.1309    7.7929  -10.2186 C   0  0  0  0  0  0  0  0  0  0  0  0
   10.2223    7.2496  -11.3353 C   0  0  0  0  0  0  0  0  0  0  0  0
    9.0587    6.3752  -10.8275 C   0  0  0  0  0  0  0  0  0  0  0  0
    8.1713    6.0032  -11.9477 N   0  0  0  0  0  0  0  0  0  0  0  0
    7.0173    5.1538  -11.6051 C   0  0  0  0  0  0  0  0  0  0  0  0
    6.3126    4.5860  -12.8558 C   0  0  0  0  0  0  0  0  0  0  0  0
    7.0913    3.5485  -13.6182 C   0  0  0  0  0  0  0  0  0  0  0  0
    6.6181    2.2858  -13.8470 C   0  0  0  0  0  0  0  0  0  0  0  0
    7.5851    1.5003  -14.4585 N   0  0  0  0  0  0  0  0  0  0  0  0
    7.4622    0.0751  -14.7222 C   0  0  0  0  0  0  0  0  0  0  0  0
    6.0742   -0.3089  -15.1930 C   0  0  0  0  0  0  0  0  0  0  0  0
    5.7766   -0.3600  -16.5700 C   0  0  0  0  0  0  0  0  0  0  0  0
    4.4864   -0.7276  -16.9948 C   0  0  0  0  0  0  0  0  0  0  0  0
    3.4931   -1.0277  -16.0431 C   0  0  0  0  0  0  0  0  0  0  0  0
    3.7828   -0.9722  -14.6688 C   0  0  0  0  0  0  0  0  0  0  0  0
    5.0781   -0.6252  -14.2469 C   0  0  0  0  0  0  0  0  0  0  0  0
    8.7058    2.2798  -14.6998 C   0  0  0  0  0  0  0  0  0  0  0  0
    9.9571    1.9689  -15.2692 C   0  0  0  0  0  0  0  0  0  0  0  0
   10.9161    2.9811  -15.4434 C   0  0  0  0  0  0  0  0  0  0  0  0
   10.6084    4.3017  -15.0725 C   0  0  0  0  0  0  0  0  0  0  0  0
    9.3608    4.6051  -14.4924 C   0  0  0  0  0  0  0  0  0  0  0  0
    8.3903    3.5992  -14.2469 C   0  0  0  0  0  0  0  0  0  0  0  0
   11.8085    9.2867   -5.9880 C   0  0  0  0  0  0  0  0  0  0  0  0
   11.8558    8.5753   -4.7666 C   0  0  0  0  0  0  0  0  0  0  0  0
   12.4787    9.1192   -3.6131 N   0  0  0  0  0  0  0  0  0  0  0  0
   12.1957    6.6190   -1.4506 H   0  0  0  0  0  0  0  0  0  0  0  0
   10.7232    7.4865   -1.8459 H   0  0  0  0  0  0  0  0  0  0  0  0
   10.6863    5.7725   -3.3759 H   0  0  0  0  0  0  0  0  0  0  0  0
   12.4174    5.7809   -3.6499 H   0  0  0  0  0  0  0  0  0  0  0  0
   10.1925    5.7724   -5.7546 H   0  0  0  0  0  0  0  0  0  0  0  0
   10.0511    6.9709   -7.8257 H   0  0  0  0  0  0  0  0  0  0  0  0
   10.3355    9.7721  -10.0555 H   0  0  0  0  0  0  0  0  0  0  0  0
    9.4619    8.6751   -9.0678 H   0  0  0  0  0  0  0  0  0  0  0  0
   11.4519    6.9734   -9.5778 H   0  0  0  0  0  0  0  0  0  0  0  0
   12.0445    8.1894  -10.6633 H   0  0  0  0  0  0  0  0  0  0  0  0
   10.8286    6.6610  -12.0253 H   0  0  0  0  0  0  0  0  0  0  0  0
    9.8337    8.0881  -11.9154 H   0  0  0  0  0  0  0  0  0  0  0  0
    8.4861    6.9063  -10.0701 H   0  0  0  0  0  0  0  0  0  0  0  0
    9.4483    5.4724  -10.3549 H   0  0  0  0  0  0  0  0  0  0  0  0
    8.7230    5.5036  -12.6290 H   0  0  0  0  0  0  0  0  0  0  0  0
    6.3144    5.7720  -11.0471 H   0  0  0  0  0  0  0  0  0  0  0  0
    7.3264    4.3354  -10.9535 H   0  0  0  0  0  0  0  0  0  0  0  0
    5.9984    5.3734  -13.5272 H   0  0  0  0  0  0  0  0  0  0  0  0
    5.3763    4.1416  -12.5150 H   0  0  0  0  0  0  0  0  0  0  0  0
    5.6692    1.8655  -13.5492 H   0  0  0  0  0  0  0  0  0  0  0  0
    7.6858   -0.4617  -13.8008 H   0  0  0  0  0  0  0  0  0  0  0  0
    8.1987   -0.2295  -15.4658 H   0  0  0  0  0  0  0  0  0  0  0  0
    6.5366   -0.1247  -17.3006 H   0  0  0  0  0  0  0  0  0  0  0  0
    4.2528   -0.7733  -18.0485 H   0  0  0  0  0  0  0  0  0  0  0  0
    2.5015   -1.2988  -16.3651 H   0  0  0  0  0  0  0  0  0  0  0  0
    3.0126   -1.2029  -13.9474 H   0  0  0  0  0  0  0  0  0  0  0  0
    5.3136   -0.5856  -13.1950 H   0  0  0  0  0  0  0  0  0  0  0  0
   10.1825    0.9604  -15.5809 H   0  0  0  0  0  0  0  0  0  0  0  0
   11.8773    2.7497  -15.8805 H   0  0  0  0  0  0  0  0  0  0  0  0
   11.3329    5.0859  -15.2401 H   0  0  0  0  0  0  0  0  0  0  0  0
    9.1531    5.6370  -14.2671 H   0  0  0  0  0  0  0  0  0  0  0  0
   12.2714   10.2594   -6.0684 H   0  0  0  0  0  0  0  0  0  0  0  0
   12.9621    9.9994   -3.7039 H   0  0  0  0  0  0  0  0  0  0  0  0
    7.8075    6.8554  -12.3523 H   0  0  0  0  0  0  0  0  0  0  0  0
  2  1  2  0
  3  2  1  0
  4  3  1  0
  5  4  1  0
  6  5  1  0
  7  6  2  0
  8  7  1  0
  9  8  1  0
 10  9  1  0
 11 10  1  0
 12 11  1  0
 13 12  1  0
 14 13  1  0
 15 14  1  0
 16 15  1  0
 17 16  1  0
 18 17  2  0
 19 18  1  0
 20 19  1  0
 21 20  1  0
 22 21  2  0
 23 22  1  0
 24 23  2  0
 25 24  1  0
 26 21  1  0
 26 25  2  0
 27 19  1  0
 28 27  2  0
 29 28  1  0
 30 29  2  0
 31 30  1  0
 32 17  1  0
 32 27  1  0
 32 31  2  0
 33  8  2  0
 34  5  2  0
 34 33  1  0
 35  2  1  0
 35 34  1  0
 36  3  1  0
 37  3  1  0
 38  4  1  0
 39  4  1  0
 40  6  1  0
 41  7  1  0
 42 10  1  0
 43 10  1  0
 44 11  1  0
 45 11  1  0
 46 12  1  0
 47 12  1  0
 48 13  1  0
 49 13  1  0
 50 14  1  0
 51 15  1  0
 52 15  1  0
 53 16  1  0
 54 16  1  0
 55 18  1  0
 56 20  1  0
 57 20  1  0
 58 22  1  0
 59 23  1  0
 60 24  1  0
 61 25  1  0
 62 26  1  0
 63 28  1  0
 64 29  1  0
 65 30  1  0
 66 31  1  0
 67 33  1  0
 68 35  1  0
 69 14  1  0
M  CHG  1  14   1
M  END
>  <b_m_subgroup_collapsed>  (258) 
0

>  <r_i_docking_score>  (258) 
-8.4075469080357799

>  <s_m_subgroup_title>  (258) 
glide-dock_SP_D22_pv

>  <s_m_subgroupid>  (258) 
glide-dock_SP_D22_pv

>  <Molecule ChEMBL ID>  (258) 
CHEMBL3409235

>  <Standard Type>  (258) 
Ki

>  <Standard Value>  (258) 
70.0

>  <label>  (258) 
1

$$$$
CHEMBL423706
     RDKit          3D

 59 62  0  0  1  0  0  0  0  0999 V2000
    8.2078    3.4191  -14.0326 O   0  0  0  0  0  0  0  0  0  0  0  0
    7.0163    3.1784  -13.8473 C   0  0  0  0  0  0  0  0  0  0  0  0
    6.0696    4.3115  -13.4038 C   0  0  0  0  0  0  0  0  0  0  0  0
    6.5870    5.1302  -12.2081 C   0  0  0  0  0  0  0  0  0  0  0  0
    7.7497    6.1060  -12.5269 C   0  0  0  0  0  0  0  0  0  0  0  0
    8.4858    6.5365  -11.3144 N   0  0  2  0  0  0  0  0  0  0  0  0
    9.2842    7.7693  -11.5227 C   0  0  0  0  0  0  0  0  0  0  0  0
    9.8737    8.2607  -10.1900 C   0  0  0  0  0  0  0  0  0  0  0  0
   10.7235    7.1649   -9.5184 C   0  0  1  0  0  0  0  0  0  0  0  0
   11.3370    7.6256   -8.1854 C   0  0  0  0  0  0  0  0  0  0  0  0
   10.3431    7.6801   -7.0196 C   0  0  0  0  0  0  0  0  0  0  0  0
   10.8659    8.5052   -5.9015 C   0  0  0  0  0  0  0  0  0  0  0  0
   10.8857    9.8707   -5.8898 C   0  0  0  0  0  0  0  0  0  0  0  0
   11.2859   10.2927   -4.6456 N   0  0  0  0  0  0  0  0  0  0  0  0
   11.6856    9.2313   -3.8714 C   0  0  0  0  0  0  0  0  0  0  0  0
   12.2183    9.1621   -2.5785 C   0  0  0  0  0  0  0  0  0  0  0  0
   12.4860    7.9075   -2.0173 C   0  0  0  0  0  0  0  0  0  0  0  0
   12.2125    6.7361   -2.7474 C   0  0  0  0  0  0  0  0  0  0  0  0
   11.6860    6.8178   -4.0519 C   0  0  0  0  0  0  0  0  0  0  0  0
   11.4128    8.0700   -4.6475 C   0  0  0  0  0  0  0  0  0  0  0  0
    9.8874    5.8811   -9.3726 C   0  0  0  0  0  0  0  0  0  0  0  0
    9.3008    5.4470  -10.7154 C   0  0  0  0  0  0  0  0  0  0  0  0
    6.4306    1.8408  -14.1300 C   0  0  0  0  0  0  0  0  0  0  0  0
    7.0364    1.0151  -15.1063 C   0  0  0  0  0  0  0  0  0  0  0  0
    6.4606   -0.2233  -15.4520 C   0  0  0  0  0  0  0  0  0  0  0  0
    5.2827   -0.6520  -14.8179 C   0  0  0  0  0  0  0  0  0  0  0  0
    4.7150   -1.8271  -15.1700 F   0  0  0  0  0  0  0  0  0  0  0  0
    4.6964    0.1419  -13.8171 C   0  0  0  0  0  0  0  0  0  0  0  0
    5.2845    1.3663  -13.4467 C   0  0  0  0  0  0  0  0  0  0  0  0
    5.8968    4.9720  -14.2469 H   0  0  0  0  0  0  0  0  0  0  0  0
    5.0891    3.9159  -13.1534 H   0  0  0  0  0  0  0  0  0  0  0  0
    5.7619    5.7093  -11.7907 H   0  0  0  0  0  0  0  0  0  0  0  0
    6.8437    4.4169  -11.4294 H   0  0  0  0  0  0  0  0  0  0  0  0
    8.4730    5.6969  -13.2283 H   0  0  0  0  0  0  0  0  0  0  0  0
    7.3246    6.9806  -13.0206 H   0  0  0  0  0  0  0  0  0  0  0  0
   10.0781    7.5795  -12.2472 H   0  0  0  0  0  0  0  0  0  0  0  0
    8.6489    8.5521  -11.9402 H   0  0  0  0  0  0  0  0  0  0  0  0
   10.4855    9.1463  -10.3595 H   0  0  0  0  0  0  0  0  0  0  0  0
    9.0587    8.5707   -9.5346 H   0  0  0  0  0  0  0  0  0  0  0  0
   11.5565    6.9610  -10.1918 H   0  0  0  0  0  0  0  0  0  0  0  0
   12.1548    6.9733   -7.8850 H   0  0  0  0  0  0  0  0  0  0  0  0
   11.7868    8.6072   -8.3407 H   0  0  0  0  0  0  0  0  0  0  0  0
    9.3919    8.0990   -7.3452 H   0  0  0  0  0  0  0  0  0  0  0  0
   10.1183    6.6717   -6.6688 H   0  0  0  0  0  0  0  0  0  0  0  0
   10.5691   10.5719   -6.6463 H   0  0  0  0  0  0  0  0  0  0  0  0
   11.3224   11.2648   -4.3739 H   0  0  0  0  0  0  0  0  0  0  0  0
   12.4111   10.0640   -2.0169 H   0  0  0  0  0  0  0  0  0  0  0  0
   12.8869    7.8434   -1.0200 H   0  0  0  0  0  0  0  0  0  0  0  0
   12.4035    5.7723   -2.2997 H   0  0  0  0  0  0  0  0  0  0  0  0
   11.4717    5.9115   -4.5987 H   0  0  0  0  0  0  0  0  0  0  0  0
   10.4855    5.0747   -8.9498 H   0  0  0  0  0  0  0  0  0  0  0  0
    9.0579    6.0401   -8.6818 H   0  0  0  0  0  0  0  0  0  0  0  0
    8.7136    4.5505  -10.5370 H   0  0  0  0  0  0  0  0  0  0  0  0
   10.0860    5.1593  -11.4118 H   0  0  0  0  0  0  0  0  0  0  0  0
    7.9298    1.3416  -15.6202 H   0  0  0  0  0  0  0  0  0  0  0  0
    6.9076   -0.8404  -16.2166 H   0  0  0  0  0  0  0  0  0  0  0  0
    3.7887   -0.1925  -13.3383 H   0  0  0  0  0  0  0  0  0  0  0  0
    4.8156    1.9420  -12.6636 H   0  0  0  0  0  0  0  0  0  0  0  0
    7.7623    6.8175  -10.6478 H   0  0  0  0  0  0  0  0  0  0  0  0
  2  1  2  0
  3  2  1  0
  4  3  1  0
  5  4  1  0
  6  5  1  0
  7  6  1  0
  8  7  1  0
  9  8  1  0
 10  9  1  0
 11 10  1  0
 12 11  1  0
 13 12  2  0
 14 13  1  0
 15 14  1  0
 16 15  2  0
 17 16  1  0
 18 17  2  0
 19 18  1  0
 20 12  1  0
 20 15  1  0
 20 19  2  0
 21  9  1  0
 22  6  1  0
 22 21  1  0
 23  2  1  0
 24 23  1  0
 25 24  2  0
 26 25  1  0
 27 26  1  0
 28 26  2  0
 29 23  2  0
 29 28  1  0
 30  3  1  0
 31  3  1  0
 32  4  1  0
 33  4  1  0
 34  5  1  0
 35  5  1  0
 36  7  1  0
 37  7  1  0
 38  8  1  0
 39  8  1  0
  9 40  1  6
 41 10  1  0
 42 10  1  0
 43 11  1  0
 44 11  1  0
 45 13  1  0
 46 14  1  0
 47 16  1  0
 48 17  1  0
 49 18  1  0
 50 19  1  0
 51 21  1  0
 52 21  1  0
 53 22  1  0
 54 22  1  0
 55 24  1  0
 56 25  1  0
 57 28  1  0
 58 29  1  0
  6 59  1  1
M  CHG  1   6   1
M  END
>  <b_m_subgroup_collapsed>  (259) 
0

>  <r_i_docking_score>  (259) 
-8.4046557413545493

>  <s_m_subgroup_title>  (259) 
glide-dock_SP_D22_pv

>  <s_m_subgroupid>  (259) 
glide-dock_SP_D22_pv

>  <Molecule ChEMBL ID>  (259) 
CHEMBL423706

>  <Standard Type>  (259) 
Ki

>  <Standard Value>  (259) 
40.0

>  <label>  (259) 
1

$$$$
CHEMBL303979
     RDKit          3D

 40 43  0  0  1  0  0  0  0  0999 V2000
   11.8695    6.8783   -2.9199 F   0  0  0  0  0  0  0  0  0  0  0  0
   11.6862    7.5819   -4.0623 C   0  0  0  0  0  0  0  0  0  0  0  0
   12.1205    8.9188   -4.1410 C   0  0  0  0  0  0  0  0  0  0  0  0
   11.9632    9.6381   -5.3408 C   0  0  0  0  0  0  0  0  0  0  0  0
   11.3653    9.0359   -6.4577 C   0  0  0  0  0  0  0  0  0  0  0  0
   10.8753    7.7122   -6.3624 C   0  0  0  0  0  0  0  0  0  0  0  0
   11.0508    6.9792   -5.1691 C   0  0  0  0  0  0  0  0  0  0  0  0
   10.2915    7.0957   -7.6139 C   0  0  1  0  0  0  0  0  0  0  0  0
    8.9814    6.3221   -7.5975 C   0  0  0  0  0  0  0  0  0  0  0  0
    8.6431    6.2040   -9.0462 N   0  0  2  0  0  0  0  0  0  0  0  0
    8.7943    4.8293   -9.5676 C   0  0  0  0  0  0  0  0  0  0  0  0
    8.5791    4.7327  -11.0694 C   0  0  0  0  0  0  0  0  0  0  0  0
    9.5834    4.1739  -11.8823 C   0  0  0  0  0  0  0  0  0  0  0  0
    9.4070    4.0546  -13.2687 C   0  0  0  0  0  0  0  0  0  0  0  0
    8.2050    4.4865  -13.8466 C   0  0  0  0  0  0  0  0  0  0  0  0
    7.1835    5.0329  -13.0457 C   0  0  0  0  0  0  0  0  0  0  0  0
    7.3756    5.1633  -11.6589 C   0  0  0  0  0  0  0  0  0  0  0  0
    9.4480    7.2295   -9.7718 C   0  0  0  0  0  0  0  0  0  0  0  0
    9.9479    8.1299   -8.6557 C   0  0  2  0  0  0  0  0  0  0  0  0
   11.1394    9.0468   -8.8494 C   0  0  0  0  0  0  0  0  0  0  0  0
   11.2862    9.7688   -7.6226 O   0  0  0  0  0  0  0  0  0  0  0  0
   12.5998    9.3813   -3.2904 H   0  0  0  0  0  0  0  0  0  0  0  0
   12.3362   10.6418   -5.4469 H   0  0  0  0  0  0  0  0  0  0  0  0
   10.7189    5.9550   -5.0988 H   0  0  0  0  0  0  0  0  0  0  0  0
   11.0780    6.4370   -7.9933 H   0  0  0  0  0  0  0  0  0  0  0  0
    9.0851    5.3725   -7.0892 H   0  0  0  0  0  0  0  0  0  0  0  0
    8.1987    6.8881   -7.0869 H   0  0  0  0  0  0  0  0  0  0  0  0
    9.7898    4.4570   -9.3184 H   0  0  0  0  0  0  0  0  0  0  0  0
    8.0861    4.1732   -9.0612 H   0  0  0  0  0  0  0  0  0  0  0  0
   10.4858    3.7994  -11.4404 H   0  0  0  0  0  0  0  0  0  0  0  0
   10.1830    3.6185  -13.8813 H   0  0  0  0  0  0  0  0  0  0  0  0
    8.0866    4.3809  -14.9101 H   0  0  0  0  0  0  0  0  0  0  0  0
    6.2493    5.3633  -13.4728 H   0  0  0  0  0  0  0  0  0  0  0  0
    6.5948    5.5932  -11.0482 H   0  0  0  0  0  0  0  0  0  0  0  0
   10.2954    6.7751  -10.2880 H   0  0  0  0  0  0  0  0  0  0  0  0
    8.8574    7.7681  -10.5140 H   0  0  0  0  0  0  0  0  0  0  0  0
    9.1116    8.7482   -8.3143 H   0  0  0  0  0  0  0  0  0  0  0  0
   12.0517    8.4973   -9.0853 H   0  0  0  0  0  0  0  0  0  0  0  0
   10.9598    9.7514   -9.6622 H   0  0  0  0  0  0  0  0  0  0  0  0
    7.6694    6.4824   -9.1530 H   0  0  0  0  0  0  0  0  0  0  0  0
  2  1  1  0
  3  2  1  0
  4  3  2  0
  5  4  1  0
  6  5  2  0
  7  2  2  0
  7  6  1  0
  8  6  1  0
  9  8  1  0
 10  9  1  0
 11 10  1  0
 12 11  1  0
 13 12  2  0
 14 13  1  0
 15 14  2  0
 16 15  1  0
 17 12  1  0
 17 16  2  0
 18 10  1  0
 19  8  1  0
 19 18  1  0
 20 19  1  0
 21  5  1  0
 21 20  1  0
 22  3  1  0
 23  4  1  0
 24  7  1  0
  8 25  1  6
 26  9  1  0
 27  9  1  0
 28 11  1  0
 29 11  1  0
 30 13  1  0
 31 14  1  0
 32 15  1  0
 33 16  1  0
 34 17  1  0
 35 18  1  0
 36 18  1  0
 19 37  1  1
 38 20  1  0
 39 20  1  0
 10 40  1  1
M  CHG  1  10   1
M  END
>  <b_m_subgroup_collapsed>  (260) 
0

>  <r_i_docking_score>  (260) 
-8.4037390146181306

>  <s_m_subgroup_title>  (260) 
glide-dock_SP_D22_pv

>  <s_m_subgroupid>  (260) 
glide-dock_SP_D22_pv

>  <Molecule ChEMBL ID>  (260) 
CHEMBL303979

>  <Standard Type>  (260) 
Ki

>  <Standard Value>  (260) 
25.12

>  <label>  (260) 
1

$$$$
CHEMBL438980
     RDKit          3D

 62 67  0  0  1  0  0  0  0  0999 V2000
    5.2858    2.3843  -13.1506 O   0  0  0  0  0  0  0  0  0  0  0  0
    6.3709    2.7523  -13.5913 C   0  0  0  0  0  0  0  0  0  0  0  0
    7.0224    2.0247  -14.7714 C   0  0  0  0  0  0  0  0  0  0  0  0
    8.5595    1.9316  -14.6376 C   0  0  1  0  0  0  0  0  0  0  0  0
    9.1668    1.3820  -15.9246 C   0  0  0  0  0  0  0  0  0  0  0  0
    9.6302    0.0493  -15.9719 C   0  0  0  0  0  0  0  0  0  0  0  0
   10.1500   -0.4810  -17.1677 C   0  0  0  0  0  0  0  0  0  0  0  0
   10.2281    0.3232  -18.3204 C   0  0  0  0  0  0  0  0  0  0  0  0
    9.7735    1.6555  -18.2790 C   0  0  0  0  0  0  0  0  0  0  0  0
    9.2378    2.1812  -17.0871 C   0  0  0  0  0  0  0  0  0  0  0  0
    9.1779    3.2442  -14.1470 C   0  0  0  0  0  0  0  0  0  0  0  0
   10.5362    3.5614  -14.3841 C   0  0  0  0  0  0  0  0  0  0  0  0
   11.0923    4.7379  -13.8480 C   0  0  0  0  0  0  0  0  0  0  0  0
   10.3082    5.5876  -13.0470 C   0  0  0  0  0  0  0  0  0  0  0  0
    8.9597    5.2721  -12.7786 C   0  0  0  0  0  0  0  0  0  0  0  0
    8.1491    6.1662  -11.8514 C   0  0  0  0  0  0  0  0  0  0  0  0
    8.2445    5.7315  -10.3711 C   0  0  0  0  0  0  0  0  0  0  0  0
    9.4882    6.0647   -9.6678 N   0  0  0  0  0  0  0  0  0  0  0  0
    9.7854    7.5021   -9.7276 C   0  0  0  0  0  0  0  0  0  0  0  0
   11.0822    7.7872   -8.9521 C   0  0  0  0  0  0  0  0  0  0  0  0
   10.9310    7.4157   -7.5452 N   0  0  0  0  0  0  0  0  0  0  0  0
   11.0505    8.3538   -6.4937 C   0  0  0  0  0  0  0  0  0  0  0  0
   10.8874    9.6261   -6.7794 N   0  0  0  0  0  0  0  0  0  0  0  0
   11.1775   10.5713   -5.4472 S   0  0  0  0  0  0  0  0  0  0  0  0
   11.5683    9.2559   -4.3844 C   0  0  0  0  0  0  0  0  0  0  0  0
   11.9775    9.3071   -3.0426 C   0  0  0  0  0  0  0  0  0  0  0  0
   12.2373    8.1131   -2.3545 C   0  0  0  0  0  0  0  0  0  0  0  0
   12.0873    6.8850   -3.0251 C   0  0  0  0  0  0  0  0  0  0  0  0
   11.6859    6.8522   -4.3771 C   0  0  0  0  0  0  0  0  0  0  0  0
   11.4140    8.0356   -5.1110 C   0  0  0  0  0  0  0  0  0  0  0  0
   10.4651    6.0508   -7.3655 C   0  0  0  0  0  0  0  0  0  0  0  0
    9.2454    5.7431   -8.2550 C   0  0  0  0  0  0  0  0  0  0  0  0
    8.3915    4.1078  -13.3450 C   0  0  0  0  0  0  0  0  0  0  0  0
    7.0440    3.7728  -13.0479 N   0  0  0  0  0  0  0  0  0  0  0  0
    6.7534    2.5720  -15.6734 H   0  0  0  0  0  0  0  0  0  0  0  0
    6.5909    1.0292  -14.8791 H   0  0  0  0  0  0  0  0  0  0  0  0
    8.7745    1.2103  -13.8472 H   0  0  0  0  0  0  0  0  0  0  0  0
    9.5703   -0.5808  -15.0961 H   0  0  0  0  0  0  0  0  0  0  0  0
   10.4870   -1.5062  -17.2012 H   0  0  0  0  0  0  0  0  0  0  0  0
   10.6307   -0.0827  -19.2362 H   0  0  0  0  0  0  0  0  0  0  0  0
    9.8330    2.2733  -19.1617 H   0  0  0  0  0  0  0  0  0  0  0  0
    8.8836    3.2010  -17.0651 H   0  0  0  0  0  0  0  0  0  0  0  0
   11.1620    2.8996  -14.9643 H   0  0  0  0  0  0  0  0  0  0  0  0
   12.1303    4.9774  -14.0297 H   0  0  0  0  0  0  0  0  0  0  0  0
   10.7518    6.4736  -12.6169 H   0  0  0  0  0  0  0  0  0  0  0  0
    8.4245    7.2096  -11.9985 H   0  0  0  0  0  0  0  0  0  0  0  0
    7.0990    6.1426  -12.1464 H   0  0  0  0  0  0  0  0  0  0  0  0
    7.4184    6.1679   -9.8220 H   0  0  0  0  0  0  0  0  0  0  0  0
    8.0827    4.6548  -10.3058 H   0  0  0  0  0  0  0  0  0  0  0  0
    9.9420    7.8219  -10.7547 H   0  0  0  0  0  0  0  0  0  0  0  0
    8.9552    8.0910   -9.3285 H   0  0  0  0  0  0  0  0  0  0  0  0
   11.9008    7.2149   -9.3857 H   0  0  0  0  0  0  0  0  0  0  0  0
   11.3598    8.8342   -9.0716 H   0  0  0  0  0  0  0  0  0  0  0  0
   12.0855   10.2597   -2.5407 H   0  0  0  0  0  0  0  0  0  0  0  0
   12.5510    8.1419   -1.3214 H   0  0  0  0  0  0  0  0  0  0  0  0
   12.2862    5.9586   -2.5049 H   0  0  0  0  0  0  0  0  0  0  0  0
   11.6250    5.8900   -4.8582 H   0  0  0  0  0  0  0  0  0  0  0  0
   11.2862    5.3710   -7.5797 H   0  0  0  0  0  0  0  0  0  0  0  0
   10.1584    5.8898   -6.3359 H   0  0  0  0  0  0  0  0  0  0  0  0
    8.3889    6.3112   -7.8812 H   0  0  0  0  0  0  0  0  0  0  0  0
    8.9880    4.6880   -8.1600 H   0  0  0  0  0  0  0  0  0  0  0  0
    6.5880    4.2962  -12.3142 H   0  0  0  0  0  0  0  0  0  0  0  0
  2  1  2  0
  3  2  1  0
  4  3  1  0
  5  4  1  0
  6  5  2  0
  7  6  1  0
  8  7  2  0
  9  8  1  0
 10  5  1  0
 10  9  2  0
 11  4  1  0
 12 11  2  0
 13 12  1  0
 14 13  2  0
 15 14  1  0
 16 15  1  0
 17 16  1  0
 18 17  1  0
 19 18  1  0
 20 19  1  0
 21 20  1  0
 22 21  1  0
 23 22  2  0
 24 23  1  0
 25 24  1  0
 26 25  2  0
 27 26  1  0
 28 27  2  0
 29 28  1  0
 30 22  1  0
 30 25  1  0
 30 29  2  0
 31 21  1  0
 32 18  1  0
 32 31  1  0
 33 11  1  0
 33 15  2  0
 34  2  1  0
 34 33  1  0
 35  3  1  0
 36  3  1  0
  4 37  1  1
 38  6  1  0
 39  7  1  0
 40  8  1  0
 41  9  1  0
 42 10  1  0
 43 12  1  0
 44 13  1  0
 45 14  1  0
 46 16  1  0
 47 16  1  0
 48 17  1  0
 49 17  1  0
 50 19  1  0
 51 19  1  0
 52 20  1  0
 53 20  1  0
 54 26  1  0
 55 27  1  0
 56 28  1  0
 57 29  1  0
 58 31  1  0
 59 31  1  0
 60 32  1  0
 61 32  1  0
 62 34  1  0
M  END
>  <b_m_subgroup_collapsed>  (261) 
0

>  <r_i_docking_score>  (261) 
-8.4026364199732999

>  <s_m_subgroup_title>  (261) 
glide-dock_SP_D22_pv

>  <s_m_subgroupid>  (261) 
glide-dock_SP_D22_pv

>  <Molecule ChEMBL ID>  (261) 
CHEMBL438980

>  <Standard Type>  (261) 
Ki

>  <Standard Value>  (261) 
15.0

>  <label>  (261) 
1

$$$$
CHEMBL1258833
     RDKit          3D

 57 61  0  0  1  0  0  0  0  0999 V2000
   12.1675    6.0238   -2.5537 C   0  0  0  0  0  0  0  0  0  0  0  0
   12.2133    7.4820   -2.5985 C   0  0  0  0  0  0  0  0  0  0  0  0
   12.4870    8.1723   -1.4475 N   0  0  0  0  0  0  0  0  0  0  0  0
   12.3653    9.4149   -1.8221 C   0  0  0  0  0  0  0  0  0  0  0  0
   12.0444    9.6190   -3.1254 O   0  0  0  0  0  0  0  0  0  0  0  0
   11.9292    8.3538   -3.6144 C   0  0  0  0  0  0  0  0  0  0  0  0
   11.5109    8.1304   -4.9913 C   0  0  0  0  0  0  0  0  0  0  0  0
   11.1810    6.9067   -5.4093 N   0  0  0  0  0  0  0  0  0  0  0  0
   10.8879    7.0181   -6.7373 N   0  0  0  0  0  0  0  0  0  0  0  0
   11.0753    8.3030   -7.0296 C   0  0  0  0  0  0  0  0  0  0  0  0
   10.8824    8.9723   -8.6405 S   0  0  0  0  0  0  0  0  0  0  0  0
   11.3785    7.5524   -9.6489 C   0  0  0  0  0  0  0  0  0  0  0  0
   10.8995    7.7078  -11.1019 C   0  0  0  0  0  0  0  0  0  0  0  0
    9.3881    7.9985  -11.3228 C   0  0  0  0  0  0  0  0  0  0  0  0
    8.4860    6.8223  -11.4219 N   0  0  2  0  0  0  0  0  0  0  0  0
    8.6259    5.7435  -10.4195 C   0  0  0  0  0  0  0  0  0  0  0  0
    8.1124    4.4724  -11.0878 C   0  0  0  0  0  0  0  0  0  0  0  0
    7.5792    4.8977  -12.4545 C   0  0  2  0  0  0  0  0  0  0  0  0
    6.0367    5.0849  -12.4023 C   0  0  0  0  0  0  0  0  0  0  0  0
    5.4166    3.7397  -12.8407 C   0  0  0  0  0  0  0  0  0  0  0  0
    6.5355    3.0789  -13.5988 C   0  0  0  0  0  0  0  0  0  0  0  0
    6.4860    1.8615  -14.2992 C   0  0  0  0  0  0  0  0  0  0  0  0
    7.6723    1.3733  -14.8888 C   0  0  0  0  0  0  0  0  0  0  0  0
    8.8858    2.0866  -14.7525 C   0  0  0  0  0  0  0  0  0  0  0  0
   10.4858    1.3806  -15.5021 Br  0  0  0  0  0  0  0  0  0  0  0  0
    8.9259    3.2966  -14.0257 C   0  0  0  0  0  0  0  0  0  0  0  0
    7.7320    3.7721  -13.4474 C   0  0  0  0  0  0  0  0  0  0  0  0
    8.3545    6.1883  -12.7442 C   0  0  0  0  0  0  0  0  0  0  0  0
   11.4312    9.0559   -5.9700 N   0  0  0  0  0  0  0  0  0  0  0  0
   11.7036   10.4809   -5.9108 C   0  0  0  0  0  0  0  0  0  0  0  0
   11.1313    5.7723   -2.3563 H   0  0  0  0  0  0  0  0  0  0  0  0
   12.4860    5.5806   -3.4931 H   0  0  0  0  0  0  0  0  0  0  0  0
   12.7929    5.6268   -1.7541 H   0  0  0  0  0  0  0  0  0  0  0  0
   12.4860   10.2247   -1.1264 H   0  0  0  0  0  0  0  0  0  0  0  0
   12.4671    7.4981   -9.6307 H   0  0  0  0  0  0  0  0  0  0  0  0
   11.0381    6.6286   -9.1999 H   0  0  0  0  0  0  0  0  0  0  0  0
   11.4572    8.5720  -11.4469 H   0  0  0  0  0  0  0  0  0  0  0  0
   11.2311    6.8726  -11.7183 H   0  0  0  0  0  0  0  0  0  0  0  0
    8.9896    8.6458  -10.5428 H   0  0  0  0  0  0  0  0  0  0  0  0
    9.2723    8.5743  -12.2422 H   0  0  0  0  0  0  0  0  0  0  0  0
    9.6565    5.5344  -10.1695 H   0  0  0  0  0  0  0  0  0  0  0  0
    8.0883    5.9919   -9.5036 H   0  0  0  0  0  0  0  0  0  0  0  0
    8.9604    3.7957  -11.2260 H   0  0  0  0  0  0  0  0  0  0  0  0
    7.3681    3.9366  -10.4982 H   0  0  0  0  0  0  0  0  0  0  0  0
    5.6596    5.4504  -11.4470 H   0  0  0  0  0  0  0  0  0  0  0  0
    5.7458    5.8282  -13.1444 H   0  0  0  0  0  0  0  0  0  0  0  0
    4.5199    3.8725  -13.4454 H   0  0  0  0  0  0  0  0  0  0  0  0
    5.1724    3.1237  -11.9751 H   0  0  0  0  0  0  0  0  0  0  0  0
    5.5670    1.2994  -14.3686 H   0  0  0  0  0  0  0  0  0  0  0  0
    7.6584    0.4361  -15.4265 H   0  0  0  0  0  0  0  0  0  0  0  0
    9.8655    3.8060  -13.8735 H   0  0  0  0  0  0  0  0  0  0  0  0
    7.8443    6.8433  -13.4472 H   0  0  0  0  0  0  0  0  0  0  0  0
    9.3514    5.9716  -13.1293 H   0  0  0  0  0  0  0  0  0  0  0  0
   11.3278   10.9870   -6.7950 H   0  0  0  0  0  0  0  0  0  0  0  0
   11.2096   10.9258   -5.0478 H   0  0  0  0  0  0  0  0  0  0  0  0
   12.7802   10.6347   -5.8466 H   0  0  0  0  0  0  0  0  0  0  0  0
    7.5619    7.2059  -11.1926 H   0  0  0  0  0  0  0  0  0  0  0  0
  2  1  1  0
  3  2  1  0
  4  3  2  0
  5  4  1  0
  6  2  2  0
  6  5  1  0
  7  6  1  0
  8  7  2  0
  9  8  1  0
 10  9  2  0
 11 10  1  0
 12 11  1  0
 13 12  1  0
 14 13  1  0
 15 14  1  0
 16 15  1  0
 17 16  1  0
 18 17  1  1
 19 18  1  0
 20 19  1  0
 21 20  1  0
 22 21  1  0
 23 22  2  0
 24 23  1  0
 25 24  1  0
 26 24  2  0
 27 18  1  0
 27 21  2  0
 27 26  1  0
 28 15  1  0
 28 18  1  0
 29  7  1  0
 29 10  1  0
 30 29  1  0
 31  1  1  0
 32  1  1  0
 33  1  1  0
 34  4  1  0
 35 12  1  0
 36 12  1  0
 37 13  1  0
 38 13  1  0
 39 14  1  0
 40 14  1  0
 41 16  1  0
 42 16  1  0
 43 17  1  0
 44 17  1  0
 45 19  1  0
 46 19  1  0
 47 20  1  0
 48 20  1  0
 49 22  1  0
 50 23  1  0
 51 26  1  0
 52 28  1  0
 53 28  1  0
 54 30  1  0
 55 30  1  0
 56 30  1  0
 15 57  1  1
M  CHG  1  15   1
M  END
>  <b_m_subgroup_collapsed>  (262) 
0

>  <r_i_docking_score>  (262) 
-8.4007223271375295

>  <s_m_subgroup_title>  (262) 
glide-dock_SP_D22_pv

>  <s_m_subgroupid>  (262) 
glide-dock_SP_D22_pv

>  <Molecule ChEMBL ID>  (262) 
CHEMBL1258833

>  <Standard Type>  (262) 
Ki

>  <Standard Value>  (262) 
39.81

>  <label>  (262) 
1

$$$$
CHEMBL5723006
     RDKit          3D

 43 44  0  0  1  0  0  0  0  0999 V2000
    9.2074    4.3233  -11.5539 C   0  0  0  0  0  0  0  0  0  0  0  0
    8.8681    5.7474  -11.1004 C   0  0  0  0  0  0  0  0  0  0  0  0
    8.1744    6.5030  -12.2417 C   0  0  0  0  0  0  0  0  0  0  0  0
   10.1518    6.4457  -10.6000 C   0  0  0  0  0  0  0  0  0  0  0  0
    9.9841    7.8571  -10.0068 C   0  0  2  0  0  0  0  0  0  0  0  0
   11.3358    8.4676   -9.5641 C   0  0  0  0  0  0  0  0  0  0  0  0
   12.2358    8.5721  -10.6467 O   0  0  0  0  0  0  0  0  0  0  0  0
    8.9609    7.8827   -8.9298 N   0  0  0  0  0  0  0  0  0  0  0  0
    9.1999    7.0787   -7.7022 C   0  0  0  0  0  0  0  0  0  0  0  0
   10.0812    7.7798   -6.6745 C   0  0  0  0  0  0  0  0  0  0  0  0
   10.1926    9.1195   -6.5817 C   0  0  0  0  0  0  0  0  0  0  0  0
   10.9623    9.7585   -5.4976 C   0  0  0  0  0  0  0  0  0  0  0  0
   11.1157   10.9721   -5.4502 O   0  0  0  0  0  0  0  0  0  0  0  0
   11.4951    8.8511   -4.4568 C   0  0  0  0  0  0  0  0  0  0  0  0
   12.0383    9.3608   -3.2577 C   0  0  0  0  0  0  0  0  0  0  0  0
   12.4863    8.4756   -2.2636 C   0  0  0  0  0  0  0  0  0  0  0  0
   13.0055    8.9597   -1.1145 F   0  0  0  0  0  0  0  0  0  0  0  0
   12.4277    7.0869   -2.4755 C   0  0  0  0  0  0  0  0  0  0  0  0
   11.8854    6.5807   -3.6670 C   0  0  0  0  0  0  0  0  0  0  0  0
   11.3903    7.4533   -4.6476 C   0  0  0  0  0  0  0  0  0  0  0  0
   10.7445    6.9508   -5.7841 N   0  0  0  0  0  0  0  0  0  0  0  0
    9.8885    4.3251  -12.4054 H   0  0  0  0  0  0  0  0  0  0  0  0
    9.6905    3.7723  -10.7496 H   0  0  0  0  0  0  0  0  0  0  0  0
    8.3116    3.7751  -11.8470 H   0  0  0  0  0  0  0  0  0  0  0  0
    8.1606    5.6654  -10.2737 H   0  0  0  0  0  0  0  0  0  0  0  0
    8.8319    6.5724  -13.1042 H   0  0  0  0  0  0  0  0  0  0  0  0
    7.2680    5.9855  -12.5569 H   0  0  0  0  0  0  0  0  0  0  0  0
    7.8798    7.5108  -11.9525 H   0  0  0  0  0  0  0  0  0  0  0  0
   10.8536    6.5122  -11.4335 H   0  0  0  0  0  0  0  0  0  0  0  0
   10.6306    5.8154   -9.8501 H   0  0  0  0  0  0  0  0  0  0  0  0
    9.5920    8.5052  -10.7909 H   0  0  0  0  0  0  0  0  0  0  0  0
   11.8120    7.8710   -8.7856 H   0  0  0  0  0  0  0  0  0  0  0  0
   11.1870    9.4727   -9.1687 H   0  0  0  0  0  0  0  0  0  0  0  0
   12.9358    9.1726  -10.4070 H   0  0  0  0  0  0  0  0  0  0  0  0
    8.7806    8.8372   -8.6612 H   0  0  0  0  0  0  0  0  0  0  0  0
    8.2284    6.9314   -7.2276 H   0  0  0  0  0  0  0  0  0  0  0  0
    9.5727    6.0803   -7.9291 H   0  0  0  0  0  0  0  0  0  0  0  0
    9.6860    9.7719   -7.2726 H   0  0  0  0  0  0  0  0  0  0  0  0
   12.0896   10.4239   -3.0704 H   0  0  0  0  0  0  0  0  0  0  0  0
   12.7941    6.4051   -1.7218 H   0  0  0  0  0  0  0  0  0  0  0  0
   11.8412    5.5211   -3.8206 H   0  0  0  0  0  0  0  0  0  0  0  0
   10.6174    5.9479   -5.8425 H   0  0  0  0  0  0  0  0  0  0  0  0
    8.0960    7.5470   -9.3504 H   0  0  0  0  0  0  0  0  0  0  0  0
  2  1  1  0
  3  2  1  0
  4  2  1  0
  5  4  1  0
  6  5  1  0
  7  6  1  0
  8  5  1  0
  9  8  1  0
 10  9  1  0
 11 10  2  0
 12 11  1  0
 13 12  2  0
 14 12  1  0
 15 14  2  0
 16 15  1  0
 17 16  1  0
 18 16  2  0
 19 18  1  0
 20 14  1  0
 20 19  2  0
 21 10  1  0
 21 20  1  0
 22  1  1  0
 23  1  1  0
 24  1  1  0
 25  2  1  0
 26  3  1  0
 27  3  1  0
 28  3  1  0
 29  4  1  0
 30  4  1  0
  5 31  1  6
 32  6  1  0
 33  6  1  0
 34  7  1  0
 35  8  1  0
 36  9  1  0
 37  9  1  0
 38 11  1  0
 39 15  1  0
 40 18  1  0
 41 19  1  0
 42 21  1  0
 43  8  1  0
M  CHG  1   8   1
M  END
>  <b_m_subgroup_collapsed>  (263) 
0

>  <r_i_docking_score>  (263) 
-8.3993188172233406

>  <s_m_subgroup_title>  (263) 
glide-dock_SP_D22_pv

>  <s_m_subgroupid>  (263) 
glide-dock_SP_D22_pv

>  <Molecule ChEMBL ID>  (263) 
CHEMBL5723006

>  <Standard Type>  (263) 
Ki

>  <Standard Value>  (263) 
10000.0

>  <label>  (263) 
0

$$$$
CHEMBL69259
     RDKit          3D

 41 43  0  0  1  0  0  0  0  0999 V2000
    8.3001    5.1702  -10.7498 C   0  0  0  0  0  0  0  0  0  0  0  0
    8.4860    6.1723   -9.6795 N   0  0  2  0  0  0  0  0  0  0  0  0
    9.0705    7.4502  -10.1727 C   0  0  0  0  0  0  0  0  0  0  0  0
    9.1599    8.5229   -9.0452 C   0  0  0  0  0  0  0  0  0  0  0  0
    9.9262    8.0105   -7.8060 C   0  0  2  0  0  0  0  0  0  0  0  0
    9.2640    6.6809   -7.3643 C   0  0  0  0  0  0  0  0  0  0  0  0
    9.1888    5.6333   -8.4918 C   0  0  0  0  0  0  0  0  0  0  0  0
    9.8864    8.9726   -6.7325 O   0  0  0  0  0  0  0  0  0  0  0  0
   11.1984    9.3373   -6.2370 C   0  0  1  0  0  0  0  0  0  0  0  0
   11.3587   10.8641   -6.1145 C   0  0  0  0  0  0  0  0  0  0  0  0
   11.5295    8.6414   -4.8953 C   0  0  0  0  0  0  0  0  0  0  0  0
   11.6860    7.2396   -4.8186 C   0  0  0  0  0  0  0  0  0  0  0  0
   12.0426    6.6139   -3.6098 C   0  0  0  0  0  0  0  0  0  0  0  0
   12.2428    7.3690   -2.4466 C   0  0  0  0  0  0  0  0  0  0  0  0
   12.0860    8.7610   -2.4929 C   0  0  0  0  0  0  0  0  0  0  0  0
   11.7174    9.3846   -3.6983 C   0  0  0  0  0  0  0  0  0  0  0  0
   12.1255    8.9720   -7.3922 C   0  0  0  0  0  0  0  0  0  0  0  0
   11.3970    7.9359   -8.1620 C   0  0  0  0  0  0  0  0  0  0  0  0
   11.8625    7.3723   -9.1426 O   0  0  0  0  0  0  0  0  0  0  0  0
    9.2589    4.8315  -11.1442 H   0  0  0  0  0  0  0  0  0  0  0  0
    7.7551    4.3031  -10.3749 H   0  0  0  0  0  0  0  0  0  0  0  0
    7.7181    5.5926  -11.5697 H   0  0  0  0  0  0  0  0  0  0  0  0
    8.4860    7.8475  -10.9993 H   0  0  0  0  0  0  0  0  0  0  0  0
   10.0343    7.2454  -10.6320 H   0  0  0  0  0  0  0  0  0  0  0  0
    8.1670    8.8467   -8.7364 H   0  0  0  0  0  0  0  0  0  0  0  0
    9.6356    9.4197   -9.4446 H   0  0  0  0  0  0  0  0  0  0  0  0
    9.7534    6.2398   -6.5026 H   0  0  0  0  0  0  0  0  0  0  0  0
    8.2501    6.8994   -7.0243 H   0  0  0  0  0  0  0  0  0  0  0  0
    8.6527    4.7544   -8.1317 H   0  0  0  0  0  0  0  0  0  0  0  0
   10.1871    5.2952   -8.7731 H   0  0  0  0  0  0  0  0  0  0  0  0
   12.3876   11.0844   -5.8469 H   0  0  0  0  0  0  0  0  0  0  0  0
   11.2860   11.3989   -7.0468 H   0  0  0  0  0  0  0  0  0  0  0  0
   10.6691   11.3115   -5.3997 H   0  0  0  0  0  0  0  0  0  0  0  0
   11.6154    6.6245   -5.6980 H   0  0  0  0  0  0  0  0  0  0  0  0
   12.1982    5.5503   -3.5815 H   0  0  0  0  0  0  0  0  0  0  0  0
   12.5331    6.8791   -1.5301 H   0  0  0  0  0  0  0  0  0  0  0  0
   12.2384    9.3543   -1.6024 H   0  0  0  0  0  0  0  0  0  0  0  0
   11.6028   10.4553   -3.6595 H   0  0  0  0  0  0  0  0  0  0  0  0
   12.0883    9.7719   -8.1185 H   0  0  0  0  0  0  0  0  0  0  0  0
   13.1665    8.7886   -7.1513 H   0  0  0  0  0  0  0  0  0  0  0  0
    7.5500    6.4464   -9.3875 H   0  0  0  0  0  0  0  0  0  0  0  0
  2  1  1  0
  3  2  1  0
  4  3  1  0
  5  4  1  0
  6  5  1  0
  7  2  1  0
  7  6  1  0
  5  8  1  1
  9  8  1  0
  9 10  1  1
 11  9  1  0
 12 11  2  0
 13 12  1  0
 14 13  2  0
 15 14  1  0
 16 11  1  0
 16 15  2  0
 17  9  1  0
 18  5  1  0
 18 17  1  0
 19 18  2  0
 20  1  1  0
 21  1  1  0
 22  1  1  0
 23  3  1  0
 24  3  1  0
 25  4  1  0
 26  4  1  0
 27  6  1  0
 28  6  1  0
 29  7  1  0
 30  7  1  0
 31 10  1  0
 32 10  1  0
 33 10  1  0
 34 12  1  0
 35 13  1  0
 36 14  1  0
 37 15  1  0
 38 16  1  0
 39 17  1  0
 40 17  1  0
  2 41  1  1
M  CHG  1   2   1
M  END
>  <b_m_subgroup_collapsed>  (264) 
0

>  <r_i_docking_score>  (264) 
-8.38983070518014

>  <s_m_subgroup_title>  (264) 
glide-dock_SP_D22_pv

>  <s_m_subgroupid>  (264) 
glide-dock_SP_D22_pv

>  <Molecule ChEMBL ID>  (264) 
CHEMBL69259

>  <Standard Type>  (264) 
Ki

>  <Standard Value>  (264) 
10000.0

>  <label>  (264) 
0

$$$$
CHEMBL3115579
     RDKit          3D

 53 55  0  0  1  0  0  0  0  0999 V2000
    7.9194   -0.2277  -15.9831 O   0  0  0  0  0  0  0  0  0  0  0  0
    7.3203    0.6552  -15.1312 C   0  0  0  0  0  0  0  0  0  0  0  0
    6.1868    0.2717  -14.3872 C   0  0  0  0  0  0  0  0  0  0  0  0
    5.5686    1.1989  -13.5277 C   0  0  0  0  0  0  0  0  0  0  0  0
    6.0857    2.5050  -13.3995 C   0  0  0  0  0  0  0  0  0  0  0  0
    7.2548    2.8778  -14.1059 C   0  0  0  0  0  0  0  0  0  0  0  0
    7.8459    1.9569  -14.9937 C   0  0  0  0  0  0  0  0  0  0  0  0
    7.8417    4.1123  -13.9352 O   0  0  0  0  0  0  0  0  0  0  0  0
    7.5421    4.7949  -12.7174 C   0  0  1  0  0  0  0  0  0  0  0  0
    8.2438    6.1614  -12.7818 C   0  0  0  0  0  0  0  0  0  0  0  0
    8.4860    6.7544  -11.4469 N   0  0  0  0  0  0  0  0  0  0  0  0
    9.2849    7.9938  -11.4935 C   0  0  0  0  0  0  0  0  0  0  0  0
   10.0150    8.2257  -10.1865 C   0  0  0  0  0  0  0  0  0  0  0  0
   11.4221    8.1721  -10.1277 C   0  0  0  0  0  0  0  0  0  0  0  0
   12.0854    8.4656   -8.9208 C   0  0  0  0  0  0  0  0  0  0  0  0
   11.3576    8.8068   -7.7628 C   0  0  0  0  0  0  0  0  0  0  0  0
   12.0707    9.1718   -6.6472 O   0  0  0  0  0  0  0  0  0  0  0  0
   11.4779   10.1124   -5.7592 C   0  0  0  0  0  0  0  0  0  0  0  0
   11.3301    9.4946   -4.3654 C   0  0  0  0  0  0  0  0  0  0  0  0
   12.6729    9.2425   -3.6639 C   0  0  0  0  0  0  0  0  0  0  0  0
   12.4918    8.7189   -2.2348 C   0  0  0  0  0  0  0  0  0  0  0  0
   11.9989    7.4806   -2.2473 F   0  0  0  0  0  0  0  0  0  0  0  0
    9.9457    8.7734   -7.8070 C   0  0  0  0  0  0  0  0  0  0  0  0
    9.2860    8.5198   -9.0186 C   0  0  0  0  0  0  0  0  0  0  0  0
    6.0195    4.8951  -12.5578 C   0  0  0  0  0  0  0  0  0  0  0  0
    5.4125    3.4920  -12.4605 C   0  0  0  0  0  0  0  0  0  0  0  0
    7.6867   -1.1454  -15.8472 H   0  0  0  0  0  0  0  0  0  0  0  0
    5.7789   -0.7243  -14.4860 H   0  0  0  0  0  0  0  0  0  0  0  0
    4.6901    0.9063  -12.9746 H   0  0  0  0  0  0  0  0  0  0  0  0
    8.7256    2.2400  -15.5525 H   0  0  0  0  0  0  0  0  0  0  0  0
    7.9683    4.2145  -11.8972 H   0  0  0  0  0  0  0  0  0  0  0  0
    9.2140    6.0180  -13.2569 H   0  0  0  0  0  0  0  0  0  0  0  0
    7.6879    6.8572  -13.4120 H   0  0  0  0  0  0  0  0  0  0  0  0
    7.5999    7.0029  -10.9893 H   0  0  0  0  0  0  0  0  0  0  0  0
   10.0178    7.9403  -12.2989 H   0  0  0  0  0  0  0  0  0  0  0  0
    8.6305    8.8388  -11.7127 H   0  0  0  0  0  0  0  0  0  0  0  0
   12.0039    7.9489  -11.0102 H   0  0  0  0  0  0  0  0  0  0  0  0
   13.1671    8.4753   -8.8965 H   0  0  0  0  0  0  0  0  0  0  0  0
   12.1355   10.9733   -5.7338 H   0  0  0  0  0  0  0  0  0  0  0  0
   10.5190   10.5186   -6.0871 H   0  0  0  0  0  0  0  0  0  0  0  0
   10.7227   10.1605   -3.7526 H   0  0  0  0  0  0  0  0  0  0  0  0
   10.7830    8.5584   -4.4513 H   0  0  0  0  0  0  0  0  0  0  0  0
   13.2858    8.5496   -4.2465 H   0  0  0  0  0  0  0  0  0  0  0  0
   13.2396   10.1710   -3.6165 H   0  0  0  0  0  0  0  0  0  0  0  0
   13.4402    8.6876   -1.6981 H   0  0  0  0  0  0  0  0  0  0  0  0
   11.8081    9.3446   -1.6594 H   0  0  0  0  0  0  0  0  0  0  0  0
    9.3435    8.9731   -6.9348 H   0  0  0  0  0  0  0  0  0  0  0  0
    8.2109    8.5689   -9.0372 H   0  0  0  0  0  0  0  0  0  0  0  0
    5.7460    5.4914  -11.6861 H   0  0  0  0  0  0  0  0  0  0  0  0
    5.6061    5.4042  -13.4283 H   0  0  0  0  0  0  0  0  0  0  0  0
    4.3434    3.5269  -12.6622 H   0  0  0  0  0  0  0  0  0  0  0  0
    5.5351    3.1143  -11.4472 H   0  0  0  0  0  0  0  0  0  0  0  0
    8.9692    6.0848  -10.8661 H   0  0  0  0  0  0  0  0  0  0  0  0
  2  1  1  0
  3  2  1  0
  4  3  2  0
  5  4  1  0
  6  5  2  0
  7  2  2  0
  7  6  1  0
  8  6  1  0
  9  8  1  0
 10  9  1  0
 11 10  1  0
 12 11  1  0
 13 12  1  0
 14 13  1  0
 15 14  2  0
 16 15  1  0
 17 16  1  0
 18 17  1  0
 19 18  1  0
 20 19  1  0
 21 20  1  0
 22 21  1  0
 23 16  2  0
 24 13  2  0
 24 23  1  0
 25  9  1  0
 26  5  1  0
 26 25  1  0
 27  1  1  0
 28  3  1  0
 29  4  1  0
 30  7  1  0
  9 31  1  1
 32 10  1  0
 33 10  1  0
 34 11  1  0
 35 12  1  0
 36 12  1  0
 37 14  1  0
 38 15  1  0
 39 18  1  0
 40 18  1  0
 41 19  1  0
 42 19  1  0
 43 20  1  0
 44 20  1  0
 45 21  1  0
 46 21  1  0
 47 23  1  0
 48 24  1  0
 49 25  1  0
 50 25  1  0
 51 26  1  0
 52 26  1  0
 53 11  1  0
M  CHG  1  11   1
M  END
>  <b_m_subgroup_collapsed>  (265) 
0

>  <r_i_docking_score>  (265) 
-8.3893865747023

>  <s_m_subgroup_title>  (265) 
glide-dock_SP_D22_pv

>  <s_m_subgroupid>  (265) 
glide-dock_SP_D22_pv

>  <Molecule ChEMBL ID>  (265) 
CHEMBL3115579

>  <Standard Type>  (265) 
Ki

>  <Standard Value>  (265) 
5.6

>  <label>  (265) 
1

$$$$
CHEMBL247058
     RDKit          3D

 54 57  0  0  1  0  0  0  0  0999 V2000
   12.4754    6.2857   -1.8307 C   0  0  0  0  0  0  0  0  0  0  0  0
   12.4860    6.1723   -3.2119 O   0  0  0  0  0  0  0  0  0  0  0  0
   11.9717    7.1997   -3.9307 C   0  0  0  0  0  0  0  0  0  0  0  0
   12.0867    8.5667   -3.5932 C   0  0  0  0  0  0  0  0  0  0  0  0
   11.5967    9.5249   -4.4916 C   0  0  0  0  0  0  0  0  0  0  0  0
   11.0037    9.1010   -5.6896 C   0  0  0  0  0  0  0  0  0  0  0  0
   10.4861    9.7723   -6.7538 N   0  0  0  0  0  0  0  0  0  0  0  0
    9.8938    8.9113   -7.6617 C   0  0  0  0  0  0  0  0  0  0  0  0
   10.1402    7.6205   -7.2669 C   0  0  0  0  0  0  0  0  0  0  0  0
    9.7784    6.3087   -7.9116 C   0  0  0  0  0  0  0  0  0  0  0  0
    9.1572    6.4212   -9.2501 N   0  0  2  0  0  0  0  0  0  0  0  0
    8.6522    5.1199   -9.7468 C   0  0  0  0  0  0  0  0  0  0  0  0
    7.7522    5.3266  -10.9728 C   0  0  0  0  0  0  0  0  0  0  0  0
    8.3608    6.2312  -12.0720 C   0  0  2  0  0  0  0  0  0  0  0  0
    7.2411    6.8639  -12.6496 O   0  0  0  0  0  0  0  0  0  0  0  0
    9.1188    5.3692  -13.0955 C   0  0  0  0  0  0  0  0  0  0  0  0
    8.4007    4.4005  -13.8351 C   0  0  0  0  0  0  0  0  0  0  0  0
    9.0577    3.5368  -14.7304 C   0  0  0  0  0  0  0  0  0  0  0  0
   10.4471    3.6473  -14.9187 C   0  0  0  0  0  0  0  0  0  0  0  0
   11.2851    2.5719  -16.0363 S   0  0  0  0  0  0  0  0  0  0  0  0
   10.6766    0.9041  -15.6620 C   0  0  0  0  0  0  0  0  0  0  0  0
   11.1738    4.6263  -14.2171 C   0  0  0  0  0  0  0  0  0  0  0  0
   10.5151    5.4778  -13.3086 C   0  0  0  0  0  0  0  0  0  0  0  0
    9.1673    7.4231  -11.4832 C   0  0  0  0  0  0  0  0  0  0  0  0
   10.0293    7.0301  -10.2834 C   0  0  0  0  0  0  0  0  0  0  0  0
   10.8318    7.7364   -6.0209 C   0  0  0  0  0  0  0  0  0  0  0  0
   11.3409    6.8085   -5.1145 C   0  0  0  0  0  0  0  0  0  0  0  0
   13.0822    5.4756   -1.4279 H   0  0  0  0  0  0  0  0  0  0  0  0
   12.8856    7.2181   -1.4500 H   0  0  0  0  0  0  0  0  0  0  0  0
   11.4583    6.1674   -1.4517 H   0  0  0  0  0  0  0  0  0  0  0  0
   12.5746    8.9022   -2.6912 H   0  0  0  0  0  0  0  0  0  0  0  0
   11.6805   10.5724   -4.2669 H   0  0  0  0  0  0  0  0  0  0  0  0
   10.4644   10.7767   -6.8530 H   0  0  0  0  0  0  0  0  0  0  0  0
    9.3729    9.3005   -8.5260 H   0  0  0  0  0  0  0  0  0  0  0  0
    9.0858    5.7822   -7.2531 H   0  0  0  0  0  0  0  0  0  0  0  0
   10.6636    5.6754   -7.9870 H   0  0  0  0  0  0  0  0  0  0  0  0
    8.0874    4.6108   -8.9656 H   0  0  0  0  0  0  0  0  0  0  0  0
    9.4892    4.4657   -9.9980 H   0  0  0  0  0  0  0  0  0  0  0  0
    6.8230    5.7723  -10.6442 H   0  0  0  0  0  0  0  0  0  0  0  0
    7.4403    4.3584  -11.3638 H   0  0  0  0  0  0  0  0  0  0  0  0
    6.7922    7.3417  -11.9549 H   0  0  0  0  0  0  0  0  0  0  0  0
    7.3322    4.3058  -13.7047 H   0  0  0  0  0  0  0  0  0  0  0  0
    8.4887    2.7994  -15.2756 H   0  0  0  0  0  0  0  0  0  0  0  0
   11.2344    0.1688  -16.2402 H   0  0  0  0  0  0  0  0  0  0  0  0
   10.8057    0.6822  -14.6019 H   0  0  0  0  0  0  0  0  0  0  0  0
    9.6202    0.8079  -15.9127 H   0  0  0  0  0  0  0  0  0  0  0  0
   12.2403    4.7199  -14.3670 H   0  0  0  0  0  0  0  0  0  0  0  0
   11.1116    6.2083  -12.7872 H   0  0  0  0  0  0  0  0  0  0  0  0
    9.7509    7.9312  -12.2508 H   0  0  0  0  0  0  0  0  0  0  0  0
    8.4884    8.1894  -11.1036 H   0  0  0  0  0  0  0  0  0  0  0  0
   10.5501    7.9158   -9.9286 H   0  0  0  0  0  0  0  0  0  0  0  0
   10.8135    6.3307  -10.5611 H   0  0  0  0  0  0  0  0  0  0  0  0
   11.2604    5.7690   -5.3465 H   0  0  0  0  0  0  0  0  0  0  0  0
    8.3394    7.0128   -9.1396 H   0  0  0  0  0  0  0  0  0  0  0  0
  2  1  1  0
  3  2  1  0
  4  3  2  0
  5  4  1  0
  6  5  2  0
  7  6  1  0
  8  7  1  0
  9  8  2  0
 10  9  1  0
 11 10  1  0
 12 11  1  0
 13 12  1  0
 14 13  1  0
 14 15  1  6
 16 14  1  0
 17 16  2  0
 18 17  1  0
 19 18  2  0
 20 19  1  0
 21 20  1  0
 22 19  1  0
 23 16  1  0
 23 22  2  0
 24 14  1  0
 25 11  1  0
 25 24  1  0
 26  6  1  0
 26  9  1  0
 27  3  1  0
 27 26  2  0
 28  1  1  0
 29  1  1  0
 30  1  1  0
 31  4  1  0
 32  5  1  0
 33  7  1  0
 34  8  1  0
 35 10  1  0
 36 10  1  0
 37 12  1  0
 38 12  1  0
 39 13  1  0
 40 13  1  0
 41 15  1  0
 42 17  1  0
 43 18  1  0
 44 21  1  0
 45 21  1  0
 46 21  1  0
 47 22  1  0
 48 23  1  0
 49 24  1  0
 50 24  1  0
 51 25  1  0
 52 25  1  0
 53 27  1  0
 11 54  1  1
M  CHG  1  11   1
M  END
>  <b_m_subgroup_collapsed>  (266) 
0

>  <r_i_docking_score>  (266) 
-8.3876841893119796

>  <s_m_subgroup_title>  (266) 
glide-dock_SP_D22_pv

>  <s_m_subgroupid>  (266) 
glide-dock_SP_D22_pv

>  <Molecule ChEMBL ID>  (266) 
CHEMBL247058

>  <Standard Type>  (266) 
Ki

>  <Standard Value>  (266) 
5.5

>  <label>  (266) 
1

$$$$
CHEMBL1258495
     RDKit          3D

 65 67  0  0  1  0  0  0  0  0999 V2000
    8.0708   -0.2272  -17.3527 C   0  0  0  0  0  0  0  0  0  0  0  0
    6.8435   -0.2276  -16.4649 C   0  0  0  0  0  0  0  0  0  0  0  0
    5.7282   -1.0213  -16.7964 C   0  0  0  0  0  0  0  0  0  0  0  0
    4.5965   -1.0282  -15.9632 C   0  0  0  0  0  0  0  0  0  0  0  0
    4.5567   -0.2277  -14.8023 C   0  0  0  0  0  0  0  0  0  0  0  0
    3.2593   -0.1872  -14.0126 C   0  0  0  0  0  0  0  0  0  0  0  0
    5.6837    0.5723  -14.4558 C   0  0  0  0  0  0  0  0  0  0  0  0
    5.6842    1.4604  -13.2412 C   0  0  0  0  0  0  0  0  0  0  0  0
    5.2860    1.0473  -12.1542 O   0  0  0  0  0  0  0  0  0  0  0  0
    6.1246    2.7143  -13.4472 N   0  0  0  0  0  0  0  0  0  0  0  0
    6.3135    3.7444  -12.4257 C   0  0  0  0  0  0  0  0  0  0  0  0
    7.6486    4.4846  -12.6483 C   0  0  0  0  0  0  0  0  0  0  0  0
    7.9557    5.5813  -11.6081 C   0  0  0  0  0  0  0  0  0  0  0  0
    8.4659    5.0430  -10.2575 C   0  0  0  0  0  0  0  0  0  0  0  0
    8.8162    6.1214   -9.2859 N   0  0  0  0  0  0  0  0  0  0  0  0
    8.6194    5.6757   -7.8841 C   0  0  0  0  0  0  0  0  0  0  0  0
    8.9779    6.7609   -6.8527 C   0  0  0  0  0  0  0  0  0  0  0  0
   10.3300    7.2563   -7.0721 N   0  0  0  0  0  0  0  0  0  0  0  0
   11.0736    7.6827   -5.9394 C   0  0  0  0  0  0  0  0  0  0  0  0
   11.2439    6.7658   -4.8681 C   0  0  0  0  0  0  0  0  0  0  0  0
   11.9139    7.1229   -3.6778 C   0  0  0  0  0  0  0  0  0  0  0  0
   12.0644    6.1723   -2.5233 C   0  0  0  0  0  0  0  0  0  0  0  0
   12.4860    8.3851   -3.5558 C   0  0  0  0  0  0  0  0  0  0  0  0
   12.4133    9.2648   -4.6299 C   0  0  0  0  0  0  0  0  0  0  0  0
   11.6681    8.9718   -5.7861 C   0  0  0  0  0  0  0  0  0  0  0  0
   11.4952   10.1198   -6.7520 C   0  0  0  0  0  0  0  0  0  0  0  0
   10.6095    7.6947   -8.4371 C   0  0  0  0  0  0  0  0  0  0  0  0
   10.1952    6.6406   -9.4864 C   0  0  0  0  0  0  0  0  0  0  0  0
    6.8233    0.5528  -15.2927 C   0  0  0  0  0  0  0  0  0  0  0  0
    8.9791   -0.1964  -16.7502 H   0  0  0  0  0  0  0  0  0  0  0  0
    8.1084   -1.1267  -17.9673 H   0  0  0  0  0  0  0  0  0  0  0  0
    8.0622    0.6416  -18.0111 H   0  0  0  0  0  0  0  0  0  0  0  0
    5.7378   -1.6332  -17.6866 H   0  0  0  0  0  0  0  0  0  0  0  0
    3.7471   -1.6392  -16.2370 H   0  0  0  0  0  0  0  0  0  0  0  0
    3.3633   -0.6743  -13.0469 H   0  0  0  0  0  0  0  0  0  0  0  0
    2.9395    0.8418  -13.8468 H   0  0  0  0  0  0  0  0  0  0  0  0
    2.4562   -0.6867  -14.5535 H   0  0  0  0  0  0  0  0  0  0  0  0
    6.3883    2.9546  -14.3912 H   0  0  0  0  0  0  0  0  0  0  0  0
    5.4801    4.4459  -12.4799 H   0  0  0  0  0  0  0  0  0  0  0  0
    6.2880    3.3112  -11.4261 H   0  0  0  0  0  0  0  0  0  0  0  0
    8.4742    3.7728  -12.6783 H   0  0  0  0  0  0  0  0  0  0  0  0
    7.6192    4.9486  -13.6353 H   0  0  0  0  0  0  0  0  0  0  0  0
    8.6987    6.2577  -12.0305 H   0  0  0  0  0  0  0  0  0  0  0  0
    7.0555    6.1724  -11.4503 H   0  0  0  0  0  0  0  0  0  0  0  0
    7.6860    4.4059   -9.8426 H   0  0  0  0  0  0  0  0  0  0  0  0
    9.3257    4.3882  -10.4093 H   0  0  0  0  0  0  0  0  0  0  0  0
    7.5873    5.3725   -7.7334 H   0  0  0  0  0  0  0  0  0  0  0  0
    9.2460    4.7981   -7.7294 H   0  0  0  0  0  0  0  0  0  0  0  0
    8.2775    7.5951   -6.9242 H   0  0  0  0  0  0  0  0  0  0  0  0
    8.8761    6.3528   -5.8489 H   0  0  0  0  0  0  0  0  0  0  0  0
   10.8348    5.7724   -4.9430 H   0  0  0  0  0  0  0  0  0  0  0  0
   12.4870    6.6710   -1.6525 H   0  0  0  0  0  0  0  0  0  0  0  0
   11.0951    5.7724   -2.2393 H   0  0  0  0  0  0  0  0  0  0  0  0
   12.7455    5.3724   -2.8009 H   0  0  0  0  0  0  0  0  0  0  0  0
   13.0300    8.6680   -2.6657 H   0  0  0  0  0  0  0  0  0  0  0  0
   12.9587   10.1723   -4.5369 H   0  0  0  0  0  0  0  0  0  0  0  0
   12.1714   10.9422   -6.5170 H   0  0  0  0  0  0  0  0  0  0  0  0
   11.6860    9.8382   -7.7793 H   0  0  0  0  0  0  0  0  0  0  0  0
   10.4861   10.5033   -6.6469 H   0  0  0  0  0  0  0  0  0  0  0  0
   10.0674    8.6215   -8.6295 H   0  0  0  0  0  0  0  0  0  0  0  0
   11.6766    7.8867   -8.5538 H   0  0  0  0  0  0  0  0  0  0  0  0
   10.8860    5.8016   -9.4203 H   0  0  0  0  0  0  0  0  0  0  0  0
   10.2990    7.0579  -10.4883 H   0  0  0  0  0  0  0  0  0  0  0  0
    7.6918    1.1455  -15.0420 H   0  0  0  0  0  0  0  0  0  0  0  0
    8.1558    6.8799   -9.4356 H   0  0  0  0  0  0  0  0  0  0  0  0
  2  1  1  0
  3  2  1  0
  4  3  2  0
  5  4  1  0
  6  5  1  0
  7  5  2  0
  8  7  1  0
  9  8  2  0
 10  8  1  0
 11 10  1  0
 12 11  1  0
 13 12  1  0
 14 13  1  0
 15 14  1  0
 16 15  1  0
 17 16  1  0
 18 17  1  0
 19 18  1  0
 20 19  1  0
 21 20  2  0
 22 21  1  0
 23 21  1  0
 24 23  2  0
 25 19  2  0
 25 24  1  0
 26 25  1  0
 27 18  1  0
 28 15  1  0
 28 27  1  0
 29  2  2  0
 29  7  1  0
 30  1  1  0
 31  1  1  0
 32  1  1  0
 33  3  1  0
 34  4  1  0
 35  6  1  0
 36  6  1  0
 37  6  1  0
 38 10  1  0
 39 11  1  0
 40 11  1  0
 41 12  1  0
 42 12  1  0
 43 13  1  0
 44 13  1  0
 45 14  1  0
 46 14  1  0
 47 16  1  0
 48 16  1  0
 49 17  1  0
 50 17  1  0
 51 20  1  0
 52 22  1  0
 53 22  1  0
 54 22  1  0
 55 23  1  0
 56 24  1  0
 57 26  1  0
 58 26  1  0
 59 26  1  0
 60 27  1  0
 61 27  1  0
 62 28  1  0
 63 28  1  0
 64 29  1  0
 65 15  1  0
M  CHG  1  15   1
M  END
>  <b_m_subgroup_collapsed>  (267) 
0

>  <r_i_docking_score>  (267) 
-8.3874129235608699

>  <s_m_subgroup_title>  (267) 
glide-dock_SP_D22_pv

>  <s_m_subgroupid>  (267) 
glide-dock_SP_D22_pv

>  <Molecule ChEMBL ID>  (267) 
CHEMBL1258495

>  <Standard Type>  (267) 
Ki

>  <Standard Value>  (267) 
86.0

>  <label>  (267) 
1

$$$$
CHEMBL2159466
     RDKit          3D

 60 63  0  0  1  0  0  0  0  0999 V2000
   12.3287    9.3733   -7.0283 O   0  0  0  0  0  0  0  0  0  0  0  0
   11.2670    9.6130   -6.0403 S   0  0  0  0  0  0  0  0  0  0  0  0
   10.8897   10.9633   -5.5980 O   0  0  0  0  0  0  0  0  0  0  0  0
    9.8470    8.8409   -6.6472 N   0  0  0  0  0  0  0  0  0  0  0  0
    9.8966    7.7656   -7.6435 C   0  0  1  0  0  0  0  0  0  0  0  0
    8.9334    6.6326   -7.2593 C   0  0  0  0  0  0  0  0  0  0  0  0
    8.8316    5.5671   -8.3741 C   0  0  0  0  0  0  0  0  0  0  0  0
    8.4861    6.1727   -9.6893 N   0  0  2  0  0  0  0  0  0  0  0  0
    8.2670    5.1689  -10.7627 C   0  0  0  0  0  0  0  0  0  0  0  0
    7.3879    5.7084  -11.9144 C   0  0  0  0  0  0  0  0  0  0  0  0
    7.7624    5.0915  -13.1404 O   0  0  0  0  0  0  0  0  0  0  0  0
    7.3262    3.8174  -13.4369 C   0  0  0  0  0  0  0  0  0  0  0  0
    6.0823    3.3028  -12.9927 C   0  0  0  0  0  0  0  0  0  0  0  0
    5.6768    2.0085  -13.3661 C   0  0  0  0  0  0  0  0  0  0  0  0
    6.4901    1.2240  -14.2018 C   0  0  0  0  0  0  0  0  0  0  0  0
    7.7218    1.7318  -14.6495 C   0  0  0  0  0  0  0  0  0  0  0  0
    8.1546    3.0220  -14.2697 C   0  0  0  0  0  0  0  0  0  0  0  0
    9.4642    3.5101  -14.7414 C   0  0  0  0  0  0  0  0  0  0  0  0
    9.7416    3.6245  -16.1218 C   0  0  0  0  0  0  0  0  0  0  0  0
   10.9946    4.0921  -16.5687 C   0  0  0  0  0  0  0  0  0  0  0  0
   11.9881    4.4517  -15.6395 C   0  0  0  0  0  0  0  0  0  0  0  0
   11.7272    4.3375  -14.2612 C   0  0  0  0  0  0  0  0  0  0  0  0
   10.4773    3.8609  -13.8227 C   0  0  0  0  0  0  0  0  0  0  0  0
    9.4772    7.2166  -10.0733 C   0  0  0  0  0  0  0  0  0  0  0  0
    9.5437    8.3341   -9.0223 C   0  0  0  0  0  0  0  0  0  0  0  0
   11.6839    8.6817   -4.5935 C   0  0  0  0  0  0  0  0  0  0  0  0
   11.6860    7.2882   -4.7180 C   0  0  0  0  0  0  0  0  0  0  0  0
   12.0855    6.5167   -3.6333 C   0  0  0  0  0  0  0  0  0  0  0  0
   12.4590    7.1122   -2.4300 C   0  0  0  0  0  0  0  0  0  0  0  0
   12.8860    6.3039   -1.4468 F   0  0  0  0  0  0  0  0  0  0  0  0
   12.4066    8.5115   -2.2698 C   0  0  0  0  0  0  0  0  0  0  0  0
   12.7293    9.0735   -1.0753 F   0  0  0  0  0  0  0  0  0  0  0  0
   12.0141    9.3084   -3.3688 C   0  0  0  0  0  0  0  0  0  0  0  0
    9.0033    8.9177   -6.0795 H   0  0  0  0  0  0  0  0  0  0  0  0
   10.9071    7.3611   -7.6954 H   0  0  0  0  0  0  0  0  0  0  0  0
    9.2558    6.1719   -6.3265 H   0  0  0  0  0  0  0  0  0  0  0  0
    7.9510    7.0468   -7.0451 H   0  0  0  0  0  0  0  0  0  0  0  0
    8.0840    4.8256   -8.0960 H   0  0  0  0  0  0  0  0  0  0  0  0
    9.7794    5.0318   -8.4634 H   0  0  0  0  0  0  0  0  0  0  0  0
    7.7917    4.2711  -10.3603 H   0  0  0  0  0  0  0  0  0  0  0  0
    9.2428    4.8572  -11.1386 H   0  0  0  0  0  0  0  0  0  0  0  0
    7.5679    6.7682  -12.0770 H   0  0  0  0  0  0  0  0  0  0  0  0
    6.3260    5.6417  -11.6810 H   0  0  0  0  0  0  0  0  0  0  0  0
    5.4134    3.8836  -12.3778 H   0  0  0  0  0  0  0  0  0  0  0  0
    4.7259    1.6270  -13.0293 H   0  0  0  0  0  0  0  0  0  0  0  0
    6.1708    0.2357  -14.5005 H   0  0  0  0  0  0  0  0  0  0  0  0
    8.3467    1.1189  -15.2815 H   0  0  0  0  0  0  0  0  0  0  0  0
    8.9876    3.3533  -16.8449 H   0  0  0  0  0  0  0  0  0  0  0  0
   11.1921    4.1770  -17.6282 H   0  0  0  0  0  0  0  0  0  0  0  0
   12.9495    4.8093  -15.9798 H   0  0  0  0  0  0  0  0  0  0  0  0
   12.4893    4.6038  -13.5424 H   0  0  0  0  0  0  0  0  0  0  0  0
   10.2968    3.7575  -12.7643 H   0  0  0  0  0  0  0  0  0  0  0  0
   10.4613    6.7594  -10.1981 H   0  0  0  0  0  0  0  0  0  0  0  0
    9.2219    7.6679  -11.0323 H   0  0  0  0  0  0  0  0  0  0  0  0
   10.2870    9.0752   -9.3179 H   0  0  0  0  0  0  0  0  0  0  0  0
    8.5886    8.8573   -8.9845 H   0  0  0  0  0  0  0  0  0  0  0  0
   11.4487    6.8007   -5.6476 H   0  0  0  0  0  0  0  0  0  0  0  0
   12.1404    5.4481   -3.7351 H   0  0  0  0  0  0  0  0  0  0  0  0
   11.9804   10.3819   -3.2653 H   0  0  0  0  0  0  0  0  0  0  0  0
    7.5973    6.6716   -9.5835 H   0  0  0  0  0  0  0  0  0  0  0  0
  2  1  2  0
  3  2  2  0
  4  2  1  0
  5  4  1  0
  6  5  1  0
  7  6  1  0
  8  7  1  0
  9  8  1  0
 10  9  1  0
 11 10  1  0
 12 11  1  0
 13 12  2  0
 14 13  1  0
 15 14  2  0
 16 15  1  0
 17 12  1  0
 17 16  2  0
 18 17  1  0
 19 18  2  0
 20 19  1  0
 21 20  2  0
 22 21  1  0
 23 18  1  0
 23 22  2  0
 24  8  1  0
 25  5  1  0
 25 24  1  0
 26  2  1  0
 27 26  1  0
 28 27  2  0
 29 28  1  0
 30 29  1  0
 31 29  2  0
 32 31  1  0
 33 26  2  0
 33 31  1  0
 34  4  1  0
  5 35  1  6
 36  6  1  0
 37  6  1  0
 38  7  1  0
 39  7  1  0
 40  9  1  0
 41  9  1  0
 42 10  1  0
 43 10  1  0
 44 13  1  0
 45 14  1  0
 46 15  1  0
 47 16  1  0
 48 19  1  0
 49 20  1  0
 50 21  1  0
 51 22  1  0
 52 23  1  0
 53 24  1  0
 54 24  1  0
 55 25  1  0
 56 25  1  0
 57 27  1  0
 58 28  1  0
 59 33  1  0
  8 60  1  1
M  CHG  1   8   1
M  END
>  <b_m_subgroup_collapsed>  (268) 
0

>  <r_i_docking_score>  (268) 
-8.3833812397210199

>  <s_m_subgroup_title>  (268) 
glide-dock_SP_D22_pv

>  <s_m_subgroupid>  (268) 
glide-dock_SP_D22_pv

>  <Molecule ChEMBL ID>  (268) 
CHEMBL2159466

>  <Standard Type>  (268) 
Ki

>  <Standard Value>  (268) 
63.0

>  <label>  (268) 
1

$$$$
CHEMBL4241050
     RDKit          3D

 66 71  0  0  1  0  0  0  0  0999 V2000
   12.1170    3.7724  -14.2498 O   0  0  0  0  0  0  0  0  0  0  0  0
   11.0355    4.6690  -14.6709 S   0  0  0  0  0  0  0  0  0  0  0  0
   11.2863    6.1172  -14.6869 O   0  0  0  0  0  0  0  0  0  0  0  0
   10.4183    4.1570  -16.3051 C   0  0  0  0  0  0  0  0  0  0  0  0
   10.0092    5.2033  -17.1549 C   0  0  0  0  0  0  0  0  0  0  0  0
    9.4522    4.9377  -18.4133 C   0  0  0  0  0  0  0  0  0  0  0  0
    9.2871    3.6104  -18.8311 C   0  0  0  0  0  0  0  0  0  0  0  0
    9.6998    2.5343  -18.0217 C   0  0  0  0  0  0  0  0  0  0  0  0
    9.4988    1.2791  -18.4823 N   0  0  0  0  0  0  0  0  0  0  0  0
    9.8988    0.2347  -17.7363 C   0  0  0  0  0  0  0  0  0  0  0  0
   10.5550    0.3915  -16.5079 C   0  0  0  0  0  0  0  0  0  0  0  0
   10.7888    1.6910  -16.0303 C   0  0  0  0  0  0  0  0  0  0  0  0
   10.3113    2.8070  -16.7584 C   0  0  0  0  0  0  0  0  0  0  0  0
    9.6997    4.3943  -13.5852 N   0  0  0  0  0  0  0  0  0  0  0  0
    9.2865    3.0346  -13.2821 C   0  0  0  0  0  0  0  0  0  0  0  0
    7.8873    2.9325  -13.8890 C   0  0  0  0  0  0  0  0  0  0  0  0
    7.2924    4.2915  -13.5562 C   0  0  0  0  0  0  0  0  0  0  0  0
    8.4993    5.2511  -13.5945 C   0  0  1  0  0  0  0  0  0  0  0  0
    8.5380    6.2729  -12.4267 C   0  0  0  0  0  0  0  0  0  0  0  0
    8.5613    5.6508  -10.9979 C   0  0  0  0  0  0  0  0  0  0  0  0
    8.8860    6.6080   -9.9050 N   0  0  2  0  0  0  0  0  0  0  0  0
   10.3033    7.0613   -9.9650 C   0  0  0  0  0  0  0  0  0  0  0  0
   10.6749    8.0423   -8.8432 C   0  0  0  0  0  0  0  0  0  0  0  0
   10.3671    7.4511   -7.4557 C   0  0  1  0  0  0  0  0  0  0  0  0
   10.7562    8.3866   -6.3354 C   0  0  0  0  0  0  0  0  0  0  0  0
   10.5260    9.6929   -6.4355 N   0  0  0  0  0  0  0  0  0  0  0  0
   10.9762   10.3108   -5.2374 O   0  0  0  0  0  0  0  0  0  0  0  0
   11.4682    9.3438   -4.3822 C   0  0  0  0  0  0  0  0  0  0  0  0
   11.9998    9.4307   -3.0897 C   0  0  0  0  0  0  0  0  0  0  0  0
   12.3728    8.2300   -2.4551 C   0  0  0  0  0  0  0  0  0  0  0  0
   12.8860    8.2690   -1.2077 F   0  0  0  0  0  0  0  0  0  0  0  0
   12.2066    6.9871   -3.1135 C   0  0  0  0  0  0  0  0  0  0  0  0
   11.6859    6.9315   -4.4270 C   0  0  0  0  0  0  0  0  0  0  0  0
   11.3139    8.1350   -5.0632 C   0  0  0  0  0  0  0  0  0  0  0  0
    8.8872    7.0453   -7.4203 C   0  0  0  0  0  0  0  0  0  0  0  0
    8.5787    6.0496   -8.5585 C   0  0  0  0  0  0  0  0  0  0  0  0
   10.1115    6.2258  -16.8424 H   0  0  0  0  0  0  0  0  0  0  0  0
    9.1352    5.7512  -19.0489 H   0  0  0  0  0  0  0  0  0  0  0  0
    8.8439    3.4106  -19.7948 H   0  0  0  0  0  0  0  0  0  0  0  0
    9.7083   -0.7514  -18.1351 H   0  0  0  0  0  0  0  0  0  0  0  0
   10.8848   -0.4672  -15.9442 H   0  0  0  0  0  0  0  0  0  0  0  0
   11.3390    1.7791  -15.1121 H   0  0  0  0  0  0  0  0  0  0  0  0
    9.9744    2.2767  -13.6255 H   0  0  0  0  0  0  0  0  0  0  0  0
    9.2864    2.9717  -12.1992 H   0  0  0  0  0  0  0  0  0  0  0  0
    7.9598    2.8080  -14.9704 H   0  0  0  0  0  0  0  0  0  0  0  0
    7.2889    2.1041  -13.5095 H   0  0  0  0  0  0  0  0  0  0  0  0
    6.4997    4.5720  -14.2469 H   0  0  0  0  0  0  0  0  0  0  0  0
    6.8378    4.2442  -12.5692 H   0  0  0  0  0  0  0  0  0  0  0  0
    8.4854    5.7729  -14.5495 H   0  0  0  0  0  0  0  0  0  0  0  0
    9.4097    6.8981  -12.5959 H   0  0  0  0  0  0  0  0  0  0  0  0
    7.6824    6.9446  -12.5051 H   0  0  0  0  0  0  0  0  0  0  0  0
    7.5841    5.2206  -10.7825 H   0  0  0  0  0  0  0  0  0  0  0  0
    9.2745    4.8310  -10.9448 H   0  0  0  0  0  0  0  0  0  0  0  0
   10.9189    6.1720   -9.8717 H   0  0  0  0  0  0  0  0  0  0  0  0
   10.5420    7.5269  -10.9193 H   0  0  0  0  0  0  0  0  0  0  0  0
   11.7347    8.2951   -8.9146 H   0  0  0  0  0  0  0  0  0  0  0  0
   10.1238    8.9728   -8.9931 H   0  0  0  0  0  0  0  0  0  0  0  0
   10.9641    6.5445   -7.3467 H   0  0  0  0  0  0  0  0  0  0  0  0
   12.0926   10.3847   -2.5924 H   0  0  0  0  0  0  0  0  0  0  0  0
   12.4864    6.0726   -2.6081 H   0  0  0  0  0  0  0  0  0  0  0  0
   11.5671    5.9805   -4.9275 H   0  0  0  0  0  0  0  0  0  0  0  0
    8.6545    6.5809   -6.4616 H   0  0  0  0  0  0  0  0  0  0  0  0
    8.2531    7.9291   -7.4939 H   0  0  0  0  0  0  0  0  0  0  0  0
    7.5337    5.7722   -8.5060 H   0  0  0  0  0  0  0  0  0  0  0  0
    9.1459    5.1296   -8.4079 H   0  0  0  0  0  0  0  0  0  0  0  0
    8.2510    7.3942  -10.0278 H   0  0  0  0  0  0  0  0  0  0  0  0
  2  1  2  0
  3  2  2  0
  4  2  1  0
  5  4  1  0
  6  5  2  0
  7  6  1  0
  8  7  2  0
  9  8  1  0
 10  9  2  0
 11 10  1  0
 12 11  2  0
 13  4  2  0
 13  8  1  0
 13 12  1  0
 14  2  1  0
 15 14  1  0
 16 15  1  0
 17 16  1  0
 18 14  1  0
 18 17  1  0
 19 18  1  0
 20 19  1  0
 21 20  1  0
 22 21  1  0
 23 22  1  0
 24 23  1  0
 25 24  1  0
 26 25  2  0
 27 26  1  0
 28 27  1  0
 29 28  2  0
 30 29  1  0
 31 30  1  0
 32 30  2  0
 33 32  1  0
 34 25  1  0
 34 28  1  0
 34 33  2  0
 35 24  1  0
 36 21  1  0
 36 35  1  0
 37  5  1  0
 38  6  1  0
 39  7  1  0
 40 10  1  0
 41 11  1  0
 42 12  1  0
 43 15  1  0
 44 15  1  0
 45 16  1  0
 46 16  1  0
 47 17  1  0
 48 17  1  0
 18 49  1  6
 50 19  1  0
 51 19  1  0
 52 20  1  0
 53 20  1  0
 54 22  1  0
 55 22  1  0
 56 23  1  0
 57 23  1  0
 24 58  1  1
 59 29  1  0
 60 32  1  0
 61 33  1  0
 62 35  1  0
 63 35  1  0
 64 36  1  0
 65 36  1  0
 21 66  1  6
M  CHG  1  21   1
M  END
>  <b_m_subgroup_collapsed>  (269) 
0

>  <r_i_docking_score>  (269) 
-8.3833177039189195

>  <s_m_subgroup_title>  (269) 
glide-dock_SP_D22_pv

>  <s_m_subgroupid>  (269) 
glide-dock_SP_D22_pv

>  <Molecule ChEMBL ID>  (269) 
CHEMBL4241050

>  <Standard Type>  (269) 
Ki

>  <Standard Value>  (269) 
1.7

>  <label>  (269) 
1

$$$$
CHEMBL1242950
     RDKit          3D

 54 55  0  0  1  0  0  0  0  0999 V2000
   11.1050    2.3817  -15.5089 C   0  0  0  0  0  0  0  0  0  0  0  0
   11.1883    3.6637  -14.6735 C   0  0  0  0  0  0  0  0  0  0  0  0
    9.8193    4.1041  -14.1335 C   0  0  0  0  0  0  0  0  0  0  0  0
    9.9114    5.3346  -13.2144 C   0  0  0  0  0  0  0  0  0  0  0  0
    8.5441    5.8965  -12.7704 C   0  0  1  0  0  0  0  0  0  0  0  0
    7.7564    4.9486  -11.8361 C   0  0  0  0  0  0  0  0  0  0  0  0
    8.3739    4.8688  -10.4271 C   0  0  0  0  0  0  0  0  0  0  0  0
    8.4861    6.2239   -9.8343 N   0  0  1  0  0  0  0  0  0  0  0  0
    8.8740    6.2652   -8.4050 C   0  0  0  0  0  0  0  0  0  0  0  0
   10.3453    5.8711   -8.1543 C   0  0  0  0  0  0  0  0  0  0  0  0
   10.8194    6.1730   -6.7261 C   0  0  0  0  0  0  0  0  0  0  0  0
   11.1024    7.6488   -6.4208 C   0  0  0  0  0  0  0  0  0  0  0  0
   11.0818    8.4566   -7.3500 O   0  0  0  0  0  0  0  0  0  0  0  0
   11.4392    7.9881   -4.9943 C   0  0  0  0  0  0  0  0  0  0  0  0
   11.6870    6.9311   -4.0775 C   0  0  0  0  0  0  0  0  0  0  0  0
   12.0848    7.1780   -2.7517 C   0  0  0  0  0  0  0  0  0  0  0  0
   12.2362    8.4976   -2.3043 C   0  0  0  0  0  0  0  0  0  0  0  0
   11.9751    9.5603   -3.1836 C   0  0  0  0  0  0  0  0  0  0  0  0
   11.5710    9.3268   -4.5175 C   0  0  0  0  0  0  0  0  0  0  0  0
   11.2868   10.5532   -5.3704 C   0  0  0  0  0  0  0  0  0  0  0  0
    9.2688    7.1598  -10.6797 C   0  0  0  0  0  0  0  0  0  0  0  0
    8.6686    7.2717  -12.0825 C   0  0  0  0  0  0  0  0  0  0  0  0
   12.0880    2.1052  -15.8911 H   0  0  0  0  0  0  0  0  0  0  0  0
   10.7329    1.5466  -14.9167 H   0  0  0  0  0  0  0  0  0  0  0  0
   10.4400    2.5085  -16.3635 H   0  0  0  0  0  0  0  0  0  0  0  0
   11.6172    4.4626  -15.2805 H   0  0  0  0  0  0  0  0  0  0  0  0
   11.8788    3.5001  -13.8474 H   0  0  0  0  0  0  0  0  0  0  0  0
    9.3740    3.2705  -13.5891 H   0  0  0  0  0  0  0  0  0  0  0  0
    9.1557    4.3207  -14.9717 H   0  0  0  0  0  0  0  0  0  0  0  0
   10.4703    6.1172  -13.7306 H   0  0  0  0  0  0  0  0  0  0  0  0
   10.4981    5.0742  -12.3373 H   0  0  0  0  0  0  0  0  0  0  0  0
    7.9576    6.0425  -13.6771 H   0  0  0  0  0  0  0  0  0  0  0  0
    6.7324    5.3159  -11.7455 H   0  0  0  0  0  0  0  0  0  0  0  0
    7.6709    3.9522  -12.2664 H   0  0  0  0  0  0  0  0  0  0  0  0
    9.3541    4.3943  -10.4627 H   0  0  0  0  0  0  0  0  0  0  0  0
    7.7500    4.2358   -9.7969 H   0  0  0  0  0  0  0  0  0  0  0  0
    8.2059    5.6225   -7.8299 H   0  0  0  0  0  0  0  0  0  0  0  0
    8.6857    7.2773   -8.0437 H   0  0  0  0  0  0  0  0  0  0  0  0
   11.0252    6.3757   -8.8359 H   0  0  0  0  0  0  0  0  0  0  0  0
   10.4702    4.8101   -8.3612 H   0  0  0  0  0  0  0  0  0  0  0  0
   11.7432    5.6228   -6.5475 H   0  0  0  0  0  0  0  0  0  0  0  0
   10.0778    5.8175   -6.0147 H   0  0  0  0  0  0  0  0  0  0  0  0
   11.6063    5.8948   -4.3645 H   0  0  0  0  0  0  0  0  0  0  0  0
   12.2749    6.3508   -2.0829 H   0  0  0  0  0  0  0  0  0  0  0  0
   12.5421    8.6988   -1.2882 H   0  0  0  0  0  0  0  0  0  0  0  0
   12.0840   10.5715   -2.8170 H   0  0  0  0  0  0  0  0  0  0  0  0
   10.4860   10.4007   -6.0849 H   0  0  0  0  0  0  0  0  0  0  0  0
   10.9536   11.3724   -4.7381 H   0  0  0  0  0  0  0  0  0  0  0  0
   12.1812   10.8592   -5.9143 H   0  0  0  0  0  0  0  0  0  0  0  0
    9.2832    8.1476  -10.2150 H   0  0  0  0  0  0  0  0  0  0  0  0
   10.3023    6.8335  -10.7720 H   0  0  0  0  0  0  0  0  0  0  0  0
    7.6858    7.7374  -12.0286 H   0  0  0  0  0  0  0  0  0  0  0  0
    9.2903    7.9597  -12.6469 H   0  0  0  0  0  0  0  0  0  0  0  0
    7.5483    6.6397   -9.8555 H   0  0  0  0  0  0  0  0  0  0  0  0
  2  1  1  0
  3  2  1  0
  4  3  1  0
  5  4  1  0
  6  5  1  0
  7  6  1  0
  8  7  1  0
  9  8  1  0
 10  9  1  0
 11 10  1  0
 12 11  1  0
 13 12  2  0
 14 12  1  0
 15 14  2  0
 16 15  1  0
 17 16  2  0
 18 17  1  0
 19 14  1  0
 19 18  2  0
 20 19  1  0
 21  8  1  0
 22  5  1  0
 22 21  1  0
 23  1  1  0
 24  1  1  0
 25  1  1  0
 26  2  1  0
 27  2  1  0
 28  3  1  0
 29  3  1  0
 30  4  1  0
 31  4  1  0
  5 32  1  6
 33  6  1  0
 34  6  1  0
 35  7  1  0
 36  7  1  0
 37  9  1  0
 38  9  1  0
 39 10  1  0
 40 10  1  0
 41 11  1  0
 42 11  1  0
 43 15  1  0
 44 16  1  0
 45 17  1  0
 46 18  1  0
 47 20  1  0
 48 20  1  0
 49 20  1  0
 50 21  1  0
 51 21  1  0
 52 22  1  0
 53 22  1  0
  8 54  1  1
M  CHG  1   8   1
M  END
>  <b_m_subgroup_collapsed>  (270) 
0

>  <r_i_docking_score>  (270) 
-8.3767394297696196

>  <s_m_subgroup_title>  (270) 
glide-dock_SP_D22_pv

>  <s_m_subgroupid>  (270) 
glide-dock_SP_D22_pv

>  <Molecule ChEMBL ID>  (270) 
CHEMBL1242950

>  <Standard Type>  (270) 
Ki

>  <Standard Value>  (270) 
77.0

>  <label>  (270) 
1

$$$$
CHEMBL4470321
     RDKit          3D

 50 52  0  0  1  0  0  0  0  0999 V2000
    6.4724    3.7720  -11.5714 O   0  0  0  0  0  0  0  0  0  0  0  0
    7.5505    4.5552  -12.0086 C   0  0  1  0  0  0  0  0  0  0  0  0
    8.3154    3.8111  -13.1209 C   0  0  0  0  0  0  0  0  0  0  0  0
    7.5885    3.2940  -14.2185 C   0  0  0  0  0  0  0  0  0  0  0  0
    8.2278    2.5559  -15.2335 C   0  0  0  0  0  0  0  0  0  0  0  0
    9.6138    2.3285  -15.1732 C   0  0  0  0  0  0  0  0  0  0  0  0
   10.4027    1.4105  -16.4027 Cl  0  0  0  0  0  0  0  0  0  0  0  0
   10.3523    2.8390  -14.0920 C   0  0  0  0  0  0  0  0  0  0  0  0
    9.7081    3.5564  -13.0674 C   0  0  0  0  0  0  0  0  0  0  0  0
    6.9053    5.8510  -12.5287 C   0  0  0  0  0  0  0  0  0  0  0  0
    7.9614    6.9436  -12.7218 C   0  0  0  0  0  0  0  0  0  0  0  0
    8.6493    7.2474  -11.4463 N   0  0  2  0  0  0  0  0  0  0  0  0
    9.5509    8.4209  -11.5102 C   0  0  0  0  0  0  0  0  0  0  0  0
   10.2609    8.7347  -10.1644 C   0  0  0  0  0  0  0  0  0  0  0  0
    9.3060    8.8549   -8.9553 C   0  0  0  0  0  0  0  0  0  0  0  0
    9.9997    8.8091   -7.6596 C   0  0  0  0  0  0  0  0  0  0  0  0
   10.5568    8.7129   -6.5782 C   0  0  0  0  0  0  0  0  0  0  0  0
   11.1718    8.6027   -5.2674 C   0  0  0  0  0  0  0  0  0  0  0  0
   11.5245    7.3426   -4.7363 C   0  0  0  0  0  0  0  0  0  0  0  0
   12.0853    7.2528   -3.4457 C   0  0  0  0  0  0  0  0  0  0  0  0
   12.2927    8.4195   -2.6848 C   0  0  0  0  0  0  0  0  0  0  0  0
   12.8309    8.3414   -1.4473 F   0  0  0  0  0  0  0  0  0  0  0  0
   11.9369    9.6732   -3.2152 C   0  0  0  0  0  0  0  0  0  0  0  0
   11.3754    9.7667   -4.5021 C   0  0  0  0  0  0  0  0  0  0  0  0
    9.3355    6.0561  -10.9093 C   0  0  0  0  0  0  0  0  0  0  0  0
    8.3661    4.9006  -10.7380 C   0  0  0  0  0  0  0  0  0  0  0  0
    6.0860    4.1719  -10.7960 H   0  0  0  0  0  0  0  0  0  0  0  0
    6.5197    3.4445  -14.2744 H   0  0  0  0  0  0  0  0  0  0  0  0
    7.6526    2.1572  -16.0563 H   0  0  0  0  0  0  0  0  0  0  0  0
   11.4140    2.6467  -14.0305 H   0  0  0  0  0  0  0  0  0  0  0  0
   10.3096    3.8603  -12.2299 H   0  0  0  0  0  0  0  0  0  0  0  0
    6.3544    5.6595  -13.4468 H   0  0  0  0  0  0  0  0  0  0  0  0
    6.1512    6.2133  -11.8318 H   0  0  0  0  0  0  0  0  0  0  0  0
    8.6861    6.5723  -13.4466 H   0  0  0  0  0  0  0  0  0  0  0  0
    7.4874    7.8447  -13.1103 H   0  0  0  0  0  0  0  0  0  0  0  0
   10.3038    8.1758  -12.2619 H   0  0  0  0  0  0  0  0  0  0  0  0
    8.9883    9.2906  -11.8559 H   0  0  0  0  0  0  0  0  0  0  0  0
   11.0107    7.9680   -9.9680 H   0  0  0  0  0  0  0  0  0  0  0  0
   10.8553    9.6458  -10.2469 H   0  0  0  0  0  0  0  0  0  0  0  0
    8.7177    9.7679   -9.0085 H   0  0  0  0  0  0  0  0  0  0  0  0
    8.5876    8.0364   -8.9244 H   0  0  0  0  0  0  0  0  0  0  0  0
   11.3602    6.4421   -5.3115 H   0  0  0  0  0  0  0  0  0  0  0  0
   12.3512    6.2873   -3.0380 H   0  0  0  0  0  0  0  0  0  0  0  0
   12.0863   10.5689   -2.6328 H   0  0  0  0  0  0  0  0  0  0  0  0
   11.0982   10.7330   -4.8948 H   0  0  0  0  0  0  0  0  0  0  0  0
   10.1719    5.8167  -11.5597 H   0  0  0  0  0  0  0  0  0  0  0  0
    9.7550    6.2344   -9.9194 H   0  0  0  0  0  0  0  0  0  0  0  0
    7.6865    5.1785   -9.9325 H   0  0  0  0  0  0  0  0  0  0  0  0
    8.9555    4.0797  -10.3632 H   0  0  0  0  0  0  0  0  0  0  0  0
    7.8877    7.4880  -10.7992 H   0  0  0  0  0  0  0  0  0  0  0  0
  2  1  1  1
  3  2  1  0
  4  3  2  0
  5  4  1  0
  6  5  2  0
  7  6  1  0
  8  6  1  0
  9  3  1  0
  9  8  2  0
 10  2  1  0
 11 10  1  0
 12 11  1  0
 13 12  1  0
 14 13  1  0
 15 14  1  0
 16 15  1  0
 17 16  3  0
 18 17  1  0
 19 18  1  0
 20 19  2  0
 21 20  1  0
 22 21  1  0
 23 21  2  0
 24 18  2  0
 24 23  1  0
 25 12  1  0
 26  2  1  0
 26 25  1  0
 27  1  1  0
 28  4  1  0
 29  5  1  0
 30  8  1  0
 31  9  1  0
 32 10  1  0
 33 10  1  0
 34 11  1  0
 35 11  1  0
 36 13  1  0
 37 13  1  0
 38 14  1  0
 39 14  1  0
 40 15  1  0
 41 15  1  0
 42 19  1  0
 43 20  1  0
 44 23  1  0
 45 24  1  0
 46 25  1  0
 47 25  1  0
 48 26  1  0
 49 26  1  0
 12 50  1  1
M  CHG  1  12   1
M  END
>  <b_m_subgroup_collapsed>  (271) 
0

>  <r_i_docking_score>  (271) 
-8.3760544763100899

>  <s_m_subgroup_title>  (271) 
glide-dock_SP_D22_pv

>  <s_m_subgroupid>  (271) 
glide-dock_SP_D22_pv

>  <Molecule ChEMBL ID>  (271) 
CHEMBL4470321

>  <Standard Type>  (271) 
Ki

>  <Standard Value>  (271) 
19.05

>  <label>  (271) 
1

$$$$
CHEMBL140006
     RDKit          3D

 45 48  0  0  1  0  0  0  0  0999 V2000
    3.8254   -0.6278  -13.8708 N   0  0  0  0  0  0  0  0  0  0  0  0
    4.6577    0.1736  -13.8622 C   0  0  0  0  0  0  0  0  0  0  0  0
    5.6861    1.1999  -13.8468 C   0  0  0  0  0  0  0  0  0  0  0  0
    6.8371    1.0905  -14.6568 C   0  0  0  0  0  0  0  0  0  0  0  0
    7.7901    2.1298  -14.6645 C   0  0  0  0  0  0  0  0  0  0  0  0
    7.5887    3.2583  -13.8469 C   0  0  0  0  0  0  0  0  0  0  0  0
    8.3455    4.3894  -13.5999 N   0  0  0  0  0  0  0  0  0  0  0  0
    7.7335    5.1948  -12.6476 C   0  0  0  0  0  0  0  0  0  0  0  0
    8.3051    6.4967  -12.1896 C   0  0  0  0  0  0  0  0  0  0  0  0
    9.3414    6.4016  -11.1306 N   0  0  0  0  0  0  0  0  0  0  0  0
    8.8317    5.8855   -9.8296 C   0  0  0  0  0  0  0  0  0  0  0  0
    9.9342    5.7933   -8.7642 C   0  0  0  0  0  0  0  0  0  0  0  0
   10.6772    7.0495   -8.6860 N   0  0  0  0  0  0  0  0  0  0  0  0
   10.9030    7.6886   -7.4506 C   0  0  0  0  0  0  0  0  0  0  0  0
   10.9411    9.0979   -7.3556 C   0  0  0  0  0  0  0  0  0  0  0  0
   11.1826    9.7364   -6.1235 C   0  0  0  0  0  0  0  0  0  0  0  0
   11.3911    8.9723   -4.9630 C   0  0  0  0  0  0  0  0  0  0  0  0
   11.6858    9.7659   -3.4586 Cl  0  0  0  0  0  0  0  0  0  0  0  0
   11.3610    7.5658   -5.0430 C   0  0  0  0  0  0  0  0  0  0  0  0
   11.6862    6.6074   -3.6436 Cl  0  0  0  0  0  0  0  0  0  0  0  0
   11.1112    6.9334   -6.2758 C   0  0  0  0  0  0  0  0  0  0  0  0
   11.1757    7.6170   -9.9346 C   0  0  0  0  0  0  0  0  0  0  0  0
   10.0428    7.7052  -10.9665 C   0  0  0  0  0  0  0  0  0  0  0  0
    6.5473    4.6162  -12.2830 C   0  0  0  0  0  0  0  0  0  0  0  0
    6.4378    3.3879  -13.0155 C   0  0  0  0  0  0  0  0  0  0  0  0
    5.4898    2.3436  -13.0461 C   0  0  0  0  0  0  0  0  0  0  0  0
    6.9859    0.2179  -15.2792 H   0  0  0  0  0  0  0  0  0  0  0  0
    8.6755    2.0479  -15.2784 H   0  0  0  0  0  0  0  0  0  0  0  0
    9.2255    4.6097  -14.0440 H   0  0  0  0  0  0  0  0  0  0  0  0
    7.5045    7.1461  -11.8471 H   0  0  0  0  0  0  0  0  0  0  0  0
    8.7372    6.9957  -13.0467 H   0  0  0  0  0  0  0  0  0  0  0  0
    8.3506    4.9148   -9.9552 H   0  0  0  0  0  0  0  0  0  0  0  0
    8.0784    6.5713   -9.4520 H   0  0  0  0  0  0  0  0  0  0  0  0
   10.6154    4.9836   -9.0176 H   0  0  0  0  0  0  0  0  0  0  0  0
    9.4760    5.5395   -7.8070 H   0  0  0  0  0  0  0  0  0  0  0  0
   10.7730    9.7131   -8.2228 H   0  0  0  0  0  0  0  0  0  0  0  0
   11.2060   10.8157   -6.0717 H   0  0  0  0  0  0  0  0  0  0  0  0
   11.1199    5.8552   -6.3136 H   0  0  0  0  0  0  0  0  0  0  0  0
   11.6424    8.5916   -9.7986 H   0  0  0  0  0  0  0  0  0  0  0  0
   11.9683    6.9718  -10.3120 H   0  0  0  0  0  0  0  0  0  0  0  0
   10.4530    8.0331  -11.9220 H   0  0  0  0  0  0  0  0  0  0  0  0
    9.3232    8.4665  -10.6558 H   0  0  0  0  0  0  0  0  0  0  0  0
    5.8320    4.9982  -11.5662 H   0  0  0  0  0  0  0  0  0  0  0  0
    4.6063    2.4234  -12.4307 H   0  0  0  0  0  0  0  0  0  0  0  0
   10.0256    5.7355  -11.4543 H   0  0  0  0  0  0  0  0  0  0  0  0
  2  1  3  0
  3  2  1  0
  4  3  2  0
  5  4  1  0
  6  5  2  0
  7  6  1  0
  8  7  1  0
  9  8  1  0
 10  9  1  0
 11 10  1  0
 12 11  1  0
 13 12  1  0
 14 13  1  0
 15 14  1  0
 16 15  2  0
 17 16  1  0
 18 17  1  0
 19 17  2  0
 20 19  1  0
 21 14  2  0
 21 19  1  0
 22 13  1  0
 23 10  1  0
 23 22  1  0
 24  8  2  0
 25  6  1  0
 25 24  1  0
 26  3  1  0
 26 25  2  0
 27  4  1  0
 28  5  1  0
 29  7  1  0
 30  9  1  0
 31  9  1  0
 32 11  1  0
 33 11  1  0
 34 12  1  0
 35 12  1  0
 36 15  1  0
 37 16  1  0
 38 21  1  0
 39 22  1  0
 40 22  1  0
 41 23  1  0
 42 23  1  0
 43 24  1  0
 44 26  1  0
 45 10  1  0
M  CHG  1  10   1
M  END
>  <b_m_subgroup_collapsed>  (272) 
0

>  <r_i_docking_score>  (272) 
-8.3717670215433007

>  <s_m_subgroup_title>  (272) 
glide-dock_SP_D22_pv

>  <s_m_subgroupid>  (272) 
glide-dock_SP_D22_pv

>  <Molecule ChEMBL ID>  (272) 
CHEMBL140006

>  <Standard Type>  (272) 
Ki

>  <Standard Value>  (272) 
36000.0

>  <label>  (272) 
0

$$$$
CHEMBL1087452
     RDKit          3D

 54 58  0  0  1  0  0  0  0  0999 V2000
   12.4859    6.6730   -2.2462 O   0  0  0  0  0  0  0  0  0  0  0  0
   12.0858    7.3528   -3.1812 C   0  0  0  0  0  0  0  0  0  0  0  0
   12.0348    8.8819   -3.0738 C   0  0  0  0  0  0  0  0  0  0  0  0
   12.1829    9.6052   -4.4285 C   0  0  0  0  0  0  0  0  0  0  0  0
   11.5354    8.8719   -5.5840 C   0  0  0  0  0  0  0  0  0  0  0  0
   11.2287    9.5357   -6.7867 C   0  0  0  0  0  0  0  0  0  0  0  0
   10.6224    8.8364   -7.8535 C   0  0  0  0  0  0  0  0  0  0  0  0
   10.3071    7.4635   -7.7131 C   0  0  0  0  0  0  0  0  0  0  0  0
    9.6865    6.6877   -8.6628 O   0  0  0  0  0  0  0  0  0  0  0  0
    9.6246    7.1641   -9.9940 C   0  0  0  0  0  0  0  0  0  0  0  0
    8.8933    6.0983  -10.8213 C   0  0  0  0  0  0  0  0  0  0  0  0
    9.0737    6.3572  -12.2472 N   0  0  0  0  0  0  0  0  0  0  0  0
   10.2937    5.7733  -12.8190 C   0  0  0  0  0  0  0  0  0  0  0  0
   10.2044    4.2366  -12.9426 C   0  0  0  0  0  0  0  0  0  0  0  0
    9.0398    3.8709  -13.7473 N   0  0  0  0  0  0  0  0  0  0  0  0
    9.0736    2.6526  -14.4600 C   0  0  0  0  0  0  0  0  0  0  0  0
   10.2294    2.3204  -15.2213 C   0  0  0  0  0  0  0  0  0  0  0  0
   10.3383    1.0956  -15.9222 C   0  0  0  0  0  0  0  0  0  0  0  0
    9.2882    0.1575  -15.8835 C   0  0  0  0  0  0  0  0  0  0  0  0
    8.1508    0.5025  -15.1409 C   0  0  0  0  0  0  0  0  0  0  0  0
    7.0006   -0.2271  -14.8807 N   0  0  0  0  0  0  0  0  0  0  0  0
    6.1674    0.5097  -14.0517 C   0  0  0  0  0  0  0  0  0  0  0  0
    5.0886    0.1742  -13.5662 O   0  0  0  0  0  0  0  0  0  0  0  0
    6.7978    1.7111  -13.8469 O   0  0  0  0  0  0  0  0  0  0  0  0
    8.0179    1.7038  -14.4729 C   0  0  0  0  0  0  0  0  0  0  0  0
    7.7963    4.4165  -13.2136 C   0  0  0  0  0  0  0  0  0  0  0  0
    7.9246    5.9472  -13.0543 C   0  0  0  0  0  0  0  0  0  0  0  0
   10.6373    6.8142   -6.5145 C   0  0  0  0  0  0  0  0  0  0  0  0
   11.2656    7.4966   -5.4632 C   0  0  0  0  0  0  0  0  0  0  0  0
   11.6465    6.7840   -4.3080 N   0  0  0  0  0  0  0  0  0  0  0  0
   11.0627    9.1247   -2.6480 H   0  0  0  0  0  0  0  0  0  0  0  0
   12.7793    9.2430   -2.3628 H   0  0  0  0  0  0  0  0  0  0  0  0
   13.2357    9.7713   -4.6618 H   0  0  0  0  0  0  0  0  0  0  0  0
   11.6861   10.5722   -4.3565 H   0  0  0  0  0  0  0  0  0  0  0  0
   11.4520   10.5861   -6.8892 H   0  0  0  0  0  0  0  0  0  0  0  0
   10.3896    9.3720   -8.7603 H   0  0  0  0  0  0  0  0  0  0  0  0
    9.0764    8.1052  -10.0538 H   0  0  0  0  0  0  0  0  0  0  0  0
   10.6372    7.3312  -10.3627 H   0  0  0  0  0  0  0  0  0  0  0  0
    9.2310    5.0981  -10.5558 H   0  0  0  0  0  0  0  0  0  0  0  0
    7.8354    6.1412  -10.5611 H   0  0  0  0  0  0  0  0  0  0  0  0
   10.4445    6.1728  -13.8210 H   0  0  0  0  0  0  0  0  0  0  0  0
   11.1637    6.0885  -12.2467 H   0  0  0  0  0  0  0  0  0  0  0  0
   11.1348    3.8676  -13.3688 H   0  0  0  0  0  0  0  0  0  0  0  0
   10.1149    3.7638  -11.9647 H   0  0  0  0  0  0  0  0  0  0  0  0
   11.0566    3.0113  -15.2880 H   0  0  0  0  0  0  0  0  0  0  0  0
   11.2355    0.8759  -16.4831 H   0  0  0  0  0  0  0  0  0  0  0  0
    9.3626   -0.7899  -16.3972 H   0  0  0  0  0  0  0  0  0  0  0  0
    6.8181   -1.1808  -15.1669 H   0  0  0  0  0  0  0  0  0  0  0  0
    6.9693    4.2092  -13.8929 H   0  0  0  0  0  0  0  0  0  0  0  0
    7.5621    3.9441  -12.2588 H   0  0  0  0  0  0  0  0  0  0  0  0
    7.0068    6.3815  -12.6558 H   0  0  0  0  0  0  0  0  0  0  0  0
    8.0860    6.3792  -14.0398 H   0  0  0  0  0  0  0  0  0  0  0  0
   10.4029    5.7724   -6.4118 H   0  0  0  0  0  0  0  0  0  0  0  0
   11.5893    5.7759   -4.3372 H   0  0  0  0  0  0  0  0  0  0  0  0
  2  1  2  0
  3  2  1  0
  4  3  1  0
  5  4  1  0
  6  5  1  0
  7  6  2  0
  8  7  1  0
  9  8  1  0
 10  9  1  0
 11 10  1  0
 12 11  1  0
 13 12  1  0
 14 13  1  0
 15 14  1  0
 16 15  1  0
 17 16  1  0
 18 17  2  0
 19 18  1  0
 20 19  2  0
 21 20  1  0
 22 21  1  0
 23 22  2  0
 24 22  1  0
 25 16  2  0
 25 20  1  0
 25 24  1  0
 26 15  1  0
 27 12  1  0
 27 26  1  0
 28  8  2  0
 29  5  2  0
 29 28  1  0
 30  2  1  0
 30 29  1  0
 31  3  1  0
 32  3  1  0
 33  4  1  0
 34  4  1  0
 35  6  1  0
 36  7  1  0
 37 10  1  0
 38 10  1  0
 39 11  1  0
 40 11  1  0
 41 13  1  0
 42 13  1  0
 43 14  1  0
 44 14  1  0
 45 17  1  0
 46 18  1  0
 47 19  1  0
 48 21  1  0
 49 26  1  0
 50 26  1  0
 51 27  1  0
 52 27  1  0
 53 28  1  0
 54 30  1  0
M  END
>  <b_m_subgroup_collapsed>  (273) 
0

>  <r_i_docking_score>  (273) 
-8.3627955311236306

>  <s_m_subgroup_title>  (273) 
glide-dock_SP_D22_pv

>  <s_m_subgroupid>  (273) 
glide-dock_SP_D22_pv

>  <Molecule ChEMBL ID>  (273) 
CHEMBL1087452

>  <Standard Type>  (273) 
Ki

>  <Standard Value>  (273) 
8.6

>  <label>  (273) 
1

$$$$
CHEMBL5274285
     RDKit          3D

 54 58  0  0  1  0  0  0  0  0999 V2000
   13.3882    7.3150  -16.4779 F   0  0  0  0  0  0  0  0  0  0  0  0
   12.4343    6.5662  -15.8751 C   0  0  0  0  0  0  0  0  0  0  0  0
   12.4495    6.4021  -14.4776 C   0  0  0  0  0  0  0  0  0  0  0  0
   11.4623    5.6192  -13.8469 C   0  0  0  0  0  0  0  0  0  0  0  0
   10.4351    5.0200  -14.6047 C   0  0  0  0  0  0  0  0  0  0  0  0
    9.3739    4.1550  -13.9453 C   0  0  0  0  0  0  0  0  0  0  0  0
    8.0860    4.8107  -13.6488 N   0  0  0  0  0  0  0  0  0  0  0  0
    7.0095    3.8169  -13.6879 C   0  0  0  0  0  0  0  0  0  0  0  0
    5.7778    4.5318  -13.1355 C   0  0  0  0  0  0  0  0  0  0  0  0
    6.3400    5.7657  -12.4450 C   0  0  0  0  0  0  0  0  0  0  0  0
    7.8573    5.5206  -12.3677 C   0  0  1  0  0  0  0  0  0  0  0  0
    8.1853    4.6505  -11.1390 C   0  0  0  0  0  0  0  0  0  0  0  0
    8.9899    5.5153  -10.1879 C   0  0  0  0  0  0  0  0  0  0  0  0
    8.8860    6.9078  -10.6604 N   0  0  1  0  0  0  0  0  0  0  0  0
    9.9976    7.8115  -10.2513 C   0  0  0  0  0  0  0  0  0  0  0  0
   10.3308    7.8058   -8.7775 C   0  0  0  0  0  0  0  0  0  0  0  0
   10.6508    6.7517   -7.9574 C   0  0  0  0  0  0  0  0  0  0  0  0
   10.9551    7.2814   -6.6695 C   0  0  0  0  0  0  0  0  0  0  0  0
   11.3379    6.6994   -5.4456 C   0  0  0  0  0  0  0  0  0  0  0  0
   11.6860    7.4800   -4.3381 C   0  0  0  0  0  0  0  0  0  0  0  0
   11.6315    8.8758   -4.4308 C   0  0  0  0  0  0  0  0  0  0  0  0
   12.0860    9.7723   -3.0469 Cl  0  0  0  0  0  0  0  0  0  0  0  0
   11.2061    9.5020   -5.6229 C   0  0  0  0  0  0  0  0  0  0  0  0
   10.8727    8.6984   -6.7339 C   0  0  0  0  0  0  0  0  0  0  0  0
   10.4559    8.9723   -8.0285 N   0  0  0  0  0  0  0  0  0  0  0  0
    8.6301    6.8391  -12.1206 C   0  0  0  0  0  0  0  0  0  0  0  0
   10.4306    5.1807  -16.0070 C   0  0  0  0  0  0  0  0  0  0  0  0
   11.4258    5.9500  -16.6415 C   0  0  0  0  0  0  0  0  0  0  0  0
   11.4059    6.1019  -17.9869 F   0  0  0  0  0  0  0  0  0  0  0  0
   13.2253    6.8741  -13.8924 H   0  0  0  0  0  0  0  0  0  0  0  0
   11.4827    5.4931  -12.7770 H   0  0  0  0  0  0  0  0  0  0  0  0
    9.1830    3.3521  -14.6595 H   0  0  0  0  0  0  0  0  0  0  0  0
    9.8139    3.6525  -13.0877 H   0  0  0  0  0  0  0  0  0  0  0  0
    6.8396    3.4197  -14.6872 H   0  0  0  0  0  0  0  0  0  0  0  0
    7.2570    2.9723  -13.0469 H   0  0  0  0  0  0  0  0  0  0  0  0
    5.0858    4.8139  -13.9296 H   0  0  0  0  0  0  0  0  0  0  0  0
    5.2416    3.8892  -12.4364 H   0  0  0  0  0  0  0  0  0  0  0  0
    6.1210    6.6484  -13.0469 H   0  0  0  0  0  0  0  0  0  0  0  0
    5.8810    5.9309  -11.4690 H   0  0  0  0  0  0  0  0  0  0  0  0
    7.2860    4.2802  -10.6471 H   0  0  0  0  0  0  0  0  0  0  0  0
    8.7689    3.7723  -11.3781 H   0  0  0  0  0  0  0  0  0  0  0  0
    8.6237    5.4136   -9.1655 H   0  0  0  0  0  0  0  0  0  0  0  0
   10.0301    5.1899  -10.2300 H   0  0  0  0  0  0  0  0  0  0  0  0
   10.8954    7.5375  -10.8074 H   0  0  0  0  0  0  0  0  0  0  0  0
    9.7426    8.8236  -10.5683 H   0  0  0  0  0  0  0  0  0  0  0  0
   10.6968    5.7012   -8.1953 H   0  0  0  0  0  0  0  0  0  0  0  0
   11.4254    5.6364   -5.3648 H   0  0  0  0  0  0  0  0  0  0  0  0
   12.0042    7.0063   -3.4203 H   0  0  0  0  0  0  0  0  0  0  0  0
   11.1566   10.5786   -5.6865 H   0  0  0  0  0  0  0  0  0  0  0  0
   10.2936    9.8915   -8.4117 H   0  0  0  0  0  0  0  0  0  0  0  0
    9.5768    6.8422  -12.6469 H   0  0  0  0  0  0  0  0  0  0  0  0
    8.0839    7.7214  -12.4563 H   0  0  0  0  0  0  0  0  0  0  0  0
    9.6584    4.7164  -16.6027 H   0  0  0  0  0  0  0  0  0  0  0  0
    8.0069    7.2728  -10.2710 H   0  0  0  0  0  0  0  0  0  0  0  0
  2  1  1  0
  3  2  1  0
  4  3  2  0
  5  4  1  0
  6  5  1  0
  7  6  1  0
  8  7  1  0
  9  8  1  0
 10  9  1  0
 11  7  1  6
 11 10  1  0
 12 11  1  0
 13 12  1  0
 14 13  1  0
 15 14  1  0
 16 15  1  0
 17 16  2  0
 18 17  1  0
 19 18  2  0
 20 19  1  0
 21 20  2  0
 22 21  1  0
 23 21  1  0
 24 18  1  0
 24 23  2  0
 25 16  1  0
 25 24  1  0
 26 11  1  0
 26 14  1  0
 27  5  2  0
 28  2  2  0
 28 27  1  0
 29 28  1  0
 30  3  1  0
 31  4  1  0
 32  6  1  0
 33  6  1  0
 34  8  1  0
 35  8  1  0
 36  9  1  0
 37  9  1  0
 38 10  1  0
 39 10  1  0
 40 12  1  0
 41 12  1  0
 42 13  1  0
 43 13  1  0
 44 15  1  0
 45 15  1  0
 46 17  1  0
 47 19  1  0
 48 20  1  0
 49 23  1  0
 50 25  1  0
 51 26  1  0
 52 26  1  0
 53 27  1  0
 14 54  1  1
M  CHG  1  14   1
M  END
>  <b_m_subgroup_collapsed>  (274) 
0

>  <r_i_docking_score>  (274) 
-8.3609098756201004

>  <s_m_subgroup_title>  (274) 
glide-dock_SP_D22_pv

>  <s_m_subgroupid>  (274) 
glide-dock_SP_D22_pv

>  <Molecule ChEMBL ID>  (274) 
CHEMBL5274285

>  <Standard Type>  (274) 
Ki

>  <Standard Value>  (274) 
10000.0

>  <label>  (274) 
0

$$$$
CHEMBL5277325
     RDKit          3D

 59 61  0  0  1  0  0  0  0  0999 V2000
    7.6766    7.6383  -12.6522 C   0  0  0  0  0  0  0  0  0  0  0  0
    7.6860    6.4056  -11.8469 N   0  0  0  0  0  0  0  0  0  0  0  0
    6.5073    5.5461  -12.1210 C   0  0  0  0  0  0  0  0  0  0  0  0
    8.9976    5.7153  -11.7895 C   0  0  1  0  0  0  0  0  0  0  0  0
    9.1236    4.9647  -10.4371 C   0  0  0  0  0  0  0  0  0  0  0  0
    8.8858    5.8035   -9.2633 N   0  0  0  0  0  0  0  0  0  0  0  0
    9.6248    6.8559   -8.8823 C   0  0  0  0  0  0  0  0  0  0  0  0
   10.6043    7.2643   -9.5038 O   0  0  0  0  0  0  0  0  0  0  0  0
    9.1376    7.4316   -7.7767 N   0  0  0  0  0  0  0  0  0  0  0  0
    9.4656    8.7663   -7.2851 C   0  0  0  0  0  0  0  0  0  0  0  0
   10.9112    8.9575   -6.8034 C   0  0  1  0  0  0  0  0  0  0  0  0
   11.3175   10.2855   -5.9847 C   0  0  0  0  0  0  0  0  0  0  0  0
   11.6282    9.3794   -4.8254 C   0  0  0  0  0  0  0  0  0  0  0  0
   12.0429    9.3722   -3.4911 C   0  0  0  0  0  0  0  0  0  0  0  0
   12.0862    8.0771   -2.9048 C   0  0  0  0  0  0  0  0  0  0  0  0
   11.7201    6.8963   -3.6277 C   0  0  0  0  0  0  0  0  0  0  0  0
   11.2862    6.9305   -4.9827 C   0  0  0  0  0  0  0  0  0  0  0  0
   11.2612    8.2047   -5.5436 C   0  0  0  0  0  0  0  0  0  0  0  0
    9.2397    4.8309  -13.0465 C   0  0  0  0  0  0  0  0  0  0  0  0
   10.6663    4.2597  -13.2010 C   0  0  0  0  0  0  0  0  0  0  0  0
   10.7494    3.1451  -14.2672 C   0  0  0  0  0  0  0  0  0  0  0  0
   10.7272    3.6991  -15.7003 C   0  0  0  0  0  0  0  0  0  0  0  0
   11.8571    4.7170  -15.9148 C   0  0  0  0  0  0  0  0  0  0  0  0
   11.7778    5.8557  -14.8875 C   0  0  0  0  0  0  0  0  0  0  0  0
   11.7735    5.3150  -13.4472 C   0  0  0  0  0  0  0  0  0  0  0  0
    7.6862    7.3716  -13.7003 H   0  0  0  0  0  0  0  0  0  0  0  0
    6.7667    8.2129  -12.4704 H   0  0  0  0  0  0  0  0  0  0  0  0
    8.5281    8.2829  -12.4284 H   0  0  0  0  0  0  0  0  0  0  0  0
    6.4953    5.1896  -13.1506 H   0  0  0  0  0  0  0  0  0  0  0  0
    6.4723    4.6838  -11.4562 H   0  0  0  0  0  0  0  0  0  0  0  0
    5.5939    6.1163  -11.9534 H   0  0  0  0  0  0  0  0  0  0  0  0
    9.7587    6.4928  -11.7918 H   0  0  0  0  0  0  0  0  0  0  0  0
   10.0860    4.4789  -10.3249 H   0  0  0  0  0  0  0  0  0  0  0  0
    8.3848    4.1724  -10.3982 H   0  0  0  0  0  0  0  0  0  0  0  0
    8.0812    5.5683   -8.7001 H   0  0  0  0  0  0  0  0  0  0  0  0
    8.3035    7.0257   -7.3725 H   0  0  0  0  0  0  0  0  0  0  0  0
    8.7668    8.9720   -6.4748 H   0  0  0  0  0  0  0  0  0  0  0  0
    9.2356    9.4779   -8.0782 H   0  0  0  0  0  0  0  0  0  0  0  0
   11.6585    8.7379   -7.5658 H   0  0  0  0  0  0  0  0  0  0  0  0
   10.4906   10.9620   -5.7645 H   0  0  0  0  0  0  0  0  0  0  0  0
   12.2027   10.8007   -6.3562 H   0  0  0  0  0  0  0  0  0  0  0  0
   12.2956   10.2679   -2.9455 H   0  0  0  0  0  0  0  0  0  0  0  0
   12.3951    7.9844   -1.8735 H   0  0  0  0  0  0  0  0  0  0  0  0
   11.7682    5.9432   -3.1225 H   0  0  0  0  0  0  0  0  0  0  0  0
   10.9943    6.0478   -5.5309 H   0  0  0  0  0  0  0  0  0  0  0  0
    8.5426    3.9927  -13.0199 H   0  0  0  0  0  0  0  0  0  0  0  0
    8.9901    5.3942  -13.9455 H   0  0  0  0  0  0  0  0  0  0  0  0
   10.8774    3.7737  -12.2583 H   0  0  0  0  0  0  0  0  0  0  0  0
   11.6771    2.5882  -14.1242 H   0  0  0  0  0  0  0  0  0  0  0  0
    9.9442    2.4237  -14.1278 H   0  0  0  0  0  0  0  0  0  0  0  0
   10.8303    2.8802  -16.4133 H   0  0  0  0  0  0  0  0  0  0  0  0
    9.7636    4.1661  -15.9063 H   0  0  0  0  0  0  0  0  0  0  0  0
   12.8221    4.2166  -15.8325 H   0  0  0  0  0  0  0  0  0  0  0  0
   11.8057    5.1249  -16.9248 H   0  0  0  0  0  0  0  0  0  0  0  0
   12.6234    6.5313  -15.0224 H   0  0  0  0  0  0  0  0  0  0  0  0
   10.8861    6.4509  -15.0714 H   0  0  0  0  0  0  0  0  0  0  0  0
   11.7092    6.1435  -12.7435 H   0  0  0  0  0  0  0  0  0  0  0  0
   12.7421    4.8501  -13.2583 H   0  0  0  0  0  0  0  0  0  0  0  0
    7.4937    6.7806  -10.9153 H   0  0  0  0  0  0  0  0  0  0  0  0
  2  1  1  0
  3  2  1  0
  4  2  1  0
  5  4  1  0
  6  5  1  0
  7  6  1  0
  8  7  2  0
  9  7  1  0
 10  9  1  0
 11 10  1  0
 12 11  1  0
 13 12  1  0
 14 13  2  0
 15 14  1  0
 16 15  2  0
 17 16  1  0
 18 11  1  0
 18 13  1  0
 18 17  2  0
 19  4  1  0
 20 19  1  0
 21 20  1  0
 22 21  1  0
 23 22  1  0
 24 23  1  0
 25 20  1  0
 25 24  1  0
 26  1  1  0
 27  1  1  0
 28  1  1  0
 29  3  1  0
 30  3  1  0
 31  3  1  0
  4 32  1  1
 33  5  1  0
 34  5  1  0
 35  6  1  0
 36  9  1  0
 37 10  1  0
 38 10  1  0
 11 39  1  6
 40 12  1  0
 41 12  1  0
 42 14  1  0
 43 15  1  0
 44 16  1  0
 45 17  1  0
 46 19  1  0
 47 19  1  0
 48 20  1  0
 49 21  1  0
 50 21  1  0
 51 22  1  0
 52 22  1  0
 53 23  1  0
 54 23  1  0
 55 24  1  0
 56 24  1  0
 57 25  1  0
 58 25  1  0
 59  2  1  0
M  CHG  1   2   1
M  END
>  <b_m_subgroup_collapsed>  (275) 
0

>  <r_i_docking_score>  (275) 
-8.3597486397587506

>  <s_m_subgroup_title>  (275) 
glide-dock_SP_D22_pv

>  <s_m_subgroupid>  (275) 
glide-dock_SP_D22_pv

>  <Molecule ChEMBL ID>  (275) 
CHEMBL5277325

>  <Standard Type>  (275) 
Ki

>  <Standard Value>  (275) 
10000.0

>  <label>  (275) 
0

$$$$
CHEMBL5090346
     RDKit          3D

 51 53  0  0  1  0  0  0  0  0999 V2000
    7.2427    7.4569  -13.0349 N   0  0  0  0  0  0  0  0  0  0  0  0
    7.9164    6.5363  -12.8559 C   0  0  0  0  0  0  0  0  0  0  0  0
    8.7841    5.3654  -12.6326 C   0  0  0  0  0  0  0  0  0  0  0  0
    8.8047    5.0610  -11.0975 C   0  0  0  0  0  0  0  0  0  0  0  0
    9.1388    6.2180  -10.1320 C   0  0  0  0  0  0  0  0  0  0  0  0
    8.4861    6.0985   -8.8089 N   0  0  0  0  0  0  0  0  0  0  0  0
    9.0082    7.0145   -7.7699 C   0  0  0  0  0  0  0  0  0  0  0  0
   10.4592    6.6939   -7.3612 C   0  0  0  0  0  0  0  0  0  0  0  0
   10.9886    7.5998   -6.2725 C   0  0  0  0  0  0  0  0  0  0  0  0
   11.2438    8.9557   -6.5619 C   0  0  0  0  0  0  0  0  0  0  0  0
   11.7830    9.7963   -5.5748 C   0  0  0  0  0  0  0  0  0  0  0  0
   12.0742    9.2894   -4.2916 C   0  0  0  0  0  0  0  0  0  0  0  0
   11.8265    7.9351   -4.0010 C   0  0  0  0  0  0  0  0  0  0  0  0
   11.2859    7.0896   -4.9908 C   0  0  0  0  0  0  0  0  0  0  0  0
    8.1288    4.1209  -13.2753 C   0  0  0  0  0  0  0  0  0  0  0  0
    6.7159    4.0215  -13.3442 C   0  0  0  0  0  0  0  0  0  0  0  0
    6.0985    2.8611  -13.8429 C   0  0  0  0  0  0  0  0  0  0  0  0
    6.8780    1.7909  -14.3223 C   0  0  0  0  0  0  0  0  0  0  0  0
    8.2801    1.8667  -14.2551 C   0  0  0  0  0  0  0  0  0  0  0  0
    8.8969    3.0057  -13.7025 C   0  0  0  0  0  0  0  0  0  0  0  0
   10.1412    5.7709  -13.2715 C   0  0  0  0  0  0  0  0  0  0  0  0
   11.0110    6.7042  -12.6469 C   0  0  0  0  0  0  0  0  0  0  0  0
   12.1755    7.1610  -13.2908 C   0  0  0  0  0  0  0  0  0  0  0  0
   12.5041    6.7102  -14.5814 C   0  0  0  0  0  0  0  0  0  0  0  0
   11.6513    5.8121  -15.2364 C   0  0  0  0  0  0  0  0  0  0  0  0
   10.4771    5.3719  -14.5983 C   0  0  0  0  0  0  0  0  0  0  0  0
    9.4548    4.2059  -10.8960 H   0  0  0  0  0  0  0  0  0  0  0  0
    7.8024    4.7215  -10.8300 H   0  0  0  0  0  0  0  0  0  0  0  0
    8.8692    7.1896  -10.5431 H   0  0  0  0  0  0  0  0  0  0  0  0
   10.2149    6.2035   -9.9900 H   0  0  0  0  0  0  0  0  0  0  0  0
    8.5327    5.1463   -8.4772 H   0  0  0  0  0  0  0  0  0  0  0  0
    8.3599    6.9347   -6.8976 H   0  0  0  0  0  0  0  0  0  0  0  0
    8.9204    8.0434   -8.1224 H   0  0  0  0  0  0  0  0  0  0  0  0
   11.1459    6.8098   -8.1982 H   0  0  0  0  0  0  0  0  0  0  0  0
   10.5421    5.6563   -7.0473 H   0  0  0  0  0  0  0  0  0  0  0  0
   11.0368    9.3532   -7.5444 H   0  0  0  0  0  0  0  0  0  0  0  0
   11.9848   10.8294   -5.8211 H   0  0  0  0  0  0  0  0  0  0  0  0
   12.4921    9.9331   -3.5319 H   0  0  0  0  0  0  0  0  0  0  0  0
   12.0515    7.5418   -3.0215 H   0  0  0  0  0  0  0  0  0  0  0  0
   11.1023    6.0485   -4.7591 H   0  0  0  0  0  0  0  0  0  0  0  0
    6.0837    4.8196  -12.9814 H   0  0  0  0  0  0  0  0  0  0  0  0
    5.0201    2.7914  -13.8466 H   0  0  0  0  0  0  0  0  0  0  0  0
    6.4014    0.9047  -14.7176 H   0  0  0  0  0  0  0  0  0  0  0  0
    8.8832    1.0330  -14.5844 H   0  0  0  0  0  0  0  0  0  0  0  0
    9.9723    3.0014  -13.5937 H   0  0  0  0  0  0  0  0  0  0  0  0
   10.7938    7.1665  -11.7066 H   0  0  0  0  0  0  0  0  0  0  0  0
   12.8195    7.8768  -12.7984 H   0  0  0  0  0  0  0  0  0  0  0  0
   13.4012    7.0668  -15.0681 H   0  0  0  0  0  0  0  0  0  0  0  0
   11.8774    5.4902  -16.2433 H   0  0  0  0  0  0  0  0  0  0  0  0
    9.8179    4.7562  -15.1943 H   0  0  0  0  0  0  0  0  0  0  0  0
    7.5099    6.3685   -8.9278 H   0  0  0  0  0  0  0  0  0  0  0  0
  2  1  3  0
  3  2  1  0
  4  3  1  0
  5  4  1  0
  6  5  1  0
  7  6  1  0
  8  7  1  0
  9  8  1  0
 10  9  2  0
 11 10  1  0
 12 11  2  0
 13 12  1  0
 14  9  1  0
 14 13  2  0
 15  3  1  0
 16 15  2  0
 17 16  1  0
 18 17  2  0
 19 18  1  0
 20 15  1  0
 20 19  2  0
 21  3  1  0
 22 21  2  0
 23 22  1  0
 24 23  2  0
 25 24  1  0
 26 21  1  0
 26 25  2  0
 27  4  1  0
 28  4  1  0
 29  5  1  0
 30  5  1  0
 31  6  1  0
 32  7  1  0
 33  7  1  0
 34  8  1  0
 35  8  1  0
 36 10  1  0
 37 11  1  0
 38 12  1  0
 39 13  1  0
 40 14  1  0
 41 16  1  0
 42 17  1  0
 43 18  1  0
 44 19  1  0
 45 20  1  0
 46 22  1  0
 47 23  1  0
 48 24  1  0
 49 25  1  0
 50 26  1  0
 51  6  1  0
M  CHG  1   6   1
M  END
>  <b_m_subgroup_collapsed>  (276) 
0

>  <r_i_docking_score>  (276) 
-8.3567975664032907

>  <s_m_subgroup_title>  (276) 
glide-dock_SP_D22_pv

>  <s_m_subgroupid>  (276) 
glide-dock_SP_D22_pv

>  <Molecule ChEMBL ID>  (276) 
CHEMBL5090346

>  <Standard Type>  (276) 
Ki

>  <Standard Value>  (276) 
17600.0

>  <label>  (276) 
0

$$$$
CHEMBL168372
     RDKit          3D

 59 61  0  0  1  0  0  0  0  0999 V2000
    5.6033    4.4793  -12.5992 C   0  0  0  0  0  0  0  0  0  0  0  0
    6.8858    4.7842  -13.1274 O   0  0  0  0  0  0  0  0  0  0  0  0
    7.6165    3.7686  -13.7138 C   0  0  0  0  0  0  0  0  0  0  0  0
    6.9672    2.6305  -14.2469 C   0  0  0  0  0  0  0  0  0  0  0  0
    7.6878    1.5535  -14.8014 C   0  0  0  0  0  0  0  0  0  0  0  0
    6.9596    0.4411  -15.3191 N   0  0  0  0  0  0  0  0  0  0  0  0
    7.0644    0.1658  -16.7537 C   0  0  0  0  0  0  0  0  0  0  0  0
    6.1367   -0.2844  -14.5197 C   0  0  0  0  0  0  0  0  0  0  0  0
    5.2249   -1.3435  -15.1465 C   0  0  0  0  0  0  0  0  0  0  0  0
    6.0821   -0.1265  -13.2981 O   0  0  0  0  0  0  0  0  0  0  0  0
    9.1000    1.6202  -14.8410 C   0  0  0  0  0  0  0  0  0  0  0  0
   10.0619    0.3132  -15.4466 Cl  0  0  0  0  0  0  0  0  0  0  0  0
    9.7549    2.7683  -14.3562 C   0  0  0  0  0  0  0  0  0  0  0  0
    9.0404    3.8550  -13.7963 C   0  0  0  0  0  0  0  0  0  0  0  0
    9.8301    5.0472  -13.2916 C   0  0  0  0  0  0  0  0  0  0  0  0
   11.0492    5.1217  -13.4471 O   0  0  0  0  0  0  0  0  0  0  0  0
    9.1287    5.9894  -12.6507 N   0  0  0  0  0  0  0  0  0  0  0  0
    9.6065    7.1678  -11.9458 C   0  0  0  0  0  0  0  0  0  0  0  0
    9.9769    6.8396  -10.4846 C   0  0  2  0  0  0  0  0  0  0  0  0
    9.1561    5.6902   -9.8565 C   0  0  0  0  0  0  0  0  0  0  0  0
    9.0277    6.0800   -8.3983 C   0  0  0  0  0  0  0  0  0  0  0  0
    8.8861    7.5417   -8.4734 N   0  0  1  0  0  0  0  0  0  0  0  0
    8.8365    8.2996   -7.2045 C   0  0  0  0  0  0  0  0  0  0  0  0
   10.0688    8.2067   -6.3115 C   0  0  0  0  0  0  0  0  0  0  0  0
   10.3214    7.0300   -5.5760 C   0  0  0  0  0  0  0  0  0  0  0  0
   11.3311    6.9929   -4.6018 C   0  0  0  0  0  0  0  0  0  0  0  0
   12.0892    8.1467   -4.3435 C   0  0  0  0  0  0  0  0  0  0  0  0
   11.8928    9.3072   -5.1153 C   0  0  0  0  0  0  0  0  0  0  0  0
   10.8852    9.3381   -6.0991 C   0  0  0  0  0  0  0  0  0  0  0  0
    9.8063    8.0279   -9.5178 C   0  0  0  0  0  0  0  0  0  0  0  0
    5.2861    5.2923  -11.9469 H   0  0  0  0  0  0  0  0  0  0  0  0
    4.8633    4.3815  -13.3934 H   0  0  0  0  0  0  0  0  0  0  0  0
    5.6173    3.5670  -12.0002 H   0  0  0  0  0  0  0  0  0  0  0  0
    5.8910    2.5607  -14.2377 H   0  0  0  0  0  0  0  0  0  0  0  0
    7.4279   -0.8471  -16.9332 H   0  0  0  0  0  0  0  0  0  0  0  0
    6.0978    0.2798  -17.2457 H   0  0  0  0  0  0  0  0  0  0  0  0
    7.7554    0.8527  -17.2441 H   0  0  0  0  0  0  0  0  0  0  0  0
    5.7967   -2.1194  -15.6538 H   0  0  0  0  0  0  0  0  0  0  0  0
    4.6233   -1.8247  -14.3769 H   0  0  0  0  0  0  0  0  0  0  0  0
    4.5396   -0.8914  -15.8635 H   0  0  0  0  0  0  0  0  0  0  0  0
   10.8349    2.7989  -14.4050 H   0  0  0  0  0  0  0  0  0  0  0  0
    8.1297    5.8181  -12.6120 H   0  0  0  0  0  0  0  0  0  0  0  0
    8.7871    7.8876  -11.9751 H   0  0  0  0  0  0  0  0  0  0  0  0
   10.4453    7.6280  -12.4702 H   0  0  0  0  0  0  0  0  0  0  0  0
   11.0316    6.5713  -10.4589 H   0  0  0  0  0  0  0  0  0  0  0  0
    9.6177    4.7107   -9.9956 H   0  0  0  0  0  0  0  0  0  0  0  0
    8.1502    5.6495  -10.2792 H   0  0  0  0  0  0  0  0  0  0  0  0
    9.9419    5.7927   -7.8801 H   0  0  0  0  0  0  0  0  0  0  0  0
    8.1731    5.6087   -7.9096 H   0  0  0  0  0  0  0  0  0  0  0  0
    7.9711    7.9483   -6.6449 H   0  0  0  0  0  0  0  0  0  0  0  0
    8.6322    9.3423   -7.4473 H   0  0  0  0  0  0  0  0  0  0  0  0
    9.6793    6.1726   -5.6914 H   0  0  0  0  0  0  0  0  0  0  0  0
   11.4908    6.0971   -4.0208 H   0  0  0  0  0  0  0  0  0  0  0  0
   12.8557    8.1280   -3.5828 H   0  0  0  0  0  0  0  0  0  0  0  0
   12.5108   10.1726   -4.9406 H   0  0  0  0  0  0  0  0  0  0  0  0
   10.7151   10.2518   -6.6477 H   0  0  0  0  0  0  0  0  0  0  0  0
    9.3963    8.9186   -9.9971 H   0  0  0  0  0  0  0  0  0  0  0  0
   10.7701    8.2978   -9.0810 H   0  0  0  0  0  0  0  0  0  0  0  0
    7.9572    7.6583   -8.8746 H   0  0  0  0  0  0  0  0  0  0  0  0
  2  1  1  0
  3  2  1  0
  4  3  1  0
  5  4  2  0
  6  5  1  0
  7  6  1  0
  8  6  1  0
  9  8  1  0
 10  8  2  0
 11  5  1  0
 12 11  1  0
 13 11  2  0
 14  3  2  0
 14 13  1  0
 15 14  1  0
 16 15  2  0
 17 15  1  0
 18 17  1  0
 19 18  1  0
 20 19  1  0
 21 20  1  0
 22 21  1  0
 23 22  1  0
 24 23  1  0
 25 24  2  0
 26 25  1  0
 27 26  2  0
 28 27  1  0
 29 24  1  0
 29 28  2  0
 30 19  1  0
 30 22  1  0
 31  1  1  0
 32  1  1  0
 33  1  1  0
 34  4  1  0
 35  7  1  0
 36  7  1  0
 37  7  1  0
 38  9  1  0
 39  9  1  0
 40  9  1  0
 41 13  1  0
 42 17  1  0
 43 18  1  0
 44 18  1  0
 19 45  1  6
 46 20  1  0
 47 20  1  0
 48 21  1  0
 49 21  1  0
 50 23  1  0
 51 23  1  0
 52 25  1  0
 53 26  1  0
 54 27  1  0
 55 28  1  0
 56 29  1  0
 57 30  1  0
 58 30  1  0
 22 59  1  6
M  CHG  1  22   1
M  END
>  <b_m_subgroup_collapsed>  (277) 
0

>  <r_i_docking_score>  (277) 
-8.3562050292550705

>  <s_m_subgroup_title>  (277) 
glide-dock_SP_D22_pv

>  <s_m_subgroupid>  (277) 
glide-dock_SP_D22_pv

>  <Molecule ChEMBL ID>  (277) 
CHEMBL168372

>  <Standard Type>  (277) 
Ki

>  <Standard Value>  (277) 
19000.0

>  <label>  (277) 
0

$$$$
CHEMBL419275
     RDKit          3D

 52 56  0  0  1  0  0  0  0  0999 V2000
    4.2468   -0.2276  -13.4466 O   0  0  0  0  0  0  0  0  0  0  0  0
    5.2372    0.1737  -14.0486 C   0  0  0  0  0  0  0  0  0  0  0  0
    5.8211   -0.3804  -15.1755 N   0  0  0  0  0  0  0  0  0  0  0  0
    6.9047    0.3904  -15.5552 C   0  0  0  0  0  0  0  0  0  0  0  0
    7.7936    0.2219  -16.6243 C   0  0  0  0  0  0  0  0  0  0  0  0
    8.8193    1.1804  -16.7536 C   0  0  0  0  0  0  0  0  0  0  0  0
    8.9259    2.2489  -15.8296 C   0  0  0  0  0  0  0  0  0  0  0  0
    8.0193    2.3989  -14.7435 C   0  0  0  0  0  0  0  0  0  0  0  0
    8.1890    3.4758  -13.8465 N   0  0  0  0  0  0  0  0  0  0  0  0
    7.0793    3.9910  -13.0467 C   0  0  0  0  0  0  0  0  0  0  0  0
    7.3483    5.4376  -12.5883 C   0  0  0  0  0  0  0  0  0  0  0  0
    8.7069    5.6391  -12.0127 N   0  0  0  0  0  0  0  0  0  0  0  0
    8.9191    7.0710  -11.6920 C   0  0  0  0  0  0  0  0  0  0  0  0
   10.1969    7.3819  -10.9293 C   0  0  0  0  0  0  0  0  0  0  0  0
   11.3542    7.7279  -11.6513 C   0  0  0  0  0  0  0  0  0  0  0  0
   12.4867    8.1588  -10.9498 C   0  0  0  0  0  0  0  0  0  0  0  0
   12.4349    8.1772   -9.5507 C   0  0  0  0  0  0  0  0  0  0  0  0
   11.2369    7.8253   -8.9025 C   0  0  0  0  0  0  0  0  0  0  0  0
   11.1726    7.9583   -7.4407 C   0  0  0  0  0  0  0  0  0  0  0  0
   11.1334    6.8282   -6.5984 C   0  0  0  0  0  0  0  0  0  0  0  0
   11.2857    6.9722   -5.2046 C   0  0  0  0  0  0  0  0  0  0  0  0
   11.4719    8.2496   -4.6426 C   0  0  0  0  0  0  0  0  0  0  0  0
   11.6855    8.3817   -3.3117 F   0  0  0  0  0  0  0  0  0  0  0  0
   11.4355    9.3887   -5.4640 C   0  0  0  0  0  0  0  0  0  0  0  0
   11.2835    9.2395   -6.8552 C   0  0  0  0  0  0  0  0  0  0  0  0
   10.1356    7.4122   -9.5763 N   0  0  0  0  0  0  0  0  0  0  0  0
    9.7725    5.0834  -12.8891 C   0  0  0  0  0  0  0  0  0  0  0  0
    9.5101    3.6177  -13.2441 C   0  0  0  0  0  0  0  0  0  0  0  0
    6.9900    1.4297  -14.6476 C   0  0  0  0  0  0  0  0  0  0  0  0
    5.9795    1.2888  -13.7325 O   0  0  0  0  0  0  0  0  0  0  0  0
    7.6996   -0.6045  -17.3132 H   0  0  0  0  0  0  0  0  0  0  0  0
    9.5294    1.1029  -17.5638 H   0  0  0  0  0  0  0  0  0  0  0  0
    9.7181    2.9681  -15.9747 H   0  0  0  0  0  0  0  0  0  0  0  0
    6.9313    3.3722  -12.1646 H   0  0  0  0  0  0  0  0  0  0  0  0
    6.1518    3.9555  -13.6195 H   0  0  0  0  0  0  0  0  0  0  0  0
    6.5874    5.7485  -11.8689 H   0  0  0  0  0  0  0  0  0  0  0  0
    7.2571    6.0991  -13.4459 H   0  0  0  0  0  0  0  0  0  0  0  0
    8.0900    7.4220  -11.0962 H   0  0  0  0  0  0  0  0  0  0  0  0
    8.8958    7.6544  -12.6175 H   0  0  0  0  0  0  0  0  0  0  0  0
   11.3638    7.7109  -12.7316 H   0  0  0  0  0  0  0  0  0  0  0  0
   13.3816    8.4600  -11.4746 H   0  0  0  0  0  0  0  0  0  0  0  0
   13.2906    8.5127   -8.9831 H   0  0  0  0  0  0  0  0  0  0  0  0
   11.0445    5.8421   -7.0285 H   0  0  0  0  0  0  0  0  0  0  0  0
   11.2941    6.0982   -4.5702 H   0  0  0  0  0  0  0  0  0  0  0  0
   11.5520   10.3726   -5.0340 H   0  0  0  0  0  0  0  0  0  0  0  0
   11.2934   10.1180   -7.4820 H   0  0  0  0  0  0  0  0  0  0  0  0
    9.8325    5.6733  -13.8056 H   0  0  0  0  0  0  0  0  0  0  0  0
   10.7434    5.1584  -12.4056 H   0  0  0  0  0  0  0  0  0  0  0  0
    9.5579    3.0009  -12.3456 H   0  0  0  0  0  0  0  0  0  0  0  0
   10.3041    3.2539  -13.8950 H   0  0  0  0  0  0  0  0  0  0  0  0
    5.4950   -1.2284  -15.6159 H   0  0  0  0  0  0  0  0  0  0  0  0
    8.7340    5.1364  -11.1360 H   0  0  0  0  0  0  0  0  0  0  0  0
  2  1  2  0
  3  2  1  0
  4  3  1  0
  5  4  2  0
  6  5  1  0
  7  6  2  0
  8  7  1  0
  9  8  1  0
 10  9  1  0
 11 10  1  0
 12 11  1  0
 13 12  1  0
 14 13  1  0
 15 14  2  0
 16 15  1  0
 17 16  2  0
 18 17  1  0
 19 18  1  0
 20 19  1  0
 21 20  2  0
 22 21  1  0
 23 22  1  0
 24 22  2  0
 25 19  2  0
 25 24  1  0
 26 14  1  0
 26 18  2  0
 27 12  1  0
 28  9  1  0
 28 27  1  0
 29  4  1  0
 29  8  2  0
 30  2  1  0
 30 29  1  0
 31  5  1  0
 32  6  1  0
 33  7  1  0
 34 10  1  0
 35 10  1  0
 36 11  1  0
 37 11  1  0
 38 13  1  0
 39 13  1  0
 40 15  1  0
 41 16  1  0
 42 17  1  0
 43 20  1  0
 44 21  1  0
 45 24  1  0
 46 25  1  0
 47 27  1  0
 48 27  1  0
 49 28  1  0
 50 28  1  0
 51  3  1  0
 52 12  1  0
M  CHG  1  12   1
M  END
>  <b_m_subgroup_collapsed>  (278) 
0

>  <r_i_docking_score>  (278) 
-8.34922720983635

>  <s_m_subgroup_title>  (278) 
glide-dock_SP_D22_pv

>  <s_m_subgroupid>  (278) 
glide-dock_SP_D22_pv

>  <Molecule ChEMBL ID>  (278) 
CHEMBL419275

>  <Standard Type>  (278) 
Ki

>  <Standard Value>  (278) 
3.0

>  <label>  (278) 
1

$$$$
CHEMBL380054
     RDKit          3D

 43 46  0  0  1  0  0  0  0  0999 V2000
   12.5022    8.3814   -1.4656 F   0  0  0  0  0  0  0  0  0  0  0  0
   12.1081    8.2461   -2.7562 C   0  0  0  0  0  0  0  0  0  0  0  0
   12.0846    6.9780   -3.3632 C   0  0  0  0  0  0  0  0  0  0  0  0
   11.6387    6.8398   -4.6948 C   0  0  0  0  0  0  0  0  0  0  0  0
   11.2219    7.9599   -5.4564 C   0  0  0  0  0  0  0  0  0  0  0  0
   10.7829    7.7965   -6.7965 N   0  0  0  0  0  0  0  0  0  0  0  0
   10.5939    8.9719   -7.6329 C   0  0  0  0  0  0  0  0  0  0  0  0
   10.7482    8.6179   -9.1163 C   0  0  0  0  0  0  0  0  0  0  0  0
    9.8775    7.4922   -9.5520 N   0  0  0  0  0  0  0  0  0  0  0  0
   10.1709    7.1822  -10.9806 C   0  0  0  0  0  0  0  0  0  0  0  0
    9.3487    6.0871  -11.5977 C   0  0  0  0  0  0  0  0  0  0  0  0
    8.0412    5.7721  -11.3770 C   0  0  0  0  0  0  0  0  0  0  0  0
    7.6995    4.7910  -12.2816 N   0  0  0  0  0  0  0  0  0  0  0  0
    6.5105    4.1681  -12.5051 C   0  0  0  0  0  0  0  0  0  0  0  0
    6.4301    3.2102  -13.4868 C   0  0  0  0  0  0  0  0  0  0  0  0
    7.5754    2.8722  -14.2471 C   0  0  0  0  0  0  0  0  0  0  0  0
    8.7768    3.5079  -14.0253 C   0  0  0  0  0  0  0  0  0  0  0  0
    8.8721    4.5077  -13.0208 C   0  0  0  0  0  0  0  0  0  0  0  0
    9.8725    5.2879  -12.6084 N   0  0  0  0  0  0  0  0  0  0  0  0
    9.9550    6.3196   -8.6319 C   0  0  0  0  0  0  0  0  0  0  0  0
    9.8650    6.7073   -7.1347 C   0  0  0  0  0  0  0  0  0  0  0  0
   11.2861    9.2350   -4.8329 C   0  0  0  0  0  0  0  0  0  0  0  0
   11.7158    9.3742   -3.4973 C   0  0  0  0  0  0  0  0  0  0  0  0
   12.3906    6.1066   -2.8030 H   0  0  0  0  0  0  0  0  0  0  0  0
   11.6405    5.8516   -5.1285 H   0  0  0  0  0  0  0  0  0  0  0  0
    9.6024    9.3869   -7.4473 H   0  0  0  0  0  0  0  0  0  0  0  0
   11.3269    9.7443   -7.3992 H   0  0  0  0  0  0  0  0  0  0  0  0
   10.5397    9.4998   -9.7228 H   0  0  0  0  0  0  0  0  0  0  0  0
   11.7924    8.3566   -9.2989 H   0  0  0  0  0  0  0  0  0  0  0  0
   10.0160    8.0917  -11.5625 H   0  0  0  0  0  0  0  0  0  0  0  0
   11.2319    6.9508  -11.0817 H   0  0  0  0  0  0  0  0  0  0  0  0
    7.2861    6.1625  -10.7110 H   0  0  0  0  0  0  0  0  0  0  0  0
    5.6755    4.4628  -11.8775 H   0  0  0  0  0  0  0  0  0  0  0  0
    5.4863    2.7059  -13.6702 H   0  0  0  0  0  0  0  0  0  0  0  0
    7.5084    2.1075  -15.0150 H   0  0  0  0  0  0  0  0  0  0  0  0
    9.6575    3.2588  -14.6076 H   0  0  0  0  0  0  0  0  0  0  0  0
    9.1563    5.6138   -8.8598 H   0  0  0  0  0  0  0  0  0  0  0  0
   10.8854    5.7871   -8.8083 H   0  0  0  0  0  0  0  0  0  0  0  0
   10.0466    5.8203   -6.5329 H   0  0  0  0  0  0  0  0  0  0  0  0
    8.8487    7.0302   -6.9005 H   0  0  0  0  0  0  0  0  0  0  0  0
   10.9771   10.1314   -5.3473 H   0  0  0  0  0  0  0  0  0  0  0  0
   11.7355   10.3507   -3.0348 H   0  0  0  0  0  0  0  0  0  0  0  0
    8.9161    7.8091   -9.5138 H   0  0  0  0  0  0  0  0  0  0  0  0
  2  1  1  0
  3  2  1  0
  4  3  2  0
  5  4  1  0
  6  5  1  0
  7  6  1  0
  8  7  1  0
  9  8  1  0
 10  9  1  0
 11 10  1  0
 12 11  2  0
 13 12  1  0
 14 13  1  0
 15 14  2  0
 16 15  1  0
 17 16  2  0
 18 13  1  0
 18 17  1  0
 19 11  1  0
 19 18  2  0
 20  9  1  0
 21  6  1  0
 21 20  1  0
 22  5  2  0
 23  2  2  0
 23 22  1  0
 24  3  1  0
 25  4  1  0
 26  7  1  0
 27  7  1  0
 28  8  1  0
 29  8  1  0
 30 10  1  0
 31 10  1  0
 32 12  1  0
 33 14  1  0
 34 15  1  0
 35 16  1  0
 36 17  1  0
 37 20  1  0
 38 20  1  0
 39 21  1  0
 40 21  1  0
 41 22  1  0
 42 23  1  0
 43  9  1  0
M  CHG  1   9   1
M  END
>  <b_m_subgroup_collapsed>  (279) 
0

>  <r_i_docking_score>  (279) 
-8.3484567639802894

>  <s_m_subgroup_title>  (279) 
glide-dock_SP_D22_pv

>  <s_m_subgroupid>  (279) 
glide-dock_SP_D22_pv

>  <Molecule ChEMBL ID>  (279) 
CHEMBL380054

>  <Standard Type>  (279) 
Ki

>  <Standard Value>  (279) 
19000.0

>  <label>  (279) 
0

$$$$
CHEMBL194206
     RDKit          3D

 62 65  0  0  1  0  0  0  0  0999 V2000
    7.9843    2.4076  -15.1379 C   0  0  0  0  0  0  0  0  0  0  0  0
    8.9099    3.4832  -15.0478 O   0  0  0  0  0  0  0  0  0  0  0  0
    8.9387    4.2210  -13.8820 C   0  0  0  0  0  0  0  0  0  0  0  0
    7.8826    4.1887  -12.9357 C   0  0  0  0  0  0  0  0  0  0  0  0
    7.9268    4.9754  -11.7708 C   0  0  0  0  0  0  0  0  0  0  0  0
    9.0283    5.8110  -11.5198 C   0  0  0  0  0  0  0  0  0  0  0  0
    9.0285    6.5704  -10.3164 N   0  0  0  0  0  0  0  0  0  0  0  0
    9.8352    7.5852   -9.9498 C   0  0  0  0  0  0  0  0  0  0  0  0
   10.6164    8.1446  -10.7228 O   0  0  0  0  0  0  0  0  0  0  0  0
    9.6823    7.9933   -8.6676 N   0  0  0  0  0  0  0  0  0  0  0  0
    9.0734    7.2169   -7.5708 C   0  0  0  0  0  0  0  0  0  0  0  0
   10.1864    6.6119   -6.6829 C   0  0  0  0  0  0  0  0  0  0  0  0
   11.1821    7.6245   -6.3275 N   0  0  0  0  0  0  0  0  0  0  0  0
   11.5035    7.8736   -4.9821 C   0  0  0  0  0  0  0  0  0  0  0  0
   11.6860    6.7945   -4.0884 C   0  0  0  0  0  0  0  0  0  0  0  0
   12.0862    7.0237   -2.7576 C   0  0  0  0  0  0  0  0  0  0  0  0
   12.3002    8.3397   -2.3093 C   0  0  0  0  0  0  0  0  0  0  0  0
   12.7220    8.5723   -1.0470 F   0  0  0  0  0  0  0  0  0  0  0  0
   12.0847    9.4205   -3.1775 C   0  0  0  0  0  0  0  0  0  0  0  0
   11.6890    9.1919   -4.5076 C   0  0  0  0  0  0  0  0  0  0  0  0
   11.6761    8.5029   -7.3848 C   0  0  0  0  0  0  0  0  0  0  0  0
   10.4805    9.1007   -8.1335 C   0  0  0  0  0  0  0  0  0  0  0  0
   10.0860    5.8343  -12.4531 C   0  0  0  0  0  0  0  0  0  0  0  0
   10.0538    5.0695  -13.6414 C   0  0  0  0  0  0  0  0  0  0  0  0
   11.1139    5.1750  -14.5717 N   0  0  0  0  0  0  0  0  0  0  0  0
   11.8724    3.9614  -14.8553 C   0  0  0  0  0  0  0  0  0  0  0  0
   12.6597    4.1174  -16.1698 C   0  0  0  0  0  0  0  0  0  0  0  0
   13.4932    5.3467  -16.1565 N   0  0  0  0  0  0  0  0  0  0  0  0
   14.3382    5.4785  -17.3617 C   0  0  0  0  0  0  0  0  0  0  0  0
   12.6874    6.5593  -15.8836 C   0  0  0  0  0  0  0  0  0  0  0  0
   11.9178    6.3993  -14.5655 C   0  0  0  0  0  0  0  0  0  0  0  0
    8.1759    1.8493  -16.0544 H   0  0  0  0  0  0  0  0  0  0  0  0
    8.0944    1.7149  -14.3016 H   0  0  0  0  0  0  0  0  0  0  0  0
    6.9532    2.7613  -15.1793 H   0  0  0  0  0  0  0  0  0  0  0  0
    7.0082    3.5728  -13.0818 H   0  0  0  0  0  0  0  0  0  0  0  0
    7.1053    4.9381  -11.0699 H   0  0  0  0  0  0  0  0  0  0  0  0
    8.2808    6.3643   -9.6683 H   0  0  0  0  0  0  0  0  0  0  0  0
    8.3996    6.4295   -7.9073 H   0  0  0  0  0  0  0  0  0  0  0  0
    8.4516    7.8869   -6.9754 H   0  0  0  0  0  0  0  0  0  0  0  0
   10.6906    5.8048   -7.2167 H   0  0  0  0  0  0  0  0  0  0  0  0
    9.7331    6.1732   -5.7939 H   0  0  0  0  0  0  0  0  0  0  0  0
   11.5568    5.7764   -4.4257 H   0  0  0  0  0  0  0  0  0  0  0  0
   12.2440    6.1891   -2.0906 H   0  0  0  0  0  0  0  0  0  0  0  0
   12.2277   10.4281   -2.8188 H   0  0  0  0  0  0  0  0  0  0  0  0
   11.5316   10.0425   -5.1536 H   0  0  0  0  0  0  0  0  0  0  0  0
   12.3311    9.2891   -7.0104 H   0  0  0  0  0  0  0  0  0  0  0  0
   12.2862    7.9121   -8.0693 H   0  0  0  0  0  0  0  0  0  0  0  0
   10.8351    9.7718   -8.9155 H   0  0  0  0  0  0  0  0  0  0  0  0
    9.8747    9.7034   -7.4542 H   0  0  0  0  0  0  0  0  0  0  0  0
   10.9546    6.4350  -12.2514 H   0  0  0  0  0  0  0  0  0  0  0  0
   12.5579    3.7850  -14.0268 H   0  0  0  0  0  0  0  0  0  0  0  0
   11.2344    3.0809  -14.9142 H   0  0  0  0  0  0  0  0  0  0  0  0
   13.2864    3.2408  -16.3261 H   0  0  0  0  0  0  0  0  0  0  0  0
   11.9643    4.1591  -17.0107 H   0  0  0  0  0  0  0  0  0  0  0  0
   13.7263    5.5837  -18.2585 H   0  0  0  0  0  0  0  0  0  0  0  0
   14.9869    6.3518  -17.2861 H   0  0  0  0  0  0  0  0  0  0  0  0
   14.9742    4.6006  -17.4802 H   0  0  0  0  0  0  0  0  0  0  0  0
   13.3345    7.4355  -15.8250 H   0  0  0  0  0  0  0  0  0  0  0  0
   11.9883    6.7334  -16.7038 H   0  0  0  0  0  0  0  0  0  0  0  0
   11.2935    7.2765  -14.4065 H   0  0  0  0  0  0  0  0  0  0  0  0
   12.6260    6.3608  -13.7368 H   0  0  0  0  0  0  0  0  0  0  0  0
   14.1197    5.2553  -15.3715 H   0  0  0  0  0  0  0  0  0  0  0  0
  2  1  1  0
  3  2  1  0
  4  3  1  0
  5  4  2  0
  6  5  1  0
  7  6  1  0
  8  7  1  0
  9  8  2  0
 10  8  1  0
 11 10  1  0
 12 11  1  0
 13 12  1  0
 14 13  1  0
 15 14  1  0
 16 15  2  0
 17 16  1  0
 18 17  1  0
 19 17  2  0
 20 14  2  0
 20 19  1  0
 21 13  1  0
 22 10  1  0
 22 21  1  0
 23  6  2  0
 24  3  2  0
 24 23  1  0
 25 24  1  0
 26 25  1  0
 27 26  1  0
 28 27  1  0
 29 28  1  0
 30 28  1  0
 31 25  1  0
 31 30  1  0
 32  1  1  0
 33  1  1  0
 34  1  1  0
 35  4  1  0
 36  5  1  0
 37  7  1  0
 38 11  1  0
 39 11  1  0
 40 12  1  0
 41 12  1  0
 42 15  1  0
 43 16  1  0
 44 19  1  0
 45 20  1  0
 46 21  1  0
 47 21  1  0
 48 22  1  0
 49 22  1  0
 50 23  1  0
 51 26  1  0
 52 26  1  0
 53 27  1  0
 54 27  1  0
 55 29  1  0
 56 29  1  0
 57 29  1  0
 58 30  1  0
 59 30  1  0
 60 31  1  0
 61 31  1  0
 62 28  1  0
M  CHG  1  28   1
M  END
>  <b_m_subgroup_collapsed>  (280) 
0

>  <r_i_docking_score>  (280) 
-8.3442693112720896

>  <s_m_subgroup_title>  (280) 
glide-dock_SP_D22_pv

>  <s_m_subgroupid>  (280) 
glide-dock_SP_D22_pv

>  <Molecule ChEMBL ID>  (280) 
CHEMBL194206

>  <Standard Type>  (280) 
Ki

>  <Standard Value>  (280) 
10000.0

>  <label>  (280) 
0

$$$$
CHEMBL1171249
     RDKit          3D

 45 48  0  0  1  0  0  0  0  0999 V2000
    7.8592    7.0284  -12.2469 O   0  0  0  0  0  0  0  0  0  0  0  0
    9.0309    6.6998  -11.5227 C   0  0  1  0  0  0  0  0  0  0  0  0
   10.0828    6.1556  -12.5048 C   0  0  0  0  0  0  0  0  0  0  0  0
   11.2839    6.8509  -12.7996 C   0  0  0  0  0  0  0  0  0  0  0  0
   12.1426    6.3968  -13.8161 C   0  0  0  0  0  0  0  0  0  0  0  0
   11.8409    5.2277  -14.5337 C   0  0  0  0  0  0  0  0  0  0  0  0
   13.1142    4.5963  -16.0663 I   0  0  0  0  0  0  0  0  0  0  0  0
   10.6726    4.5064  -14.2313 C   0  0  0  0  0  0  0  0  0  0  0  0
    9.7971    4.9744  -13.2318 C   0  0  0  0  0  0  0  0  0  0  0  0
    9.4438    8.0063  -10.7963 C   0  0  0  0  0  0  0  0  0  0  0  0
   10.4591    7.7492   -9.6682 C   0  0  0  0  0  0  0  0  0  0  0  0
    9.8633    6.8560   -8.6391 N   0  0  2  0  0  0  0  0  0  0  0  0
   10.6908    6.6927   -7.4119 C   0  0  0  0  0  0  0  0  0  0  0  0
   10.8191    7.8836   -6.4933 C   0  0  0  0  0  0  0  0  0  0  0  0
   10.5537    9.2189   -6.7073 C   0  0  0  0  0  0  0  0  0  0  0  0
   10.8828   10.0052   -5.6372 O   0  0  0  0  0  0  0  0  0  0  0  0
   11.3236    9.1536   -4.6528 C   0  0  0  0  0  0  0  0  0  0  0  0
   11.7370    9.4918   -3.3555 C   0  0  0  0  0  0  0  0  0  0  0  0
   12.1248    8.4602   -2.4803 C   0  0  0  0  0  0  0  0  0  0  0  0
   12.0944    7.1202   -2.9191 C   0  0  0  0  0  0  0  0  0  0  0  0
   11.6860    6.8069   -4.2333 C   0  0  0  0  0  0  0  0  0  0  0  0
   11.2862    7.8209   -5.1340 C   0  0  0  0  0  0  0  0  0  0  0  0
    9.5596    5.5339   -9.2527 C   0  0  0  0  0  0  0  0  0  0  0  0
    8.6046    5.6563  -10.4512 C   0  0  0  0  0  0  0  0  0  0  0  0
    7.2170    7.3648  -11.6159 H   0  0  0  0  0  0  0  0  0  0  0  0
   11.5528    7.7681  -12.3012 H   0  0  0  0  0  0  0  0  0  0  0  0
   13.0388    6.9527  -14.0507 H   0  0  0  0  0  0  0  0  0  0  0  0
   10.4316    3.6119  -14.7870 H   0  0  0  0  0  0  0  0  0  0  0  0
    8.8780    4.4366  -13.0547 H   0  0  0  0  0  0  0  0  0  0  0  0
    9.8026    8.7600  -11.4978 H   0  0  0  0  0  0  0  0  0  0  0  0
    8.5661    8.4662  -10.3392 H   0  0  0  0  0  0  0  0  0  0  0  0
   11.3714    7.2942  -10.0548 H   0  0  0  0  0  0  0  0  0  0  0  0
   10.7675    8.7049   -9.2577 H   0  0  0  0  0  0  0  0  0  0  0  0
   10.2633    5.8755   -6.8305 H   0  0  0  0  0  0  0  0  0  0  0  0
   11.6827    6.3516   -7.7000 H   0  0  0  0  0  0  0  0  0  0  0  0
   10.1544    9.7720   -7.5405 H   0  0  0  0  0  0  0  0  0  0  0  0
   11.7430   10.5225   -3.0321 H   0  0  0  0  0  0  0  0  0  0  0  0
   12.4342    8.6965   -1.4718 H   0  0  0  0  0  0  0  0  0  0  0  0
   12.3823    6.3252   -2.2451 H   0  0  0  0  0  0  0  0  0  0  0  0
   11.6660    5.7737   -4.5484 H   0  0  0  0  0  0  0  0  0  0  0  0
   10.4854    5.0509   -9.5609 H   0  0  0  0  0  0  0  0  0  0  0  0
    9.1009    4.8779   -8.5108 H   0  0  0  0  0  0  0  0  0  0  0  0
    7.6572    5.9589  -10.0205 H   0  0  0  0  0  0  0  0  0  0  0  0
    8.4097    4.6764  -10.8862 H   0  0  0  0  0  0  0  0  0  0  0  0
    8.9781    7.2551   -8.3511 H   0  0  0  0  0  0  0  0  0  0  0  0
  2  1  1  6
  3  2  1  0
  4  3  2  0
  5  4  1  0
  6  5  2  0
  7  6  1  0
  8  6  1  0
  9  3  1  0
  9  8  2  0
 10  2  1  0
 11 10  1  0
 12 11  1  0
 13 12  1  0
 14 13  1  0
 15 14  2  0
 16 15  1  0
 17 16  1  0
 18 17  2  0
 19 18  1  0
 20 19  2  0
 21 20  1  0
 22 14  1  0
 22 17  1  0
 22 21  2  0
 23 12  1  0
 24  2  1  0
 24 23  1  0
 25  1  1  0
 26  4  1  0
 27  5  1  0
 28  8  1  0
 29  9  1  0
 30 10  1  0
 31 10  1  0
 32 11  1  0
 33 11  1  0
 34 13  1  0
 35 13  1  0
 36 15  1  0
 37 18  1  0
 38 19  1  0
 39 20  1  0
 40 21  1  0
 41 23  1  0
 42 23  1  0
 43 24  1  0
 44 24  1  0
 12 45  1  1
M  CHG  1  12   1
M  END
>  <b_m_subgroup_collapsed>  (281) 
0

>  <r_i_docking_score>  (281) 
-8.3426640370352292

>  <s_m_subgroup_title>  (281) 
glide-dock_SP_D22_pv

>  <s_m_subgroupid>  (281) 
glide-dock_SP_D22_pv

>  <Molecule ChEMBL ID>  (281) 
CHEMBL1171249

>  <Standard Type>  (281) 
Ki

>  <Standard Value>  (281) 
2.4

>  <label>  (281) 
1

$$$$
CHEMBL4446350
     RDKit          3D

 60 63  0  0  1  0  0  0  0  0999 V2000
   11.3253    7.6384  -11.1677 O   0  0  0  0  0  0  0  0  0  0  0  0
   10.4542    7.3395  -10.3507 C   0  0  0  0  0  0  0  0  0  0  0  0
    9.2764    6.7993  -10.6849 N   0  0  0  0  0  0  0  0  0  0  0  0
    8.8338    6.5622  -12.0461 C   0  0  0  0  0  0  0  0  0  0  0  0
    9.3425    5.2196  -12.6118 C   0  0  0  0  0  0  0  0  0  0  0  0
    9.0697    5.1063  -14.1232 C   0  0  0  0  0  0  0  0  0  0  0  0
    9.2509    3.7066  -14.7409 C   0  0  0  0  0  0  0  0  0  0  0  0
    8.3422    2.6608  -14.2023 N   0  0  0  0  0  0  0  0  0  0  0  0
    6.8851    2.9543  -14.3229 C   0  0  0  0  0  0  0  0  0  0  0  0
    6.0233    1.8822  -13.6282 C   0  0  0  0  0  0  0  0  0  0  0  0
    6.4112    0.5480  -14.0773 N   0  0  0  0  0  0  0  0  0  0  0  0
    5.5363   -0.1280  -14.9446 C   0  0  0  0  0  0  0  0  0  0  0  0
    4.1890   -0.2868  -14.5607 C   0  0  0  0  0  0  0  0  0  0  0  0
    3.2813   -0.9330  -15.4127 C   0  0  0  0  0  0  0  0  0  0  0  0
    3.6949   -1.4247  -16.6622 C   0  0  0  0  0  0  0  0  0  0  0  0
    5.0371   -1.2750  -17.0542 C   0  0  0  0  0  0  0  0  0  0  0  0
    5.5589   -1.8657  -18.5864 Cl  0  0  0  0  0  0  0  0  0  0  0  0
    5.9522   -0.6280  -16.2011 C   0  0  0  0  0  0  0  0  0  0  0  0
    7.8319    0.2226  -14.0849 C   0  0  0  0  0  0  0  0  0  0  0  0
    8.6713    1.3217  -14.7518 C   0  0  0  0  0  0  0  0  0  0  0  0
   10.6441    7.6068   -8.8904 C   0  0  0  0  0  0  0  0  0  0  0  0
   10.0850    6.7478   -7.9183 C   0  0  0  0  0  0  0  0  0  0  0  0
   10.3448    6.9637   -6.5551 C   0  0  0  0  0  0  0  0  0  0  0  0
   11.1677    8.0304   -6.1434 C   0  0  0  0  0  0  0  0  0  0  0  0
   11.5206    8.1674   -4.7337 C   0  0  0  0  0  0  0  0  0  0  0  0
   11.7423    9.4438   -4.1334 C   0  0  0  0  0  0  0  0  0  0  0  0
   12.0861    9.3675   -2.8123 C   0  0  0  0  0  0  0  0  0  0  0  0
   12.1055    7.7262   -2.2521 S   0  0  0  0  0  0  0  0  0  0  0  0
   11.6863    7.1441   -3.8340 C   0  0  0  0  0  0  0  0  0  0  0  0
   11.6874    8.9153   -7.1103 C   0  0  0  0  0  0  0  0  0  0  0  0
   11.4400    8.6945   -8.4765 C   0  0  0  0  0  0  0  0  0  0  0  0
    8.5825    6.6862   -9.9577 H   0  0  0  0  0  0  0  0  0  0  0  0
    7.7435    6.5841  -12.0574 H   0  0  0  0  0  0  0  0  0  0  0  0
    9.1616    7.4084  -12.6466 H   0  0  0  0  0  0  0  0  0  0  0  0
   10.4152    5.1132  -12.4338 H   0  0  0  0  0  0  0  0  0  0  0  0
    8.8574    4.4073  -12.0683 H   0  0  0  0  0  0  0  0  0  0  0  0
    8.0858    5.5007  -14.3556 H   0  0  0  0  0  0  0  0  0  0  0  0
    9.7630    5.7723  -14.6344 H   0  0  0  0  0  0  0  0  0  0  0  0
    9.1149    3.7725  -15.8218 H   0  0  0  0  0  0  0  0  0  0  0  0
   10.2840    3.3915  -14.5810 H   0  0  0  0  0  0  0  0  0  0  0  0
    6.6331    3.9254  -13.9000 H   0  0  0  0  0  0  0  0  0  0  0  0
    6.6175    2.9722  -15.3791 H   0  0  0  0  0  0  0  0  0  0  0  0
    6.0863    1.9433  -12.5421 H   0  0  0  0  0  0  0  0  0  0  0  0
    4.9756    2.0845  -13.8468 H   0  0  0  0  0  0  0  0  0  0  0  0
    3.8403    0.0856  -13.6090 H   0  0  0  0  0  0  0  0  0  0  0  0
    2.2502   -1.0275  -15.1096 H   0  0  0  0  0  0  0  0  0  0  0  0
    2.9825   -1.9158  -17.3102 H   0  0  0  0  0  0  0  0  0  0  0  0
    6.9729   -0.5135  -16.5334 H   0  0  0  0  0  0  0  0  0  0  0  0
    8.1453    0.0929  -13.0526 H   0  0  0  0  0  0  0  0  0  0  0  0
    8.0140   -0.7277  -14.5793 H   0  0  0  0  0  0  0  0  0  0  0  0
    8.5003    1.3232  -15.8288 H   0  0  0  0  0  0  0  0  0  0  0  0
    9.7299    1.1038  -14.5996 H   0  0  0  0  0  0  0  0  0  0  0  0
    9.4754    5.9025   -8.2039 H   0  0  0  0  0  0  0  0  0  0  0  0
    9.9256    6.2832   -5.8280 H   0  0  0  0  0  0  0  0  0  0  0  0
   11.6469   10.3668   -4.6842 H   0  0  0  0  0  0  0  0  0  0  0  0
   12.3185   10.1718   -2.1294 H   0  0  0  0  0  0  0  0  0  0  0  0
   11.5816    6.0825   -4.0021 H   0  0  0  0  0  0  0  0  0  0  0  0
   12.3280    9.7350   -6.8188 H   0  0  0  0  0  0  0  0  0  0  0  0
   11.8807    9.3580   -9.2083 H   0  0  0  0  0  0  0  0  0  0  0  0
    8.5381    2.6058  -13.2125 H   0  0  0  0  0  0  0  0  0  0  0  0
  2  1  2  0
  3  2  1  0
  4  3  1  0
  5  4  1  0
  6  5  1  0
  7  6  1  0
  8  7  1  0
  9  8  1  0
 10  9  1  0
 11 10  1  0
 12 11  1  0
 13 12  2  0
 14 13  1  0
 15 14  2  0
 16 15  1  0
 17 16  1  0
 18 12  1  0
 18 16  2  0
 19 11  1  0
 20  8  1  0
 20 19  1  0
 21  2  1  0
 22 21  1  0
 23 22  2  0
 24 23  1  0
 25 24  1  0
 26 25  1  0
 27 26  2  0
 28 27  1  0
 29 25  2  0
 29 28  1  0
 30 24  2  0
 31 21  2  0
 31 30  1  0
 32  3  1  0
 33  4  1  0
 34  4  1  0
 35  5  1  0
 36  5  1  0
 37  6  1  0
 38  6  1  0
 39  7  1  0
 40  7  1  0
 41  9  1  0
 42  9  1  0
 43 10  1  0
 44 10  1  0
 45 13  1  0
 46 14  1  0
 47 15  1  0
 48 18  1  0
 49 19  1  0
 50 19  1  0
 51 20  1  0
 52 20  1  0
 53 22  1  0
 54 23  1  0
 55 26  1  0
 56 27  1  0
 57 29  1  0
 58 30  1  0
 59 31  1  0
 60  8  1  0
M  CHG  1   8   1
M  END
>  <b_m_subgroup_collapsed>  (282) 
0

>  <r_i_docking_score>  (282) 
-8.3409156965118196

>  <s_m_subgroup_title>  (282) 
glide-dock_SP_D22_pv

>  <s_m_subgroupid>  (282) 
glide-dock_SP_D22_pv

>  <Molecule ChEMBL ID>  (282) 
CHEMBL4446350

>  <Standard Type>  (282) 
Ki

>  <Standard Value>  (282) 
12046.0

>  <label>  (282) 
0

$$$$
CHEMBL3289643
     RDKit          3D

 48 51  0  0  1  0  0  0  0  0999 V2000
   10.8999   10.3512   -6.1861 O   0  0  0  0  0  0  0  0  0  0  0  0
   11.0716    9.1921   -5.8182 C   0  0  0  0  0  0  0  0  0  0  0  0
   11.5961    8.7397   -4.5296 C   0  0  0  0  0  0  0  0  0  0  0  0
   12.0093    9.4981   -3.4203 C   0  0  0  0  0  0  0  0  0  0  0  0
   12.4793    8.8208   -2.2759 C   0  0  0  0  0  0  0  0  0  0  0  0
   12.4860    7.4099   -2.2470 C   0  0  0  0  0  0  0  0  0  0  0  0
   12.0596    6.6650   -3.3581 C   0  0  0  0  0  0  0  0  0  0  0  0
   11.6090    7.3534   -4.4928 C   0  0  0  0  0  0  0  0  0  0  0  0
   11.0485    6.7425   -5.7461 C   0  0  0  0  0  0  0  0  0  0  0  0
   10.6911    7.9512   -6.6471 C   0  0  2  0  0  0  0  0  0  0  0  0
   11.3863    7.8535   -8.0166 C   0  0  0  0  0  0  0  0  0  0  0  0
   10.9775    8.9459   -9.0321 C   0  0  0  0  0  0  0  0  0  0  0  0
   10.9059    8.4876  -10.4199 N   0  0  0  0  0  0  0  0  0  0  0  0
    9.7361    7.6286  -10.6308 C   0  0  0  0  0  0  0  0  0  0  0  0
    9.5929    7.3504  -12.1298 C   0  0  0  0  0  0  0  0  0  0  0  0
   10.7861    6.6574  -12.6084 N   0  0  0  0  0  0  0  0  0  0  0  0
   10.7172    5.4249  -13.2890 C   0  0  0  0  0  0  0  0  0  0  0  0
    9.6789    4.5050  -13.0078 C   0  0  0  0  0  0  0  0  0  0  0  0
    9.6092    3.2711  -13.6789 C   0  0  0  0  0  0  0  0  0  0  0  0
   10.5795    2.9309  -14.6363 C   0  0  0  0  0  0  0  0  0  0  0  0
   10.4862    1.4129  -15.4502 Cl  0  0  0  0  0  0  0  0  0  0  0  0
   11.6236    3.8303  -14.9202 C   0  0  0  0  0  0  0  0  0  0  0  0
   11.6924    5.0691  -14.2519 C   0  0  0  0  0  0  0  0  0  0  0  0
   12.0495    7.3478  -12.3565 C   0  0  0  0  0  0  0  0  0  0  0  0
   12.1379    7.8308  -10.8844 C   0  0  0  0  0  0  0  0  0  0  0  0
   11.9528   10.5722   -3.4311 H   0  0  0  0  0  0  0  0  0  0  0  0
   12.8193    9.3800   -1.4177 H   0  0  0  0  0  0  0  0  0  0  0  0
   12.8854    6.8905   -1.3918 H   0  0  0  0  0  0  0  0  0  0  0  0
   12.0868    5.5914   -3.3323 H   0  0  0  0  0  0  0  0  0  0  0  0
   11.7797    6.0729   -6.1994 H   0  0  0  0  0  0  0  0  0  0  0  0
   10.1518    6.1723   -5.5049 H   0  0  0  0  0  0  0  0  0  0  0  0
    9.6104    7.9737   -6.7960 H   0  0  0  0  0  0  0  0  0  0  0  0
   12.4706    7.8668   -7.8904 H   0  0  0  0  0  0  0  0  0  0  0  0
   11.1508    6.8634   -8.4053 H   0  0  0  0  0  0  0  0  0  0  0  0
   10.0076    9.3687   -8.7634 H   0  0  0  0  0  0  0  0  0  0  0  0
   11.6856    9.7716   -8.9803 H   0  0  0  0  0  0  0  0  0  0  0  0
    9.8119    6.6915  -10.0813 H   0  0  0  0  0  0  0  0  0  0  0  0
    8.8435    8.1403  -10.2739 H   0  0  0  0  0  0  0  0  0  0  0  0
    8.6692    6.8092  -12.3347 H   0  0  0  0  0  0  0  0  0  0  0  0
    9.5046    8.3065  -12.6464 H   0  0  0  0  0  0  0  0  0  0  0  0
    8.9343    4.7181  -12.2560 H   0  0  0  0  0  0  0  0  0  0  0  0
    8.8157    2.5785  -13.4482 H   0  0  0  0  0  0  0  0  0  0  0  0
   12.3756    3.5715  -15.6514 H   0  0  0  0  0  0  0  0  0  0  0  0
   12.4951    5.7474  -14.4988 H   0  0  0  0  0  0  0  0  0  0  0  0
   12.8860    6.6792  -12.5458 H   0  0  0  0  0  0  0  0  0  0  0  0
   12.1632    8.1700  -13.0597 H   0  0  0  0  0  0  0  0  0  0  0  0
   12.9787    8.5181  -10.7758 H   0  0  0  0  0  0  0  0  0  0  0  0
   12.3557    6.9721  -10.2547 H   0  0  0  0  0  0  0  0  0  0  0  0
  2  1  2  0
  3  2  1  0
  4  3  2  0
  5  4  1  0
  6  5  2  0
  7  6  1  0
  8  3  1  0
  8  7  2  0
  9  8  1  0
 10  2  1  0
 10  9  1  0
 11 10  1  0
 12 11  1  0
 13 12  1  0
 14 13  1  0
 15 14  1  0
 16 15  1  0
 17 16  1  0
 18 17  1  0
 19 18  2  0
 20 19  1  0
 21 20  1  0
 22 20  2  0
 23 17  2  0
 23 22  1  0
 24 16  1  0
 25 13  1  0
 25 24  1  0
 26  4  1  0
 27  5  1  0
 28  6  1  0
 29  7  1  0
 30  9  1  0
 31  9  1  0
 10 32  1  6
 33 11  1  0
 34 11  1  0
 35 12  1  0
 36 12  1  0
 37 14  1  0
 38 14  1  0
 39 15  1  0
 40 15  1  0
 41 18  1  0
 42 19  1  0
 43 22  1  0
 44 23  1  0
 45 24  1  0
 46 24  1  0
 47 25  1  0
 48 25  1  0
M  END
>  <b_m_subgroup_collapsed>  (283) 
0

>  <r_i_docking_score>  (283) 
-8.3403246034815304

>  <s_m_subgroup_title>  (283) 
glide-dock_SP_D22_pv

>  <s_m_subgroupid>  (283) 
glide-dock_SP_D22_pv

>  <Molecule ChEMBL ID>  (283) 
CHEMBL3289643

>  <Standard Type>  (283) 
Ki

>  <Standard Value>  (283) 
10000.0

>  <label>  (283) 
0

$$$$
CHEMBL4642981
     RDKit          3D

 68 73  0  0  1  0  0  0  0  0999 V2000
    7.6860    2.1712  -18.5142 O   0  0  0  0  0  0  0  0  0  0  0  0
    7.0845    1.3465  -17.8260 C   0  0  0  0  0  0  0  0  0  0  0  0
    7.3082    1.0759  -16.5192 N   0  0  0  0  0  0  0  0  0  0  0  0
    8.3133    1.6839  -15.6526 C   0  0  0  0  0  0  0  0  0  0  0  0
    7.6718    2.5857  -14.5867 C   0  0  0  0  0  0  0  0  0  0  0  0
    8.7187    3.3447  -13.7660 C   0  0  0  0  0  0  0  0  0  0  0  0
    8.0664    4.2501  -12.7141 C   0  0  0  0  0  0  0  0  0  0  0  0
    9.0817    4.7942  -11.7037 C   0  0  0  0  0  0  0  0  0  0  0  0
    8.3845    5.3969  -10.4786 C   0  0  0  0  0  0  0  0  0  0  0  0
    9.3625    5.9239   -9.5005 N   0  0  0  0  0  0  0  0  0  0  0  0
    8.9108    5.8221   -8.0943 C   0  0  0  0  0  0  0  0  0  0  0  0
   10.0662    6.1559   -7.1412 C   0  0  0  0  0  0  0  0  0  0  0  0
   10.6888    7.4275   -7.4706 N   0  0  0  0  0  0  0  0  0  0  0  0
   10.9926    8.3670   -6.4613 C   0  0  0  0  0  0  0  0  0  0  0  0
   10.8966    9.6404   -6.7617 N   0  0  0  0  0  0  0  0  0  0  0  0
   11.2859   10.5721   -5.4472 S   0  0  0  0  0  0  0  0  0  0  0  0
   11.6492    9.2448   -4.3843 C   0  0  0  0  0  0  0  0  0  0  0  0
   12.0822    9.2688   -3.0464 C   0  0  0  0  0  0  0  0  0  0  0  0
   12.2924    8.0609   -2.3659 C   0  0  0  0  0  0  0  0  0  0  0  0
   12.0872    6.8440   -3.0395 C   0  0  0  0  0  0  0  0  0  0  0  0
   11.6845    6.8370   -4.3909 C   0  0  0  0  0  0  0  0  0  0  0  0
   11.4274    8.0349   -5.1053 C   0  0  0  0  0  0  0  0  0  0  0  0
   10.9958    7.6850   -8.8812 C   0  0  0  0  0  0  0  0  0  0  0  0
    9.8234    7.3005   -9.8023 C   0  0  0  0  0  0  0  0  0  0  0  0
    6.3387    0.1607  -16.0960 C   0  0  0  0  0  0  0  0  0  0  0  0
    6.0353   -0.4492  -14.8633 C   0  0  0  0  0  0  0  0  0  0  0  0
    4.9109   -1.3124  -14.7970 C   0  0  0  0  0  0  0  0  0  0  0  0
    4.1055   -1.5798  -15.9376 C   0  0  0  0  0  0  0  0  0  0  0  0
    4.4294   -1.0046  -17.1834 C   0  0  0  0  0  0  0  0  0  0  0  0
    5.5343   -0.1477  -17.1670 C   0  0  0  0  0  0  0  0  0  0  0  0
    6.0366    0.5944  -18.2359 N   0  0  0  0  0  0  0  0  0  0  0  0
    5.4218    0.5443  -19.5569 C   0  0  0  0  0  0  0  0  0  0  0  0
    4.6561   -0.7837  -19.7333 C   0  0  0  0  0  0  0  0  0  0  0  0
    3.7344   -1.1114  -18.5364 C   0  0  0  0  0  0  0  0  0  0  0  0
    9.0199    2.2599  -16.2522 H   0  0  0  0  0  0  0  0  0  0  0  0
    8.8946    0.8946  -15.1744 H   0  0  0  0  0  0  0  0  0  0  0  0
    7.0617    1.9873  -13.9116 H   0  0  0  0  0  0  0  0  0  0  0  0
    6.9901    3.2973  -15.0465 H   0  0  0  0  0  0  0  0  0  0  0  0
    9.3541    3.9412  -14.4231 H   0  0  0  0  0  0  0  0  0  0  0  0
    9.3707    2.6187  -13.2805 H   0  0  0  0  0  0  0  0  0  0  0  0
    7.2909    3.6954  -12.1839 H   0  0  0  0  0  0  0  0  0  0  0  0
    7.5513    5.0786  -13.2069 H   0  0  0  0  0  0  0  0  0  0  0  0
    9.7177    5.5291  -12.1986 H   0  0  0  0  0  0  0  0  0  0  0  0
    9.7370    3.9839  -11.3752 H   0  0  0  0  0  0  0  0  0  0  0  0
    7.7908    4.6097  -10.0163 H   0  0  0  0  0  0  0  0  0  0  0  0
    7.6856    6.1723  -10.7803 H   0  0  0  0  0  0  0  0  0  0  0  0
    8.5422    4.8180   -7.8796 H   0  0  0  0  0  0  0  0  0  0  0  0
    8.0862    6.5106   -7.9292 H   0  0  0  0  0  0  0  0  0  0  0  0
   10.8364    5.3858   -7.1987 H   0  0  0  0  0  0  0  0  0  0  0  0
    9.6787    6.1725   -6.1225 H   0  0  0  0  0  0  0  0  0  0  0  0
   12.2318   10.2110   -2.5399 H   0  0  0  0  0  0  0  0  0  0  0  0
   12.6123    8.0709   -1.3340 H   0  0  0  0  0  0  0  0  0  0  0  0
   12.2502    5.9091   -2.5228 H   0  0  0  0  0  0  0  0  0  0  0  0
   11.5585    5.8837   -4.8793 H   0  0  0  0  0  0  0  0  0  0  0  0
   11.2631    8.7278   -9.0557 H   0  0  0  0  0  0  0  0  0  0  0  0
   11.8741    7.1028   -9.1511 H   0  0  0  0  0  0  0  0  0  0  0  0
   10.1396    7.3827  -10.8434 H   0  0  0  0  0  0  0  0  0  0  0  0
    8.9932    7.9986   -9.6727 H   0  0  0  0  0  0  0  0  0  0  0  0
    6.6354   -0.2689  -13.9832 H   0  0  0  0  0  0  0  0  0  0  0  0
    4.6636   -1.7852  -13.8601 H   0  0  0  0  0  0  0  0  0  0  0  0
    3.2468   -2.2278  -15.8551 H   0  0  0  0  0  0  0  0  0  0  0  0
    4.7354    1.3861  -19.6511 H   0  0  0  0  0  0  0  0  0  0  0  0
    6.1783    0.6536  -20.3366 H   0  0  0  0  0  0  0  0  0  0  0  0
    5.3831   -1.5879  -19.8401 H   0  0  0  0  0  0  0  0  0  0  0  0
    4.0864   -0.7656  -20.6591 H   0  0  0  0  0  0  0  0  0  0  0  0
    3.3227   -2.1160  -18.6428 H   0  0  0  0  0  0  0  0  0  0  0  0
    2.8867   -0.4282  -18.5337 H   0  0  0  0  0  0  0  0  0  0  0  0
   10.1697    5.3230   -9.5656 H   0  0  0  0  0  0  0  0  0  0  0  0
  2  1  2  0
  3  2  1  0
  4  3  1  0
  5  4  1  0
  6  5  1  0
  7  6  1  0
  8  7  1  0
  9  8  1  0
 10  9  1  0
 11 10  1  0
 12 11  1  0
 13 12  1  0
 14 13  1  0
 15 14  2  0
 16 15  1  0
 17 16  1  0
 18 17  2  0
 19 18  1  0
 20 19  2  0
 21 20  1  0
 22 14  1  0
 22 17  1  0
 22 21  2  0
 23 13  1  0
 24 10  1  0
 24 23  1  0
 25  3  1  0
 26 25  2  0
 27 26  1  0
 28 27  2  0
 29 28  1  0
 30 25  1  0
 30 29  2  0
 31  2  1  0
 31 30  1  0
 32 31  1  0
 33 32  1  0
 34 29  1  0
 34 33  1  0
 35  4  1  0
 36  4  1  0
 37  5  1  0
 38  5  1  0
 39  6  1  0
 40  6  1  0
 41  7  1  0
 42  7  1  0
 43  8  1  0
 44  8  1  0
 45  9  1  0
 46  9  1  0
 47 11  1  0
 48 11  1  0
 49 12  1  0
 50 12  1  0
 51 18  1  0
 52 19  1  0
 53 20  1  0
 54 21  1  0
 55 23  1  0
 56 23  1  0
 57 24  1  0
 58 24  1  0
 59 26  1  0
 60 27  1  0
 61 28  1  0
 62 32  1  0
 63 32  1  0
 64 33  1  0
 65 33  1  0
 66 34  1  0
 67 34  1  0
 68 10  1  0
M  CHG  1  10   1
M  END
>  <b_m_subgroup_collapsed>  (284) 
0

>  <r_i_docking_score>  (284) 
-8.3349071957097003

>  <s_m_subgroup_title>  (284) 
glide-dock_SP_D22_pv

>  <s_m_subgroupid>  (284) 
glide-dock_SP_D22_pv

>  <Molecule ChEMBL ID>  (284) 
CHEMBL4642981

>  <Standard Type>  (284) 
Ki

>  <Standard Value>  (284) 
1.0

>  <label>  (284) 
1

$$$$
CHEMBL240774
     RDKit          3D

 54 57  0  0  1  0  0  0  0  0999 V2000
    9.4581    3.8208  -16.2429 O   0  0  0  0  0  0  0  0  0  0  0  0
   10.2135    4.4663  -15.5171 C   0  0  0  0  0  0  0  0  0  0  0  0
   11.2263    5.4428  -15.9826 C   0  0  0  0  0  0  0  0  0  0  0  0
   11.4955    5.8617  -17.2961 C   0  0  0  0  0  0  0  0  0  0  0  0
   12.4904    6.8494  -17.4737 C   0  0  0  0  0  0  0  0  0  0  0  0
   13.1785    7.3914  -16.3591 C   0  0  0  0  0  0  0  0  0  0  0  0
   12.8861    6.9535  -15.0468 C   0  0  0  0  0  0  0  0  0  0  0  0
   11.9019    5.9622  -14.8950 C   0  0  0  0  0  0  0  0  0  0  0  0
   11.3678    5.3115  -13.6442 C   0  0  0  0  0  0  0  0  0  0  0  0
   10.2841    4.4573  -14.1674 N   0  0  0  0  0  0  0  0  0  0  0  0
    9.4235    3.6689  -13.2867 C   0  0  0  0  0  0  0  0  0  0  0  0
    8.0655    4.3591  -13.0150 C   0  0  0  0  0  0  0  0  0  0  0  0
    8.1129    5.5370  -12.0203 C   0  0  0  0  0  0  0  0  0  0  0  0
    8.4414    5.0803  -10.5863 C   0  0  0  0  0  0  0  0  0  0  0  0
    8.4861    6.1723   -9.5775 N   0  0  0  0  0  0  0  0  0  0  0  0
    9.5879    7.1428   -9.8181 C   0  0  0  0  0  0  0  0  0  0  0  0
    9.7097    8.1958   -8.7018 C   0  0  0  0  0  0  0  0  0  0  0  0
    9.7342    7.5551   -7.3903 N   0  0  0  0  0  0  0  0  0  0  0  0
   10.6080    7.9673   -6.3628 C   0  0  0  0  0  0  0  0  0  0  0  0
   11.2417    9.2287   -6.4039 C   0  0  0  0  0  0  0  0  0  0  0  0
   12.0965    9.6333   -5.3675 C   0  0  0  0  0  0  0  0  0  0  0  0
   12.3046    8.8151   -4.2452 C   0  0  0  0  0  0  0  0  0  0  0  0
   11.7053    7.5464   -4.1980 C   0  0  0  0  0  0  0  0  0  0  0  0
   10.8860    7.1243   -5.2590 C   0  0  0  0  0  0  0  0  0  0  0  0
    8.6183    6.6601   -7.1106 C   0  0  0  0  0  0  0  0  0  0  0  0
    8.5415    5.5936   -8.2069 C   0  0  0  0  0  0  0  0  0  0  0  0
   10.9542    5.4517  -18.1365 H   0  0  0  0  0  0  0  0  0  0  0  0
   12.7226    7.2014  -18.4677 H   0  0  0  0  0  0  0  0  0  0  0  0
   13.9287    8.1516  -16.5163 H   0  0  0  0  0  0  0  0  0  0  0  0
   13.4029    7.3688  -14.1938 H   0  0  0  0  0  0  0  0  0  0  0  0
   11.0033    6.0600  -12.9415 H   0  0  0  0  0  0  0  0  0  0  0  0
   12.1450    4.7129  -13.1682 H   0  0  0  0  0  0  0  0  0  0  0  0
    9.9516    3.4323  -12.3640 H   0  0  0  0  0  0  0  0  0  0  0  0
    9.2396    2.7027  -13.7607 H   0  0  0  0  0  0  0  0  0  0  0  0
    7.3574    3.6185  -12.6429 H   0  0  0  0  0  0  0  0  0  0  0  0
    7.6422    4.7037  -13.9587 H   0  0  0  0  0  0  0  0  0  0  0  0
    7.1414    6.0325  -12.0123 H   0  0  0  0  0  0  0  0  0  0  0  0
    8.8209    6.2795  -12.3813 H   0  0  0  0  0  0  0  0  0  0  0  0
    9.3975    4.5580  -10.5556 H   0  0  0  0  0  0  0  0  0  0  0  0
    7.6861    4.3549  -10.2818 H   0  0  0  0  0  0  0  0  0  0  0  0
    9.4365    7.6583  -10.7658 H   0  0  0  0  0  0  0  0  0  0  0  0
   10.5296    6.5961   -9.8986 H   0  0  0  0  0  0  0  0  0  0  0  0
    8.8651    8.8846   -8.7408 H   0  0  0  0  0  0  0  0  0  0  0  0
   10.6095    8.7770   -8.8936 H   0  0  0  0  0  0  0  0  0  0  0  0
   11.0844    9.9148   -7.2206 H   0  0  0  0  0  0  0  0  0  0  0  0
   12.6092   10.5724   -5.4483 H   0  0  0  0  0  0  0  0  0  0  0  0
   12.9366    9.1504   -3.4359 H   0  0  0  0  0  0  0  0  0  0  0  0
   11.8791    6.8929   -3.3543 H   0  0  0  0  0  0  0  0  0  0  0  0
   10.4691    6.1376   -5.1870 H   0  0  0  0  0  0  0  0  0  0  0  0
    8.6907    6.1723   -6.1458 H   0  0  0  0  0  0  0  0  0  0  0  0
    7.6965    7.2392   -7.0469 H   0  0  0  0  0  0  0  0  0  0  0  0
    7.6859    4.9512   -8.0231 H   0  0  0  0  0  0  0  0  0  0  0  0
    9.4212    4.9537   -8.1320 H   0  0  0  0  0  0  0  0  0  0  0  0
    7.6140    6.7047   -9.6530 H   0  0  0  0  0  0  0  0  0  0  0  0
  2  1  2  0
  3  2  1  0
  4  3  2  0
  5  4  1  0
  6  5  2  0
  7  6  1  0
  8  3  1  0
  8  7  2  0
  9  8  1  0
 10  2  1  0
 10  9  1  0
 11 10  1  0
 12 11  1  0
 13 12  1  0
 14 13  1  0
 15 14  1  0
 16 15  1  0
 17 16  1  0
 18 17  1  0
 19 18  1  0
 20 19  2  0
 21 20  1  0
 22 21  2  0
 23 22  1  0
 24 19  1  0
 24 23  2  0
 25 18  1  0
 26 15  1  0
 26 25  1  0
 27  4  1  0
 28  5  1  0
 29  6  1  0
 30  7  1  0
 31  9  1  0
 32  9  1  0
 33 11  1  0
 34 11  1  0
 35 12  1  0
 36 12  1  0
 37 13  1  0
 38 13  1  0
 39 14  1  0
 40 14  1  0
 41 16  1  0
 42 16  1  0
 43 17  1  0
 44 17  1  0
 45 20  1  0
 46 21  1  0
 47 22  1  0
 48 23  1  0
 49 24  1  0
 50 25  1  0
 51 25  1  0
 52 26  1  0
 53 26  1  0
 54 15  1  0
M  CHG  1  15   1
M  END
>  <b_m_subgroup_collapsed>  (285) 
0

>  <r_i_docking_score>  (285) 
-8.3336457379481494

>  <s_m_subgroup_title>  (285) 
glide-dock_SP_D22_pv

>  <s_m_subgroupid>  (285) 
glide-dock_SP_D22_pv

>  <Molecule ChEMBL ID>  (285) 
CHEMBL240774

>  <Standard Type>  (285) 
Ki

>  <Standard Value>  (285) 
60.0

>  <label>  (285) 
1

$$$$
CHEMBL160932
     RDKit          3D

 47 50  0  0  1  0  0  0  0  0999 V2000
    6.7894    5.5213  -11.7535 C   0  0  0  0  0  0  0  0  0  0  0  0
    8.1385    5.3377  -12.3607 C   0  0  0  0  0  0  0  0  0  0  0  0
    8.4073    4.2534  -13.0527 N   0  0  0  0  0  0  0  0  0  0  0  0
    9.6939    4.4301  -13.4916 N   0  0  0  0  0  0  0  0  0  0  0  0
   10.4197    3.5689  -14.2706 C   0  0  0  0  0  0  0  0  0  0  0  0
    9.8743    2.2864  -14.7011 C   0  0  0  0  0  0  0  0  0  0  0  0
    9.4483    1.2669  -15.0466 N   0  0  0  0  0  0  0  0  0  0  0  0
   11.6913    3.9321  -14.6534 C   0  0  0  0  0  0  0  0  0  0  0  0
   12.2418    5.1692  -14.2441 C   0  0  0  0  0  0  0  0  0  0  0  0
   11.5209    6.0275  -13.4469 C   0  0  0  0  0  0  0  0  0  0  0  0
   10.2066    5.6674  -13.0414 C   0  0  0  0  0  0  0  0  0  0  0  0
    9.2256    6.2523  -12.2757 C   0  0  0  0  0  0  0  0  0  0  0  0
    9.2401    7.5878  -11.5645 C   0  0  0  0  0  0  0  0  0  0  0  0
    9.2860    7.4909  -10.0765 N   0  0  0  0  0  0  0  0  0  0  0  0
    9.2942    8.8308   -9.4287 C   0  0  0  0  0  0  0  0  0  0  0  0
    9.3137    8.7476   -7.8855 C   0  0  0  0  0  0  0  0  0  0  0  0
   10.4120    7.8940   -7.4333 N   0  0  0  0  0  0  0  0  0  0  0  0
   10.8878    8.0551   -6.1087 C   0  0  0  0  0  0  0  0  0  0  0  0
   11.0916    9.3466   -5.5595 C   0  0  0  0  0  0  0  0  0  0  0  0
   11.5661    9.5111   -4.2421 C   0  0  0  0  0  0  0  0  0  0  0  0
   11.8832    8.3881   -3.4573 C   0  0  0  0  0  0  0  0  0  0  0  0
   12.4861    8.5788   -1.8524 Cl  0  0  0  0  0  0  0  0  0  0  0  0
   11.6866    7.1005   -3.9810 C   0  0  0  0  0  0  0  0  0  0  0  0
   11.1941    6.9407   -5.2889 C   0  0  0  0  0  0  0  0  0  0  0  0
   10.4012    6.5579   -8.0271 C   0  0  0  0  0  0  0  0  0  0  0  0
   10.3683    6.6136   -9.5627 C   0  0  0  0  0  0  0  0  0  0  0  0
    6.2437    6.3328  -12.2379 H   0  0  0  0  0  0  0  0  0  0  0  0
    6.1779    4.6202  -11.8275 H   0  0  0  0  0  0  0  0  0  0  0  0
    6.8845    5.7723  -10.6984 H   0  0  0  0  0  0  0  0  0  0  0  0
   12.2808    3.2649  -15.2763 H   0  0  0  0  0  0  0  0  0  0  0  0
   13.2466    5.4429  -14.5542 H   0  0  0  0  0  0  0  0  0  0  0  0
   11.9467    6.9726  -13.1295 H   0  0  0  0  0  0  0  0  0  0  0  0
    8.3576    8.1636  -11.8529 H   0  0  0  0  0  0  0  0  0  0  0  0
   10.0953    8.1730  -11.8999 H   0  0  0  0  0  0  0  0  0  0  0  0
    8.4189    9.3934   -9.7525 H   0  0  0  0  0  0  0  0  0  0  0  0
   10.1717    9.3824   -9.7682 H   0  0  0  0  0  0  0  0  0  0  0  0
    8.3782    8.3179   -7.5276 H   0  0  0  0  0  0  0  0  0  0  0  0
    9.3618    9.7562   -7.4645 H   0  0  0  0  0  0  0  0  0  0  0  0
   10.8964   10.2335   -6.1416 H   0  0  0  0  0  0  0  0  0  0  0  0
   11.6861   10.5027   -3.8333 H   0  0  0  0  0  0  0  0  0  0  0  0
   11.9087    6.2322   -3.3781 H   0  0  0  0  0  0  0  0  0  0  0  0
   11.0487    5.9306   -5.6326 H   0  0  0  0  0  0  0  0  0  0  0  0
   11.2861    5.9979   -7.7349 H   0  0  0  0  0  0  0  0  0  0  0  0
    9.5357    6.0096   -7.6533 H   0  0  0  0  0  0  0  0  0  0  0  0
   10.2430    5.5997   -9.9419 H   0  0  0  0  0  0  0  0  0  0  0  0
   11.3268    6.9775   -9.9337 H   0  0  0  0  0  0  0  0  0  0  0  0
    8.3962    7.0821   -9.8089 H   0  0  0  0  0  0  0  0  0  0  0  0
  2  1  1  0
  3  2  2  0
  4  3  1  0
  5  4  1  0
  6  5  1  0
  7  6  3  0
  8  5  2  0
  9  8  1  0
 10  9  2  0
 11  4  1  0
 11 10  1  0
 12  2  1  0
 12 11  2  0
 13 12  1  0
 14 13  1  0
 15 14  1  0
 16 15  1  0
 17 16  1  0
 18 17  1  0
 19 18  1  0
 20 19  2  0
 21 20  1  0
 22 21  1  0
 23 21  2  0
 24 18  2  0
 24 23  1  0
 25 17  1  0
 26 14  1  0
 26 25  1  0
 27  1  1  0
 28  1  1  0
 29  1  1  0
 30  8  1  0
 31  9  1  0
 32 10  1  0
 33 13  1  0
 34 13  1  0
 35 15  1  0
 36 15  1  0
 37 16  1  0
 38 16  1  0
 39 19  1  0
 40 20  1  0
 41 23  1  0
 42 24  1  0
 43 25  1  0
 44 25  1  0
 45 26  1  0
 46 26  1  0
 47 14  1  0
M  CHG  1  14   1
M  END
>  <b_m_subgroup_collapsed>  (286) 
0

>  <r_i_docking_score>  (286) 
-8.3314981238488599

>  <s_m_subgroup_title>  (286) 
glide-dock_SP_D22_pv

>  <s_m_subgroupid>  (286) 
glide-dock_SP_D22_pv

>  <Molecule ChEMBL ID>  (286) 
CHEMBL160932

>  <Standard Type>  (286) 
Ki

>  <Standard Value>  (286) 
58000.0

>  <label>  (286) 
0

$$$$
CHEMBL485918
     RDKit          3D

 65 68  0  0  1  0  0  0  0  0999 V2000
    5.5460   -1.3561  -14.5024 C   0  0  0  0  0  0  0  0  0  0  0  0
    6.5254   -0.4388  -14.9514 O   0  0  0  0  0  0  0  0  0  0  0  0
    6.5560    0.8152  -14.3871 C   0  0  0  0  0  0  0  0  0  0  0  0
    5.6074    1.2971  -13.4509 C   0  0  0  0  0  0  0  0  0  0  0  0
    5.6853    2.6265  -12.9881 C   0  0  0  0  0  0  0  0  0  0  0  0
    6.7255    3.4671  -13.4243 C   0  0  0  0  0  0  0  0  0  0  0  0
    7.7045    2.9782  -14.3129 C   0  0  0  0  0  0  0  0  0  0  0  0
    8.8401    3.8750  -14.7648 C   0  0  0  0  0  0  0  0  0  0  0  0
   10.1903    3.5160  -14.1260 C   0  0  0  0  0  0  0  0  0  0  0  0
   11.2707    4.4922  -14.5631 C   0  0  0  0  0  0  0  0  0  0  0  0
   12.1384    4.1439  -15.6193 C   0  0  0  0  0  0  0  0  0  0  0  0
   13.1141    5.0547  -16.0639 C   0  0  0  0  0  0  0  0  0  0  0  0
   13.2202    6.3203  -15.4596 C   0  0  0  0  0  0  0  0  0  0  0  0
   12.3579    6.6725  -14.4032 C   0  0  0  0  0  0  0  0  0  0  0  0
   11.3832    5.7555  -13.9387 C   0  0  0  0  0  0  0  0  0  0  0  0
   10.5050    6.0322  -12.9134 O   0  0  0  0  0  0  0  0  0  0  0  0
   10.8145    7.0845  -12.0144 C   0  0  0  0  0  0  0  0  0  0  0  0
   10.0863    6.7622  -10.7071 C   0  0  0  0  0  0  0  0  0  0  0  0
   10.5370    7.6271   -9.5245 C   0  0  0  0  0  0  0  0  0  0  0  0
   10.0846    7.0176   -8.1882 C   0  0  0  0  0  0  0  0  0  0  0  0
   10.6801    7.7344   -7.0375 N   0  0  1  0  0  0  0  0  0  0  0  0
    9.9394    8.9627   -6.6666 C   0  0  0  0  0  0  0  0  0  0  0  0
   10.7766    9.8056   -5.6912 C   0  0  0  0  0  0  0  0  0  0  0  0
   11.3375    8.9894   -4.5423 C   0  0  0  0  0  0  0  0  0  0  0  0
   11.7769    9.6332   -3.3681 C   0  0  0  0  0  0  0  0  0  0  0  0
   12.3384    8.8890   -2.3136 C   0  0  0  0  0  0  0  0  0  0  0  0
   12.4564    7.4933   -2.4290 C   0  0  0  0  0  0  0  0  0  0  0  0
   12.0060    6.8466   -3.5922 C   0  0  0  0  0  0  0  0  0  0  0  0
   11.4412    7.5847   -4.6510 C   0  0  0  0  0  0  0  0  0  0  0  0
   10.9024    6.8450   -5.8690 C   0  0  0  0  0  0  0  0  0  0  0  0
    7.6036    1.6605  -14.8005 C   0  0  0  0  0  0  0  0  0  0  0  0
    5.6526   -2.2890  -15.0553 H   0  0  0  0  0  0  0  0  0  0  0  0
    5.6889   -1.5750  -13.4470 H   0  0  0  0  0  0  0  0  0  0  0  0
    4.5344   -0.9852  -14.6689 H   0  0  0  0  0  0  0  0  0  0  0  0
    4.7964    0.6814  -13.0966 H   0  0  0  0  0  0  0  0  0  0  0  0
    4.9498    3.0009  -12.2940 H   0  0  0  0  0  0  0  0  0  0  0  0
    6.7793    4.4834  -13.0607 H   0  0  0  0  0  0  0  0  0  0  0  0
    8.5886    4.9126  -14.5379 H   0  0  0  0  0  0  0  0  0  0  0  0
    8.9161    3.8134  -15.8511 H   0  0  0  0  0  0  0  0  0  0  0  0
   10.4789    2.4999  -14.3994 H   0  0  0  0  0  0  0  0  0  0  0  0
   10.1084    3.5223  -13.0376 H   0  0  0  0  0  0  0  0  0  0  0  0
   12.0566    3.1769  -16.0949 H   0  0  0  0  0  0  0  0  0  0  0  0
   13.7792    4.7808  -16.8702 H   0  0  0  0  0  0  0  0  0  0  0  0
   13.9665    7.0207  -15.8056 H   0  0  0  0  0  0  0  0  0  0  0  0
   12.4579    7.6551  -13.9694 H   0  0  0  0  0  0  0  0  0  0  0  0
   11.8881    7.1437  -11.8255 H   0  0  0  0  0  0  0  0  0  0  0  0
   10.4816    8.0392  -12.4185 H   0  0  0  0  0  0  0  0  0  0  0  0
    9.0064    6.8447  -10.8437 H   0  0  0  0  0  0  0  0  0  0  0  0
   10.2786    5.7167  -10.4698 H   0  0  0  0  0  0  0  0  0  0  0  0
   11.6256    7.7039   -9.5302 H   0  0  0  0  0  0  0  0  0  0  0  0
   10.1531    8.6403   -9.6426 H   0  0  0  0  0  0  0  0  0  0  0  0
    8.9953    6.9968   -8.1151 H   0  0  0  0  0  0  0  0  0  0  0  0
   10.4128    5.9770   -8.1632 H   0  0  0  0  0  0  0  0  0  0  0  0
    9.7104    9.5549   -7.5517 H   0  0  0  0  0  0  0  0  0  0  0  0
    8.9753    8.6812   -6.2401 H   0  0  0  0  0  0  0  0  0  0  0  0
   10.1905   10.6312   -5.2885 H   0  0  0  0  0  0  0  0  0  0  0  0
   11.6202   10.2499   -6.2233 H   0  0  0  0  0  0  0  0  0  0  0  0
   11.6844   10.7009   -3.2565 H   0  0  0  0  0  0  0  0  0  0  0  0
   12.6742    9.3907   -1.4166 H   0  0  0  0  0  0  0  0  0  0  0  0
   12.8857    6.9140   -1.6246 H   0  0  0  0  0  0  0  0  0  0  0  0
   12.0837    5.7717   -3.6654 H   0  0  0  0  0  0  0  0  0  0  0  0
    9.9674    6.3597   -5.5863 H   0  0  0  0  0  0  0  0  0  0  0  0
   11.6065    6.0572   -6.1431 H   0  0  0  0  0  0  0  0  0  0  0  0
    8.3332    1.2889  -15.5058 H   0  0  0  0  0  0  0  0  0  0  0  0
   11.5996    8.0325   -7.3325 H   0  0  0  0  0  0  0  0  0  0  0  0
  2  1  1  0
  3  2  1  0
  4  3  1  0
  5  4  2  0
  6  5  1  0
  7  6  2  0
  8  7  1  0
  9  8  1  0
 10  9  1  0
 11 10  2  0
 12 11  1  0
 13 12  2  0
 14 13  1  0
 15 10  1  0
 15 14  2  0
 16 15  1  0
 17 16  1  0
 18 17  1  0
 19 18  1  0
 20 19  1  0
 21 20  1  0
 22 21  1  0
 23 22  1  0
 24 23  1  0
 25 24  2  0
 26 25  1  0
 27 26  2  0
 28 27  1  0
 29 24  1  0
 29 28  2  0
 30 21  1  0
 30 29  1  0
 31  3  2  0
 31  7  1  0
 32  1  1  0
 33  1  1  0
 34  1  1  0
 35  4  1  0
 36  5  1  0
 37  6  1  0
 38  8  1  0
 39  8  1  0
 40  9  1  0
 41  9  1  0
 42 11  1  0
 43 12  1  0
 44 13  1  0
 45 14  1  0
 46 17  1  0
 47 17  1  0
 48 18  1  0
 49 18  1  0
 50 19  1  0
 51 19  1  0
 52 20  1  0
 53 20  1  0
 54 22  1  0
 55 22  1  0
 56 23  1  0
 57 23  1  0
 58 25  1  0
 59 26  1  0
 60 27  1  0
 61 28  1  0
 62 30  1  0
 63 30  1  0
 64 31  1  0
 21 65  1  6
M  CHG  1  21   1
M  END
>  <b_m_subgroup_collapsed>  (287) 
0

>  <r_i_docking_score>  (287) 
-8.3313682244346108

>  <s_m_subgroup_title>  (287) 
glide-dock_SP_D22_pv

>  <s_m_subgroupid>  (287) 
glide-dock_SP_D22_pv

>  <Molecule ChEMBL ID>  (287) 
CHEMBL485918

>  <Standard Type>  (287) 
Ki

>  <Standard Value>  (287) 
1000000.0

>  <label>  (287) 
0

$$$$
CHEMBL542148
     RDKit          3D

 35 36  0  0  1  0  0  0  0  0999 V2000
    9.2269    5.0905   -8.9801 C   0  0  0  0  0  0  0  0  0  0  0  0
    8.7166    6.3893   -8.4866 N   0  0  0  0  0  0  0  0  0  0  0  0
    8.3565    6.4133   -7.0474 C   0  0  0  0  0  0  0  0  0  0  0  0
    9.4120    7.5961   -9.0177 C   0  0  0  0  0  0  0  0  0  0  0  0
   10.8160    8.0060   -8.4599 C   0  0  1  0  0  0  0  0  0  0  0  0
   11.9151    7.9576   -9.5368 C   0  0  0  0  0  0  0  0  0  0  0  0
   10.6831    9.3723   -8.0863 O   0  0  0  0  0  0  0  0  0  0  0  0
   10.8869    9.4853   -6.7401 C   0  0  0  0  0  0  0  0  0  0  0  0
   11.2135    8.3616   -6.0986 C   0  0  0  0  0  0  0  0  0  0  0  0
   11.5757    8.2320   -4.6756 C   0  0  0  0  0  0  0  0  0  0  0  0
   11.8174    9.3933   -3.9145 C   0  0  0  0  0  0  0  0  0  0  0  0
   12.2611    9.2879   -2.5875 C   0  0  0  0  0  0  0  0  0  0  0  0
   12.4422    8.0275   -2.0012 C   0  0  0  0  0  0  0  0  0  0  0  0
   12.1210    6.8647   -2.7229 C   0  0  0  0  0  0  0  0  0  0  0  0
   11.6862    6.9664   -4.0569 C   0  0  0  0  0  0  0  0  0  0  0  0
   11.2860    7.3682   -7.1513 C   0  0  0  0  0  0  0  0  0  0  0  0
   11.6749    6.2073   -7.0468 O   0  0  0  0  0  0  0  0  0  0  0  0
   10.2381    4.8837   -8.6359 H   0  0  0  0  0  0  0  0  0  0  0  0
    8.5811    4.2763   -8.6475 H   0  0  0  0  0  0  0  0  0  0  0  0
    9.2349    5.0760  -10.0705 H   0  0  0  0  0  0  0  0  0  0  0  0
    9.1454    6.0534   -6.3946 H   0  0  0  0  0  0  0  0  0  0  0  0
    8.0852    7.4202   -6.7284 H   0  0  0  0  0  0  0  0  0  0  0  0
    7.4958    5.7718   -6.8797 H   0  0  0  0  0  0  0  0  0  0  0  0
    8.7209    8.4273   -8.8653 H   0  0  0  0  0  0  0  0  0  0  0  0
    9.4633    7.4962  -10.1029 H   0  0  0  0  0  0  0  0  0  0  0  0
   11.9816    6.9724   -9.9952 H   0  0  0  0  0  0  0  0  0  0  0  0
   11.7094    8.6749  -10.3323 H   0  0  0  0  0  0  0  0  0  0  0  0
   12.8961    8.2061   -9.1272 H   0  0  0  0  0  0  0  0  0  0  0  0
   10.7751   10.4870   -6.3523 H   0  0  0  0  0  0  0  0  0  0  0  0
   11.6870   10.3749   -4.3416 H   0  0  0  0  0  0  0  0  0  0  0  0
   12.4847   10.1725   -2.0155 H   0  0  0  0  0  0  0  0  0  0  0  0
   12.8219    7.9592   -0.9953 H   0  0  0  0  0  0  0  0  0  0  0  0
   12.2293    5.8928   -2.2625 H   0  0  0  0  0  0  0  0  0  0  0  0
   11.4651    6.0567   -4.5940 H   0  0  0  0  0  0  0  0  0  0  0  0
    7.8033    6.4847   -8.9236 H   0  0  0  0  0  0  0  0  0  0  0  0
  2  1  1  0
  3  2  1  0
  4  2  1  0
  5  4  1  6
  6  5  1  0
  7  5  1  0
  8  7  1  0
  9  8  2  0
 10  9  1  0
 11 10  2  0
 12 11  1  0
 13 12  2  0
 14 13  1  0
 15 10  1  0
 15 14  2  0
 16  5  1  0
 16  9  1  0
 17 16  2  0
 18  1  1  0
 19  1  1  0
 20  1  1  0
 21  3  1  0
 22  3  1  0
 23  3  1  0
 24  4  1  0
 25  4  1  0
 26  6  1  0
 27  6  1  0
 28  6  1  0
 29  8  1  0
 30 11  1  0
 31 12  1  0
 32 13  1  0
 33 14  1  0
 34 15  1  0
 35  2  1  0
M  CHG  1   2   1
M  END
>  <b_m_subgroup_collapsed>  (288) 
0

>  <r_i_docking_score>  (288) 
-8.3310849717772193

>  <s_m_subgroup_title>  (288) 
glide-dock_SP_D22_pv

>  <s_m_subgroupid>  (288) 
glide-dock_SP_D22_pv

>  <Molecule ChEMBL ID>  (288) 
CHEMBL542148

>  <Standard Type>  (288) 
Ki

>  <Standard Value>  (288) 
10000.0

>  <label>  (288) 
0

$$$$
CHEMBL457889
     RDKit          3D

 70 73  0  0  1  0  0  0  0  0999 V2000
   13.3410   -0.8539  -19.7384 C   0  0  0  0  0  0  0  0  0  0  0  0
   12.1091   -0.9960  -19.0467 O   0  0  0  0  0  0  0  0  0  0  0  0
   11.7158    0.0266  -18.2112 C   0  0  0  0  0  0  0  0  0  0  0  0
   12.3564    1.2889  -18.1392 C   0  0  0  0  0  0  0  0  0  0  0  0
   11.9120    2.2594  -17.2182 C   0  0  0  0  0  0  0  0  0  0  0  0
   10.8310    1.9814  -16.3617 C   0  0  0  0  0  0  0  0  0  0  0  0
   10.1805    0.7340  -16.4305 C   0  0  0  0  0  0  0  0  0  0  0  0
    9.0114    0.4291  -15.5145 C   0  0  0  0  0  0  0  0  0  0  0  0
    7.6746    0.7785  -16.1818 C   0  0  0  0  0  0  0  0  0  0  0  0
    6.4686    0.4484  -15.3176 C   0  0  0  0  0  0  0  0  0  0  0  0
    5.6860   -0.6801  -15.6373 C   0  0  0  0  0  0  0  0  0  0  0  0
    4.5165   -0.9669  -14.9106 C   0  0  0  0  0  0  0  0  0  0  0  0
    4.1371   -0.1339  -13.8468 C   0  0  0  0  0  0  0  0  0  0  0  0
    4.9325    0.9770  -13.4953 C   0  0  0  0  0  0  0  0  0  0  0  0
    6.0947    1.2947  -14.2465 C   0  0  0  0  0  0  0  0  0  0  0  0
    6.8773    2.4111  -14.0293 O   0  0  0  0  0  0  0  0  0  0  0  0
    6.4924    3.3707  -13.0537 C   0  0  0  0  0  0  0  0  0  0  0  0
    7.7007    4.2932  -12.8554 C   0  0  0  0  0  0  0  0  0  0  0  0
    7.6441    5.0785  -11.5398 C   0  0  0  0  0  0  0  0  0  0  0  0
    8.9083    5.9223  -11.3113 C   0  0  0  0  0  0  0  0  0  0  0  0
    8.8859    6.5985   -9.9928 N   0  0  0  0  0  0  0  0  0  0  0  0
    9.2549    5.7081   -8.8564 C   0  0  0  0  0  0  0  0  0  0  0  0
    9.1461    6.4325   -7.5024 C   0  0  0  0  0  0  0  0  0  0  0  0
    9.8653    7.7028   -7.5395 N   0  0  0  0  0  0  0  0  0  0  0  0
   10.7303    8.1256   -6.4992 C   0  0  0  0  0  0  0  0  0  0  0  0
   11.5000    9.3032   -6.6460 C   0  0  0  0  0  0  0  0  0  0  0  0
   12.3239    9.7719   -5.6155 C   0  0  0  0  0  0  0  0  0  0  0  0
   12.4268    9.0732   -4.4031 C   0  0  0  0  0  0  0  0  0  0  0  0
   11.7232    7.8703   -4.2483 C   0  0  0  0  0  0  0  0  0  0  0  0
   11.9006    6.9723   -2.7844 Cl  0  0  0  0  0  0  0  0  0  0  0  0
   10.8861    7.4017   -5.2833 C   0  0  0  0  0  0  0  0  0  0  0  0
    9.4423    8.5865   -8.6279 C   0  0  0  0  0  0  0  0  0  0  0  0
    9.6238    7.8828   -9.9781 C   0  0  0  0  0  0  0  0  0  0  0  0
   10.6166   -0.2279  -17.3644 C   0  0  0  0  0  0  0  0  0  0  0  0
   13.5634   -1.7787  -20.2713 H   0  0  0  0  0  0  0  0  0  0  0  0
   13.2912   -0.0504  -20.4750 H   0  0  0  0  0  0  0  0  0  0  0  0
   14.1663   -0.6666  -19.0503 H   0  0  0  0  0  0  0  0  0  0  0  0
   13.1974    1.5321  -18.7703 H   0  0  0  0  0  0  0  0  0  0  0  0
   12.4098    3.2170  -17.1645 H   0  0  0  0  0  0  0  0  0  0  0  0
   10.4994    2.7281  -15.6556 H   0  0  0  0  0  0  0  0  0  0  0  0
    9.1287    0.9817  -14.5814 H   0  0  0  0  0  0  0  0  0  0  0  0
    9.0351   -0.6276  -15.2474 H   0  0  0  0  0  0  0  0  0  0  0  0
    7.5907    0.2428  -17.1291 H   0  0  0  0  0  0  0  0  0  0  0  0
    7.6493    1.8390  -16.4350 H   0  0  0  0  0  0  0  0  0  0  0  0
    5.9714   -1.3284  -16.4544 H   0  0  0  0  0  0  0  0  0  0  0  0
    3.9103   -1.8209  -15.1793 H   0  0  0  0  0  0  0  0  0  0  0  0
    3.2206   -0.3401  -13.3136 H   0  0  0  0  0  0  0  0  0  0  0  0
    4.6002    1.6027  -12.6831 H   0  0  0  0  0  0  0  0  0  0  0  0
    5.6191    3.9326  -13.3908 H   0  0  0  0  0  0  0  0  0  0  0  0
    6.2378    2.8984  -12.1074 H   0  0  0  0  0  0  0  0  0  0  0  0
    8.6052    3.6863  -12.8512 H   0  0  0  0  0  0  0  0  0  0  0  0
    7.7914    4.9702  -13.7062 H   0  0  0  0  0  0  0  0  0  0  0  0
    6.7618    5.7228  -11.5247 H   0  0  0  0  0  0  0  0  0  0  0  0
    7.5209    4.3682  -10.7233 H   0  0  0  0  0  0  0  0  0  0  0  0
    9.8104    5.3135  -11.3991 H   0  0  0  0  0  0  0  0  0  0  0  0
    8.9640    6.6673  -12.1064 H   0  0  0  0  0  0  0  0  0  0  0  0
    8.6179    4.8253   -8.8382 H   0  0  0  0  0  0  0  0  0  0  0  0
   10.2786    5.3579   -8.9966 H   0  0  0  0  0  0  0  0  0  0  0  0
    8.0997    6.6306   -7.2636 H   0  0  0  0  0  0  0  0  0  0  0  0
    9.5220    5.7723   -6.7345 H   0  0  0  0  0  0  0  0  0  0  0  0
   11.5011    9.8802   -7.5516 H   0  0  0  0  0  0  0  0  0  0  0  0
   12.8861   10.6747   -5.7885 H   0  0  0  0  0  0  0  0  0  0  0  0
   13.0597    9.4470   -3.6103 H   0  0  0  0  0  0  0  0  0  0  0  0
   10.3431    6.4926   -5.0828 H   0  0  0  0  0  0  0  0  0  0  0  0
    8.3897    8.8233   -8.4747 H   0  0  0  0  0  0  0  0  0  0  0  0
    9.9368    9.5486   -8.6674 H   0  0  0  0  0  0  0  0  0  0  0  0
   10.6833    7.7072  -10.1761 H   0  0  0  0  0  0  0  0  0  0  0  0
    9.2474    8.5323  -10.7717 H   0  0  0  0  0  0  0  0  0  0  0  0
   10.1226   -1.1888  -17.4174 H   0  0  0  0  0  0  0  0  0  0  0  0
    7.9172    6.8863   -9.8481 H   0  0  0  0  0  0  0  0  0  0  0  0
  2  1  1  0
  3  2  1  0
  4  3  1  0
  5  4  2  0
  6  5  1  0
  7  6  2  0
  8  7  1  0
  9  8  1  0
 10  9  1  0
 11 10  2  0
 12 11  1  0
 13 12  2  0
 14 13  1  0
 15 10  1  0
 15 14  2  0
 16 15  1  0
 17 16  1  0
 18 17  1  0
 19 18  1  0
 20 19  1  0
 21 20  1  0
 22 21  1  0
 23 22  1  0
 24 23  1  0
 25 24  1  0
 26 25  2  0
 27 26  1  0
 28 27  2  0
 29 28  1  0
 30 29  1  0
 31 25  1  0
 31 29  2  0
 32 24  1  0
 33 21  1  0
 33 32  1  0
 34  3  2  0
 34  7  1  0
 35  1  1  0
 36  1  1  0
 37  1  1  0
 38  4  1  0
 39  5  1  0
 40  6  1  0
 41  8  1  0
 42  8  1  0
 43  9  1  0
 44  9  1  0
 45 11  1  0
 46 12  1  0
 47 13  1  0
 48 14  1  0
 49 17  1  0
 50 17  1  0
 51 18  1  0
 52 18  1  0
 53 19  1  0
 54 19  1  0
 55 20  1  0
 56 20  1  0
 57 22  1  0
 58 22  1  0
 59 23  1  0
 60 23  1  0
 61 26  1  0
 62 27  1  0
 63 28  1  0
 64 31  1  0
 65 32  1  0
 66 32  1  0
 67 33  1  0
 68 33  1  0
 69 34  1  0
 70 21  1  0
M  CHG  1  21   1
M  END
>  <b_m_subgroup_collapsed>  (289) 
0

>  <r_i_docking_score>  (289) 
-8.3305086147546898

>  <s_m_subgroup_title>  (289) 
glide-dock_SP_D22_pv

>  <s_m_subgroupid>  (289) 
glide-dock_SP_D22_pv

>  <Molecule ChEMBL ID>  (289) 
CHEMBL457889

>  <Standard Type>  (289) 
Ki

>  <Standard Value>  (289) 
1000000.0

>  <label>  (289) 
0

$$$$
CHEMBL4476394
     RDKit          3D

 68 71  0  0  1  0  0  0  0  0999 V2000
   10.0946   -0.7685  -16.8965 C   0  0  0  0  0  0  0  0  0  0  0  0
    8.6882   -0.2909  -17.2855 C   0  0  0  0  0  0  0  0  0  0  0  0
    8.0220    0.5364  -16.2009 C   0  0  0  0  0  0  0  0  0  0  0  0
    6.8819    0.0560  -15.5363 C   0  0  0  0  0  0  0  0  0  0  0  0
    6.2700    0.8224  -14.5296 C   0  0  0  0  0  0  0  0  0  0  0  0
    4.8753    0.1785  -13.7410 Cl  0  0  0  0  0  0  0  0  0  0  0  0
    6.7709    2.1005  -14.1825 C   0  0  0  0  0  0  0  0  0  0  0  0
    6.1049    2.7711  -13.1712 O   0  0  0  0  0  0  0  0  0  0  0  0
    5.6434    4.0989  -13.4009 C   0  0  0  0  0  0  0  0  0  0  0  0
    7.9555    2.5724  -14.8270 C   0  0  0  0  0  0  0  0  0  0  0  0
    8.5919    3.7798  -14.4823 N   0  0  0  0  0  0  0  0  0  0  0  0
    9.1741    4.6486  -15.5022 C   0  0  0  0  0  0  0  0  0  0  0  0
   10.6594    4.9169  -15.2404 C   0  0  0  0  0  0  0  0  0  0  0  0
   10.8455    5.3421  -13.8319 N   0  0  0  0  0  0  0  0  0  0  0  0
   12.1894    5.9017  -13.5479 C   0  0  0  0  0  0  0  0  0  0  0  0
   12.0800    7.3729  -13.0868 C   0  0  2  0  0  0  0  0  0  0  0  0
   13.2860    8.0351  -13.4109 O   0  0  0  0  0  0  0  0  0  0  0  0
   11.8229    7.5933  -11.5797 C   0  0  0  0  0  0  0  0  0  0  0  0
   10.3702    7.4167  -11.0990 C   0  0  0  0  0  0  0  0  0  0  0  0
   10.3658    7.2805   -9.6472 N   0  0  0  0  0  0  0  0  0  0  0  0
   10.1245    8.2924   -8.8086 C   0  0  0  0  0  0  0  0  0  0  0  0
    9.6854    9.3720   -9.1923 O   0  0  0  0  0  0  0  0  0  0  0  0
   10.5474    8.0973   -7.4105 C   0  0  0  0  0  0  0  0  0  0  0  0
   10.8674    6.9928   -6.6601 C   0  0  0  0  0  0  0  0  0  0  0  0
   11.2565    7.4717   -5.3605 C   0  0  0  0  0  0  0  0  0  0  0  0
   11.7049    6.8632   -4.1653 C   0  0  0  0  0  0  0  0  0  0  0  0
   12.0682    7.6324   -3.0408 C   0  0  0  0  0  0  0  0  0  0  0  0
   11.9317    9.0346   -3.0665 C   0  0  0  0  0  0  0  0  0  0  0  0
   11.4352    9.6649   -4.2234 C   0  0  0  0  0  0  0  0  0  0  0  0
   11.1324    8.8919   -5.3567 C   0  0  0  0  0  0  0  0  0  0  0  0
   10.6794    9.2228   -6.6152 N   0  0  0  0  0  0  0  0  0  0  0  0
   10.3551    4.3016  -12.8885 C   0  0  0  0  0  0  0  0  0  0  0  0
    8.8540    4.1148  -13.0917 C   0  0  0  0  0  0  0  0  0  0  0  0
    8.5513    1.7857  -15.8398 C   0  0  0  0  0  0  0  0  0  0  0  0
   10.5176   -1.3964  -17.6813 H   0  0  0  0  0  0  0  0  0  0  0  0
   10.7748    0.0698  -16.7447 H   0  0  0  0  0  0  0  0  0  0  0  0
   10.0848   -1.3519  -15.9762 H   0  0  0  0  0  0  0  0  0  0  0  0
    8.0614   -1.1511  -17.5225 H   0  0  0  0  0  0  0  0  0  0  0  0
    8.7393    0.3058  -18.1963 H   0  0  0  0  0  0  0  0  0  0  0  0
    6.4761   -0.9141  -15.7886 H   0  0  0  0  0  0  0  0  0  0  0  0
    5.3700    4.5395  -12.4410 H   0  0  0  0  0  0  0  0  0  0  0  0
    6.3636    4.7677  -13.8571 H   0  0  0  0  0  0  0  0  0  0  0  0
    4.7523    4.1200  -14.0186 H   0  0  0  0  0  0  0  0  0  0  0  0
    8.6206    5.5837  -15.4462 H   0  0  0  0  0  0  0  0  0  0  0  0
    9.0274    4.2674  -16.5130 H   0  0  0  0  0  0  0  0  0  0  0  0
   11.0084    5.6937  -15.9228 H   0  0  0  0  0  0  0  0  0  0  0  0
   11.2530    4.0224  -15.4375 H   0  0  0  0  0  0  0  0  0  0  0  0
   12.7712    5.8804  -14.4711 H   0  0  0  0  0  0  0  0  0  0  0  0
   12.7667    5.2837  -12.8614 H   0  0  0  0  0  0  0  0  0  0  0  0
   11.3032    7.8677  -13.6678 H   0  0  0  0  0  0  0  0  0  0  0  0
   14.0176    7.5387  -13.0585 H   0  0  0  0  0  0  0  0  0  0  0  0
   12.4860    6.9722  -10.9897 H   0  0  0  0  0  0  0  0  0  0  0  0
   12.1193    8.6087  -11.3135 H   0  0  0  0  0  0  0  0  0  0  0  0
    9.7624    8.2605  -11.4346 H   0  0  0  0  0  0  0  0  0  0  0  0
    9.8849    6.5433  -11.5094 H   0  0  0  0  0  0  0  0  0  0  0  0
   10.7033    6.4164   -9.2502 H   0  0  0  0  0  0  0  0  0  0  0  0
   10.8562    5.9615   -6.9759 H   0  0  0  0  0  0  0  0  0  0  0  0
   11.7961    5.7879   -4.1262 H   0  0  0  0  0  0  0  0  0  0  0  0
   12.4305    7.1416   -2.1483 H   0  0  0  0  0  0  0  0  0  0  0  0
   12.1877    9.6214   -2.1957 H   0  0  0  0  0  0  0  0  0  0  0  0
   11.2858   10.7336   -4.2448 H   0  0  0  0  0  0  0  0  0  0  0  0
   10.4757   10.1479   -6.9663 H   0  0  0  0  0  0  0  0  0  0  0  0
   10.8859    3.3644  -13.0599 H   0  0  0  0  0  0  0  0  0  0  0  0
   10.4864    4.5622  -11.8463 H   0  0  0  0  0  0  0  0  0  0  0  0
    8.3365    5.0434  -12.8473 H   0  0  0  0  0  0  0  0  0  0  0  0
    8.4721    3.3723  -12.4034 H   0  0  0  0  0  0  0  0  0  0  0  0
    9.4513    2.1209  -16.3325 H   0  0  0  0  0  0  0  0  0  0  0  0
   10.2093    6.1187  -13.7157 H   0  0  0  0  0  0  0  0  0  0  0  0
  2  1  1  0
  3  2  1  0
  4  3  1  0
  5  4  2  0
  6  5  1  0
  7  5  1  0
  8  7  1  0
  9  8  1  0
 10  7  2  0
 11 10  1  0
 12 11  1  0
 13 12  1  0
 14 13  1  0
 15 14  1  0
 16 15  1  0
 17 16  1  0
 18 16  1  0
 19 18  1  0
 20 19  1  0
 21 20  1  0
 22 21  2  0
 23 21  1  0
 24 23  2  0
 25 24  1  0
 26 25  2  0
 27 26  1  0
 28 27  2  0
 29 28  1  0
 30 25  1  0
 30 29  2  0
 31 23  1  0
 31 30  1  0
 32 14  1  0
 33 11  1  0
 33 32  1  0
 34  3  2  0
 34 10  1  0
 35  1  1  0
 36  1  1  0
 37  1  1  0
 38  2  1  0
 39  2  1  0
 40  4  1  0
 41  9  1  0
 42  9  1  0
 43  9  1  0
 44 12  1  0
 45 12  1  0
 46 13  1  0
 47 13  1  0
 48 15  1  0
 49 15  1  0
 16 50  1  6
 51 17  1  0
 52 18  1  0
 53 18  1  0
 54 19  1  0
 55 19  1  0
 56 20  1  0
 57 24  1  0
 58 26  1  0
 59 27  1  0
 60 28  1  0
 61 29  1  0
 62 31  1  0
 63 32  1  0
 64 32  1  0
 65 33  1  0
 66 33  1  0
 67 34  1  0
 68 14  1  0
M  CHG  1  14   1
M  END
>  <b_m_subgroup_collapsed>  (290) 
0

>  <r_i_docking_score>  (290) 
-8.3281703005426095

>  <s_m_subgroup_title>  (290) 
glide-dock_SP_D22_pv

>  <s_m_subgroupid>  (290) 
glide-dock_SP_D22_pv

>  <Molecule ChEMBL ID>  (290) 
CHEMBL4476394

>  <Standard Type>  (290) 
Ki

>  <Standard Value>  (290) 
11400.0

>  <label>  (290) 
0

$$$$
CHEMBL4555827
     RDKit          3D

 68 71  0  0  1  0  0  0  0  0999 V2000
   10.0946   -0.7685  -16.8965 C   0  0  0  0  0  0  0  0  0  0  0  0
    8.6882   -0.2909  -17.2855 C   0  0  0  0  0  0  0  0  0  0  0  0
    8.0220    0.5364  -16.2009 C   0  0  0  0  0  0  0  0  0  0  0  0
    6.8819    0.0560  -15.5363 C   0  0  0  0  0  0  0  0  0  0  0  0
    6.2700    0.8224  -14.5296 C   0  0  0  0  0  0  0  0  0  0  0  0
    4.8753    0.1785  -13.7410 Cl  0  0  0  0  0  0  0  0  0  0  0  0
    6.7709    2.1005  -14.1825 C   0  0  0  0  0  0  0  0  0  0  0  0
    6.1049    2.7711  -13.1712 O   0  0  0  0  0  0  0  0  0  0  0  0
    5.6434    4.0989  -13.4009 C   0  0  0  0  0  0  0  0  0  0  0  0
    7.9555    2.5724  -14.8270 C   0  0  0  0  0  0  0  0  0  0  0  0
    8.5919    3.7798  -14.4823 N   0  0  0  0  0  0  0  0  0  0  0  0
    9.1741    4.6486  -15.5022 C   0  0  0  0  0  0  0  0  0  0  0  0
   10.6594    4.9169  -15.2404 C   0  0  0  0  0  0  0  0  0  0  0  0
   10.8455    5.3421  -13.8319 N   0  0  0  0  0  0  0  0  0  0  0  0
   12.1894    5.9017  -13.5479 C   0  0  0  0  0  0  0  0  0  0  0  0
   12.0800    7.3729  -13.0868 C   0  0  2  0  0  0  0  0  0  0  0  0
   13.2860    8.0351  -13.4109 O   0  0  0  0  0  0  0  0  0  0  0  0
   11.8229    7.5933  -11.5797 C   0  0  0  0  0  0  0  0  0  0  0  0
   10.3702    7.4167  -11.0990 C   0  0  0  0  0  0  0  0  0  0  0  0
   10.3658    7.2805   -9.6472 N   0  0  0  0  0  0  0  0  0  0  0  0
   10.1245    8.2924   -8.8086 C   0  0  0  0  0  0  0  0  0  0  0  0
    9.6854    9.3720   -9.1923 O   0  0  0  0  0  0  0  0  0  0  0  0
   10.5474    8.0973   -7.4105 C   0  0  0  0  0  0  0  0  0  0  0  0
   10.8674    6.9928   -6.6601 C   0  0  0  0  0  0  0  0  0  0  0  0
   11.2565    7.4717   -5.3605 C   0  0  0  0  0  0  0  0  0  0  0  0
   11.7049    6.8632   -4.1653 C   0  0  0  0  0  0  0  0  0  0  0  0
   12.0682    7.6324   -3.0408 C   0  0  0  0  0  0  0  0  0  0  0  0
   11.9317    9.0346   -3.0665 C   0  0  0  0  0  0  0  0  0  0  0  0
   11.4352    9.6649   -4.2234 C   0  0  0  0  0  0  0  0  0  0  0  0
   11.1324    8.8919   -5.3567 C   0  0  0  0  0  0  0  0  0  0  0  0
   10.6794    9.2228   -6.6152 N   0  0  0  0  0  0  0  0  0  0  0  0
   10.3551    4.3016  -12.8885 C   0  0  0  0  0  0  0  0  0  0  0  0
    8.8540    4.1148  -13.0917 C   0  0  0  0  0  0  0  0  0  0  0  0
    8.5513    1.7857  -15.8398 C   0  0  0  0  0  0  0  0  0  0  0  0
   10.5176   -1.3964  -17.6813 H   0  0  0  0  0  0  0  0  0  0  0  0
   10.7748    0.0698  -16.7447 H   0  0  0  0  0  0  0  0  0  0  0  0
   10.0848   -1.3519  -15.9762 H   0  0  0  0  0  0  0  0  0  0  0  0
    8.0614   -1.1511  -17.5225 H   0  0  0  0  0  0  0  0  0  0  0  0
    8.7393    0.3058  -18.1963 H   0  0  0  0  0  0  0  0  0  0  0  0
    6.4761   -0.9141  -15.7886 H   0  0  0  0  0  0  0  0  0  0  0  0
    5.3700    4.5395  -12.4410 H   0  0  0  0  0  0  0  0  0  0  0  0
    6.3636    4.7677  -13.8571 H   0  0  0  0  0  0  0  0  0  0  0  0
    4.7523    4.1200  -14.0186 H   0  0  0  0  0  0  0  0  0  0  0  0
    8.6206    5.5837  -15.4462 H   0  0  0  0  0  0  0  0  0  0  0  0
    9.0274    4.2674  -16.5130 H   0  0  0  0  0  0  0  0  0  0  0  0
   11.0084    5.6937  -15.9228 H   0  0  0  0  0  0  0  0  0  0  0  0
   11.2530    4.0224  -15.4375 H   0  0  0  0  0  0  0  0  0  0  0  0
   12.7712    5.8804  -14.4711 H   0  0  0  0  0  0  0  0  0  0  0  0
   12.7667    5.2837  -12.8614 H   0  0  0  0  0  0  0  0  0  0  0  0
   11.3032    7.8677  -13.6678 H   0  0  0  0  0  0  0  0  0  0  0  0
   14.0176    7.5387  -13.0585 H   0  0  0  0  0  0  0  0  0  0  0  0
   12.4860    6.9722  -10.9897 H   0  0  0  0  0  0  0  0  0  0  0  0
   12.1193    8.6087  -11.3135 H   0  0  0  0  0  0  0  0  0  0  0  0
    9.7624    8.2605  -11.4346 H   0  0  0  0  0  0  0  0  0  0  0  0
    9.8849    6.5433  -11.5094 H   0  0  0  0  0  0  0  0  0  0  0  0
   10.7033    6.4164   -9.2502 H   0  0  0  0  0  0  0  0  0  0  0  0
   10.8562    5.9615   -6.9759 H   0  0  0  0  0  0  0  0  0  0  0  0
   11.7961    5.7879   -4.1262 H   0  0  0  0  0  0  0  0  0  0  0  0
   12.4305    7.1416   -2.1483 H   0  0  0  0  0  0  0  0  0  0  0  0
   12.1877    9.6214   -2.1957 H   0  0  0  0  0  0  0  0  0  0  0  0
   11.2858   10.7336   -4.2448 H   0  0  0  0  0  0  0  0  0  0  0  0
   10.4757   10.1479   -6.9663 H   0  0  0  0  0  0  0  0  0  0  0  0
   10.8859    3.3644  -13.0599 H   0  0  0  0  0  0  0  0  0  0  0  0
   10.4864    4.5622  -11.8463 H   0  0  0  0  0  0  0  0  0  0  0  0
    8.3365    5.0434  -12.8473 H   0  0  0  0  0  0  0  0  0  0  0  0
    8.4721    3.3723  -12.4034 H   0  0  0  0  0  0  0  0  0  0  0  0
    9.4513    2.1209  -16.3325 H   0  0  0  0  0  0  0  0  0  0  0  0
   10.2093    6.1187  -13.7157 H   0  0  0  0  0  0  0  0  0  0  0  0
  2  1  1  0
  3  2  1  0
  4  3  1  0
  5  4  2  0
  6  5  1  0
  7  5  1  0
  8  7  1  0
  9  8  1  0
 10  7  2  0
 11 10  1  0
 12 11  1  0
 13 12  1  0
 14 13  1  0
 15 14  1  0
 16 15  1  0
 17 16  1  0
 18 16  1  0
 19 18  1  0
 20 19  1  0
 21 20  1  0
 22 21  2  0
 23 21  1  0
 24 23  2  0
 25 24  1  0
 26 25  2  0
 27 26  1  0
 28 27  2  0
 29 28  1  0
 30 25  1  0
 30 29  2  0
 31 23  1  0
 31 30  1  0
 32 14  1  0
 33 11  1  0
 33 32  1  0
 34  3  2  0
 34 10  1  0
 35  1  1  0
 36  1  1  0
 37  1  1  0
 38  2  1  0
 39  2  1  0
 40  4  1  0
 41  9  1  0
 42  9  1  0
 43  9  1  0
 44 12  1  0
 45 12  1  0
 46 13  1  0
 47 13  1  0
 48 15  1  0
 49 15  1  0
 16 50  1  6
 51 17  1  0
 52 18  1  0
 53 18  1  0
 54 19  1  0
 55 19  1  0
 56 20  1  0
 57 24  1  0
 58 26  1  0
 59 27  1  0
 60 28  1  0
 61 29  1  0
 62 31  1  0
 63 32  1  0
 64 32  1  0
 65 33  1  0
 66 33  1  0
 67 34  1  0
 68 14  1  0
M  CHG  1  14   1
M  END
>  <b_m_subgroup_collapsed>  (291) 
0

>  <r_i_docking_score>  (291) 
-8.3281703005426095

>  <s_m_subgroup_title>  (291) 
glide-dock_SP_D22_pv

>  <s_m_subgroupid>  (291) 
glide-dock_SP_D22_pv

>  <Molecule ChEMBL ID>  (291) 
CHEMBL4555827

>  <Standard Type>  (291) 
Ki

>  <Standard Value>  (291) 
10800.0

>  <label>  (291) 
0

$$$$
CHEMBL4517296
     RDKit          3D

 62 65  0  0  1  0  0  0  0  0999 V2000
    7.0078    0.6949  -16.8885 C   0  0  0  0  0  0  0  0  0  0  0  0
    8.3040    0.7711  -16.2271 N   0  0  0  0  0  0  0  0  0  0  0  0
    9.4966    0.1894  -16.6746 C   0  0  0  0  0  0  0  0  0  0  0  0
    9.5970   -0.6423  -17.8983 C   0  0  0  0  0  0  0  0  0  0  0  0
   10.7744   -0.6073  -18.5191 N   0  0  0  0  0  0  0  0  0  0  0  0
    8.6559   -1.2889  -18.3469 O   0  0  0  0  0  0  0  0  0  0  0  0
   10.4862    0.5048  -15.7866 C   0  0  0  0  0  0  0  0  0  0  0  0
    9.9183    1.3170  -14.7762 C   0  0  0  0  0  0  0  0  0  0  0  0
    8.5880    1.4661  -15.0491 C   0  0  0  0  0  0  0  0  0  0  0  0
    7.6135    2.2447  -14.2858 C   0  0  0  0  0  0  0  0  0  0  0  0
    6.3648    1.7307  -13.8722 C   0  0  0  0  0  0  0  0  0  0  0  0
    5.5238    2.5045  -13.0469 C   0  0  0  0  0  0  0  0  0  0  0  0
    5.9391    3.7744  -12.5980 C   0  0  0  0  0  0  0  0  0  0  0  0
    7.1879    4.3015  -12.9848 C   0  0  0  0  0  0  0  0  0  0  0  0
    7.5645    5.5263  -12.4604 O   0  0  0  0  0  0  0  0  0  0  0  0
    8.8587    5.8730  -12.2125 C   0  0  0  0  0  0  0  0  0  0  0  0
    9.8590    5.2086  -12.4894 O   0  0  0  0  0  0  0  0  0  0  0  0
    8.8858    7.1022  -11.5787 N   0  0  0  0  0  0  0  0  0  0  0  0
   10.1302    7.7513  -11.1838 C   0  0  0  0  0  0  0  0  0  0  0  0
   10.8110    6.9906  -10.0292 C   0  0  0  0  0  0  0  0  0  0  0  0
   10.4048    7.5615   -8.7547 N   0  0  0  0  0  0  0  0  0  0  0  0
   11.3611    8.5879   -8.3196 C   0  0  0  0  0  0  0  0  0  0  0  0
   10.8609    9.2460   -7.0203 C   0  0  0  0  0  0  0  0  0  0  0  0
   10.6067    8.2239   -6.0137 N   0  0  0  0  0  0  0  0  0  0  0  0
   11.2874    8.1982   -4.7872 C   0  0  0  0  0  0  0  0  0  0  0  0
   11.6858    6.9785   -4.1951 C   0  0  0  0  0  0  0  0  0  0  0  0
   12.2756    6.9622   -2.9171 C   0  0  0  0  0  0  0  0  0  0  0  0
   12.4730    8.1656   -2.2169 C   0  0  0  0  0  0  0  0  0  0  0  0
   12.0916    9.3800   -2.8048 C   0  0  0  0  0  0  0  0  0  0  0  0
   11.5165    9.4011   -4.0870 C   0  0  0  0  0  0  0  0  0  0  0  0
    9.7444    7.1304   -6.4443 C   0  0  0  0  0  0  0  0  0  0  0  0
   10.3062    6.5142   -7.7328 C   0  0  0  0  0  0  0  0  0  0  0  0
    7.9931    3.5323  -13.8590 C   0  0  0  0  0  0  0  0  0  0  0  0
    6.5404   -0.2680  -16.6687 H   0  0  0  0  0  0  0  0  0  0  0  0
    6.3494    1.4969  -16.5604 H   0  0  0  0  0  0  0  0  0  0  0  0
    7.1286    0.7969  -17.9666 H   0  0  0  0  0  0  0  0  0  0  0  0
   11.5170   -0.0379  -18.1458 H   0  0  0  0  0  0  0  0  0  0  0  0
   10.8982   -1.1215  -19.3780 H   0  0  0  0  0  0  0  0  0  0  0  0
   11.5159    0.1907  -15.8529 H   0  0  0  0  0  0  0  0  0  0  0  0
   10.4241    1.7469  -13.9232 H   0  0  0  0  0  0  0  0  0  0  0  0
    6.0601    0.7397  -14.1692 H   0  0  0  0  0  0  0  0  0  0  0  0
    4.5677    2.1118  -12.7321 H   0  0  0  0  0  0  0  0  0  0  0  0
    5.3025    4.3419  -11.9324 H   0  0  0  0  0  0  0  0  0  0  0  0
    7.9907    7.4812  -11.2739 H   0  0  0  0  0  0  0  0  0  0  0  0
    9.9329    8.7932  -10.9249 H   0  0  0  0  0  0  0  0  0  0  0  0
   10.7968    7.7716  -12.0468 H   0  0  0  0  0  0  0  0  0  0  0  0
   11.8972    7.0226  -10.1326 H   0  0  0  0  0  0  0  0  0  0  0  0
   10.5355    5.9355  -10.0695 H   0  0  0  0  0  0  0  0  0  0  0  0
   11.4683    9.3470   -9.0942 H   0  0  0  0  0  0  0  0  0  0  0  0
   12.3453    8.1458   -8.1615 H   0  0  0  0  0  0  0  0  0  0  0  0
    9.9276    9.7727   -7.2118 H   0  0  0  0  0  0  0  0  0  0  0  0
   11.5894    9.9809   -6.6765 H   0  0  0  0  0  0  0  0  0  0  0  0
   11.5390    6.0390   -4.7064 H   0  0  0  0  0  0  0  0  0  0  0  0
   12.5650    6.0223   -2.4694 H   0  0  0  0  0  0  0  0  0  0  0  0
   12.9020    8.1580   -1.2260 H   0  0  0  0  0  0  0  0  0  0  0  0
   12.2172   10.3025   -2.2592 H   0  0  0  0  0  0  0  0  0  0  0  0
   11.1984   10.3468   -4.4970 H   0  0  0  0  0  0  0  0  0  0  0  0
    9.6201    6.3727   -5.6734 H   0  0  0  0  0  0  0  0  0  0  0  0
    8.7469    7.5312   -6.6366 H   0  0  0  0  0  0  0  0  0  0  0  0
    9.6337    5.7258   -8.0738 H   0  0  0  0  0  0  0  0  0  0  0  0
   11.2803    6.0562   -7.5533 H   0  0  0  0  0  0  0  0  0  0  0  0
    8.9429    3.9070  -14.2100 H   0  0  0  0  0  0  0  0  0  0  0  0
  2  1  1  0
  3  2  1  0
  4  3  1  0
  5  4  1  0
  6  4  2  0
  7  3  2  0
  8  7  1  0
  9  2  1  0
  9  8  2  0
 10  9  1  0
 11 10  2  0
 12 11  1  0
 13 12  2  0
 14 13  1  0
 15 14  1  0
 16 15  1  0
 17 16  2  0
 18 16  1  0
 19 18  1  0
 20 19  1  0
 21 20  1  0
 22 21  1  0
 23 22  1  0
 24 23  1  0
 25 24  1  0
 26 25  2  0
 27 26  1  0
 28 27  2  0
 29 28  1  0
 30 25  1  0
 30 29  2  0
 31 24  1  0
 32 21  1  0
 32 31  1  0
 33 10  1  0
 33 14  2  0
 34  1  1  0
 35  1  1  0
 36  1  1  0
 37  5  1  0
 38  5  1  0
 39  7  1  0
 40  8  1  0
 41 11  1  0
 42 12  1  0
 43 13  1  0
 44 18  1  0
 45 19  1  0
 46 19  1  0
 47 20  1  0
 48 20  1  0
 49 22  1  0
 50 22  1  0
 51 23  1  0
 52 23  1  0
 53 26  1  0
 54 27  1  0
 55 28  1  0
 56 29  1  0
 57 30  1  0
 58 31  1  0
 59 31  1  0
 60 32  1  0
 61 32  1  0
 62 33  1  0
M  END
>  <b_m_subgroup_collapsed>  (292) 
0

>  <r_i_docking_score>  (292) 
-8.3228063889307595

>  <s_m_subgroup_title>  (292) 
glide-dock_SP_D22_pv

>  <s_m_subgroupid>  (292) 
glide-dock_SP_D22_pv

>  <Molecule ChEMBL ID>  (292) 
CHEMBL4517296

>  <Standard Type>  (292) 
Ki

>  <Standard Value>  (292) 
56.23

>  <label>  (292) 
1

$$$$
CHEMBL485720
     RDKit          3D

 62 65  0  0  1  0  0  0  0  0999 V2000
    6.4190   -0.6276  -14.8579 C   0  0  0  0  0  0  0  0  0  0  0  0
    5.5760    0.2292  -14.1088 O   0  0  0  0  0  0  0  0  0  0  0  0
    6.0347    1.4925  -13.8092 C   0  0  0  0  0  0  0  0  0  0  0  0
    5.2061    2.2729  -12.9816 C   0  0  0  0  0  0  0  0  0  0  0  0
    5.5687    3.5798  -12.6110 C   0  0  0  0  0  0  0  0  0  0  0  0
    6.7699    4.1308  -13.0817 C   0  0  0  0  0  0  0  0  0  0  0  0
    7.6030    3.3732  -13.9279 C   0  0  0  0  0  0  0  0  0  0  0  0
    8.8538    4.0181  -14.4780 C   0  0  0  0  0  0  0  0  0  0  0  0
   10.0778    3.8526  -13.5675 C   0  0  0  0  0  0  0  0  0  0  0  0
   11.1248    4.8853  -13.9435 C   0  0  0  0  0  0  0  0  0  0  0  0
   11.9009    4.6839  -15.1029 C   0  0  0  0  0  0  0  0  0  0  0  0
   12.7773    5.6863  -15.5530 C   0  0  0  0  0  0  0  0  0  0  0  0
   12.8860    6.8901  -14.8375 C   0  0  0  0  0  0  0  0  0  0  0  0
   12.1503    7.0796  -13.6536 C   0  0  0  0  0  0  0  0  0  0  0  0
   11.2478    6.0856  -13.1977 C   0  0  0  0  0  0  0  0  0  0  0  0
   10.4756    6.2215  -12.0640 O   0  0  0  0  0  0  0  0  0  0  0  0
   10.3409    7.5047  -11.4691 C   0  0  0  0  0  0  0  0  0  0  0  0
    9.1212    7.4900  -10.5373 C   0  0  0  0  0  0  0  0  0  0  0  0
    9.2793    6.7885   -9.1640 C   0  0  0  0  0  0  0  0  0  0  0  0
   10.1235    7.4997   -8.1559 N   0  0  1  0  0  0  0  0  0  0  0  0
    9.6817    8.8765   -7.8072 C   0  0  0  0  0  0  0  0  0  0  0  0
   10.7930    9.5908   -7.0164 C   0  0  0  0  0  0  0  0  0  0  0  0
   11.2367    8.7924   -5.8220 C   0  0  0  0  0  0  0  0  0  0  0  0
   11.8670    9.4483   -4.7488 C   0  0  0  0  0  0  0  0  0  0  0  0
   12.2882    8.7279   -3.6189 C   0  0  0  0  0  0  0  0  0  0  0  0
   12.0855    7.3370   -3.5695 C   0  0  0  0  0  0  0  0  0  0  0  0
   11.4503    6.6849   -4.6448 C   0  0  0  0  0  0  0  0  0  0  0  0
   11.0218    7.3990   -5.7827 C   0  0  0  0  0  0  0  0  0  0  0  0
   10.3067    6.6752   -6.9258 C   0  0  0  0  0  0  0  0  0  0  0  0
    7.2454    2.0543  -14.2860 C   0  0  0  0  0  0  0  0  0  0  0  0
    5.9167   -1.5815  -15.0111 H   0  0  0  0  0  0  0  0  0  0  0  0
    6.6556   -0.2151  -15.8392 H   0  0  0  0  0  0  0  0  0  0  0  0
    7.3377   -0.8262  -14.3097 H   0  0  0  0  0  0  0  0  0  0  0  0
    4.2673    1.8658  -12.6469 H   0  0  0  0  0  0  0  0  0  0  0  0
    4.9263    4.1655  -11.9710 H   0  0  0  0  0  0  0  0  0  0  0  0
    7.0390    5.1391  -12.7991 H   0  0  0  0  0  0  0  0  0  0  0  0
    8.6379    5.0804  -14.6129 H   0  0  0  0  0  0  0  0  0  0  0  0
    9.0693    3.6305  -15.4744 H   0  0  0  0  0  0  0  0  0  0  0  0
   10.4851    2.8452  -13.6557 H   0  0  0  0  0  0  0  0  0  0  0  0
    9.7890    3.9672  -12.5216 H   0  0  0  0  0  0  0  0  0  0  0  0
   11.8009    3.7679  -15.6682 H   0  0  0  0  0  0  0  0  0  0  0  0
   13.3603    5.5316  -16.4492 H   0  0  0  0  0  0  0  0  0  0  0  0
   13.5633    7.6556  -15.1800 H   0  0  0  0  0  0  0  0  0  0  0  0
   12.3047    7.9923  -13.1052 H   0  0  0  0  0  0  0  0  0  0  0  0
   11.2494    7.8058  -10.9451 H   0  0  0  0  0  0  0  0  0  0  0  0
   10.1343    8.2363  -12.2511 H   0  0  0  0  0  0  0  0  0  0  0  0
    8.7417    8.5037  -10.4215 H   0  0  0  0  0  0  0  0  0  0  0  0
    8.3295    6.9723  -11.0755 H   0  0  0  0  0  0  0  0  0  0  0  0
    8.2877    6.6354   -8.7362 H   0  0  0  0  0  0  0  0  0  0  0  0
    9.6893    5.7923   -9.3326 H   0  0  0  0  0  0  0  0  0  0  0  0
    9.4701    9.4651   -8.6959 H   0  0  0  0  0  0  0  0  0  0  0  0
    8.7565    8.8303   -7.2319 H   0  0  0  0  0  0  0  0  0  0  0  0
   10.4857   10.5709   -6.6468 H   0  0  0  0  0  0  0  0  0  0  0  0
   11.6615    9.7539   -7.6531 H   0  0  0  0  0  0  0  0  0  0  0  0
   12.0247   10.5133   -4.8055 H   0  0  0  0  0  0  0  0  0  0  0  0
   12.7708    9.2380   -2.7983 H   0  0  0  0  0  0  0  0  0  0  0  0
   12.4030    6.7724   -2.7065 H   0  0  0  0  0  0  0  0  0  0  0  0
   11.2798    5.6253   -4.5871 H   0  0  0  0  0  0  0  0  0  0  0  0
    9.3333    6.3501   -6.5535 H   0  0  0  0  0  0  0  0  0  0  0  0
   10.8687    5.7754   -7.1817 H   0  0  0  0  0  0  0  0  0  0  0  0
    7.9041    1.4984  -14.9354 H   0  0  0  0  0  0  0  0  0  0  0  0
   11.0396    7.5970   -8.5709 H   0  0  0  0  0  0  0  0  0  0  0  0
  2  1  1  0
  3  2  1  0
  4  3  1  0
  5  4  2  0
  6  5  1  0
  7  6  2  0
  8  7  1  0
  9  8  1  0
 10  9  1  0
 11 10  2  0
 12 11  1  0
 13 12  2  0
 14 13  1  0
 15 10  1  0
 15 14  2  0
 16 15  1  0
 17 16  1  0
 18 17  1  0
 19 18  1  0
 20 19  1  0
 21 20  1  0
 22 21  1  0
 23 22  1  0
 24 23  2  0
 25 24  1  0
 26 25  2  0
 27 26  1  0
 28 23  1  0
 28 27  2  0
 29 20  1  0
 29 28  1  0
 30  3  2  0
 30  7  1  0
 31  1  1  0
 32  1  1  0
 33  1  1  0
 34  4  1  0
 35  5  1  0
 36  6  1  0
 37  8  1  0
 38  8  1  0
 39  9  1  0
 40  9  1  0
 41 11  1  0
 42 12  1  0
 43 13  1  0
 44 14  1  0
 45 17  1  0
 46 17  1  0
 47 18  1  0
 48 18  1  0
 49 19  1  0
 50 19  1  0
 51 21  1  0
 52 21  1  0
 53 22  1  0
 54 22  1  0
 55 24  1  0
 56 25  1  0
 57 26  1  0
 58 27  1  0
 59 29  1  0
 60 29  1  0
 61 30  1  0
 20 62  1  6
M  CHG  1  20   1
M  END
>  <b_m_subgroup_collapsed>  (293) 
0

>  <r_i_docking_score>  (293) 
-8.3164231212487607

>  <s_m_subgroup_title>  (293) 
glide-dock_SP_D22_pv

>  <s_m_subgroupid>  (293) 
glide-dock_SP_D22_pv

>  <Molecule ChEMBL ID>  (293) 
CHEMBL485720

>  <Standard Type>  (293) 
Ki

>  <Standard Value>  (293) 
114000.0

>  <label>  (293) 
0

$$$$
CHEMBL3104520
     RDKit          3D

 60 63  0  0  1  0  0  0  0  0999 V2000
   11.8157   11.3079   -6.2469 C   0  0  0  0  0  0  0  0  0  0  0  0
   11.2022   10.0774   -6.5193 O   0  0  0  0  0  0  0  0  0  0  0  0
   11.4022    9.0596   -5.6146 C   0  0  0  0  0  0  0  0  0  0  0  0
   12.0854    9.2344   -4.3791 C   0  0  0  0  0  0  0  0  0  0  0  0
   12.2338    8.1799   -3.4649 C   0  0  0  0  0  0  0  0  0  0  0  0
   11.7128    6.9208   -3.7813 C   0  0  0  0  0  0  0  0  0  0  0  0
   11.0523    6.7376   -5.0061 C   0  0  0  0  0  0  0  0  0  0  0  0
   10.8750    7.7851   -5.9299 C   0  0  0  0  0  0  0  0  0  0  0  0
   10.1699    7.5139   -7.1213 N   0  0  0  0  0  0  0  0  0  0  0  0
    8.8612    6.8872   -7.0193 C   0  0  0  0  0  0  0  0  0  0  0  0
    8.6798    5.9087   -8.1792 C   0  0  0  0  0  0  0  0  0  0  0  0
    8.8860    6.5652   -9.4979 N   0  0  0  0  0  0  0  0  0  0  0  0
    8.6921    5.5845  -10.5920 C   0  0  0  0  0  0  0  0  0  0  0  0
    8.4334    6.2276  -11.9707 C   0  0  0  0  0  0  0  0  0  0  0  0
    8.3092    5.2203  -13.1383 C   0  0  1  0  0  0  0  0  0  0  0  0
    9.6516    4.5316  -13.4388 C   0  0  0  0  0  0  0  0  0  0  0  0
    9.5618    3.6888  -14.7112 C   0  0  0  0  0  0  0  0  0  0  0  0
    8.4040    2.7099  -14.6667 C   0  0  0  0  0  0  0  0  0  0  0  0
    8.4890    1.5221  -15.4202 C   0  0  0  0  0  0  0  0  0  0  0  0
    7.4559    0.5696  -15.3697 C   0  0  0  0  0  0  0  0  0  0  0  0
    6.3138    0.7938  -14.5713 C   0  0  0  0  0  0  0  0  0  0  0  0
    5.2435   -0.2209  -14.4885 N   0  0  0  0  0  0  0  0  0  0  0  0
    4.3667   -0.0718  -13.6426 O   0  0  0  0  0  0  0  0  0  0  0  0
    5.2821   -1.1717  -15.2605 O   0  0  0  0  0  0  0  0  0  0  0  0
    6.2186    2.0052  -13.8468 C   0  0  0  0  0  0  0  0  0  0  0  0
    7.2566    2.9646  -13.8743 C   0  0  0  0  0  0  0  0  0  0  0  0
    7.1610    4.1903  -12.9639 C   0  0  2  0  0  0  0  0  0  0  0  0
    5.9126    4.8477  -13.0471 O   0  0  0  0  0  0  0  0  0  0  0  0
   10.1940    7.2754   -9.5768 C   0  0  0  0  0  0  0  0  0  0  0  0
   10.4390    8.2058   -8.3761 C   0  0  0  0  0  0  0  0  0  0  0  0
   11.6861   12.0168   -7.0569 H   0  0  0  0  0  0  0  0  0  0  0  0
   11.3541   11.7263   -5.3539 H   0  0  0  0  0  0  0  0  0  0  0  0
   12.8860   11.1568   -6.1453 H   0  0  0  0  0  0  0  0  0  0  0  0
   12.5140   10.1723   -4.0857 H   0  0  0  0  0  0  0  0  0  0  0  0
   12.7485    8.3384   -2.5283 H   0  0  0  0  0  0  0  0  0  0  0  0
   11.8184    6.0965   -3.0909 H   0  0  0  0  0  0  0  0  0  0  0  0
   10.6563    5.7723   -5.2340 H   0  0  0  0  0  0  0  0  0  0  0  0
    8.0882    7.6581   -7.0457 H   0  0  0  0  0  0  0  0  0  0  0  0
    8.7311    6.3565   -6.0785 H   0  0  0  0  0  0  0  0  0  0  0  0
    7.6860    5.4715   -8.1223 H   0  0  0  0  0  0  0  0  0  0  0  0
    9.3875    5.0848   -8.0724 H   0  0  0  0  0  0  0  0  0  0  0  0
    7.8282    4.9769  -10.3281 H   0  0  0  0  0  0  0  0  0  0  0  0
    9.5477    4.9092  -10.6215 H   0  0  0  0  0  0  0  0  0  0  0  0
    9.2295    6.9282  -12.2189 H   0  0  0  0  0  0  0  0  0  0  0  0
    7.5265    6.8290  -11.9186 H   0  0  0  0  0  0  0  0  0  0  0  0
    8.0860    5.8034  -14.0323 H   0  0  0  0  0  0  0  0  0  0  0  0
    9.9365    3.8830  -12.6096 H   0  0  0  0  0  0  0  0  0  0  0  0
   10.4476    5.2692  -13.5480 H   0  0  0  0  0  0  0  0  0  0  0  0
   10.4974    3.1475  -14.8597 H   0  0  0  0  0  0  0  0  0  0  0  0
    9.4308    4.3346  -15.5800 H   0  0  0  0  0  0  0  0  0  0  0  0
    9.3613    1.3257  -16.0266 H   0  0  0  0  0  0  0  0  0  0  0  0
    7.5547   -0.3453  -15.9365 H   0  0  0  0  0  0  0  0  0  0  0  0
    5.3540    2.1927  -13.2264 H   0  0  0  0  0  0  0  0  0  0  0  0
    7.2093    3.7721  -11.9624 H   0  0  0  0  0  0  0  0  0  0  0  0
    5.8716    5.5083  -12.3699 H   0  0  0  0  0  0  0  0  0  0  0  0
   10.9948    6.5365   -9.6158 H   0  0  0  0  0  0  0  0  0  0  0  0
   10.2599    7.8590  -10.4943 H   0  0  0  0  0  0  0  0  0  0  0  0
    9.7894    9.0799   -8.4429 H   0  0  0  0  0  0  0  0  0  0  0  0
   11.4700    8.5600   -8.4074 H   0  0  0  0  0  0  0  0  0  0  0  0
    8.1402    7.2519   -9.5897 H   0  0  0  0  0  0  0  0  0  0  0  0
  2  1  1  0
  3  2  1  0
  4  3  2  0
  5  4  1  0
  6  5  2  0
  7  6  1  0
  8  3  1  0
  8  7  2  0
  9  8  1  0
 10  9  1  0
 11 10  1  0
 12 11  1  0
 13 12  1  0
 14 13  1  0
 15 14  1  0
 16 15  1  0
 17 16  1  0
 18 17  1  0
 19 18  1  0
 20 19  2  0
 21 20  1  0
 22 21  1  0
 23 22  2  0
 24 22  1  0
 25 21  2  0
 26 18  2  0
 26 25  1  0
 27 15  1  0
 27 26  1  0
 28 27  1  0
 29 12  1  0
 30  9  1  0
 30 29  1  0
 31  1  1  0
 32  1  1  0
 33  1  1  0
 34  4  1  0
 35  5  1  0
 36  6  1  0
 37  7  1  0
 38 10  1  0
 39 10  1  0
 40 11  1  0
 41 11  1  0
 42 13  1  0
 43 13  1  0
 44 14  1  0
 45 14  1  0
 15 46  1  6
 47 16  1  0
 48 16  1  0
 49 17  1  0
 50 17  1  0
 51 19  1  0
 52 20  1  0
 53 25  1  0
 27 54  1  1
 55 28  1  0
 56 29  1  0
 57 29  1  0
 58 30  1  0
 59 30  1  0
 60 12  1  0
M  CHG  3  12   1  22   1  24  -1
M  END
>  <b_m_subgroup_collapsed>  (294) 
0

>  <r_i_docking_score>  (294) 
-8.3154511721720308

>  <s_m_subgroup_title>  (294) 
glide-dock_SP_D22_pv

>  <s_m_subgroupid>  (294) 
glide-dock_SP_D22_pv

>  <Molecule ChEMBL ID>  (294) 
CHEMBL3104520

>  <Standard Type>  (294) 
Ki

>  <Standard Value>  (294) 
19.05

>  <label>  (294) 
1

$$$$
CHEMBL3765285
     RDKit          3D

 62 66  0  0  1  0  0  0  0  0999 V2000
    9.1037    5.1014   -9.6064 C   0  0  0  0  0  0  0  0  0  0  0  0
    9.2855    6.4265  -10.1809 N   0  0  0  0  0  0  0  0  0  0  0  0
    8.9621    6.8279  -11.4263 C   0  0  0  0  0  0  0  0  0  0  0  0
    8.2061    5.7578  -12.5968 S   0  0  0  0  0  0  0  0  0  0  0  0
    9.7231    5.0124  -13.2380 C   0  0  0  0  0  0  0  0  0  0  0  0
    9.4053    3.8084  -14.1235 C   0  0  0  0  0  0  0  0  0  0  0  0
   10.6523    3.2557  -14.8234 C   0  0  0  0  0  0  0  0  0  0  0  0
   10.3662    2.2537  -15.8440 N   0  0  0  0  0  0  0  0  0  0  0  0
    9.9155    0.9844  -15.2820 C   0  0  0  0  0  0  0  0  0  0  0  0
    9.6039   -0.0296  -16.3926 C   0  0  0  0  0  0  0  0  0  0  0  0
   10.7618   -0.2185  -17.1979 O   0  0  0  0  0  0  0  0  0  0  0  0
   11.2477    0.9816  -17.8040 C   0  0  2  0  0  0  0  0  0  0  0  0
   12.4729    0.7120  -18.6684 C   0  0  0  0  0  0  0  0  0  0  0  0
   12.7960   -0.6081  -19.0459 C   0  0  0  0  0  0  0  0  0  0  0  0
   13.9376   -0.8743  -19.8236 C   0  0  0  0  0  0  0  0  0  0  0  0
   14.7714    0.1845  -20.2393 C   0  0  0  0  0  0  0  0  0  0  0  0
   16.0342   -0.0789  -21.0303 C   0  0  0  0  0  0  0  0  0  0  0  0
   17.0854    0.1673  -20.2475 F   0  0  0  0  0  0  0  0  0  0  0  0
   16.0859   -1.3441  -21.4475 F   0  0  0  0  0  0  0  0  0  0  0  0
   16.0920    0.7231  -22.0935 F   0  0  0  0  0  0  0  0  0  0  0  0
   14.4377    1.5086  -19.8910 C   0  0  0  0  0  0  0  0  0  0  0  0
   13.2936    1.7727  -19.1151 C   0  0  0  0  0  0  0  0  0  0  0  0
   11.5290    2.0128  -16.6877 C   0  0  0  0  0  0  0  0  0  0  0  0
    9.2879    8.0914  -11.6876 N   0  0  0  0  0  0  0  0  0  0  0  0
    9.8158    8.5711  -10.5163 N   0  0  0  0  0  0  0  0  0  0  0  0
    9.7744    7.5675   -9.6325 C   0  0  0  0  0  0  0  0  0  0  0  0
   10.2425    7.7547   -8.2545 C   0  0  0  0  0  0  0  0  0  0  0  0
    9.7424    6.9739   -7.1924 C   0  0  0  0  0  0  0  0  0  0  0  0
   10.2521    7.1276   -5.8904 C   0  0  0  0  0  0  0  0  0  0  0  0
   11.2263    8.1019   -5.6173 C   0  0  0  0  0  0  0  0  0  0  0  0
   11.7313    8.2418   -4.2619 C   0  0  0  0  0  0  0  0  0  0  0  0
   12.0837    7.2730   -3.4104 N   0  0  0  0  0  0  0  0  0  0  0  0
   12.4538    7.9053   -2.2468 N   0  0  0  0  0  0  0  0  0  0  0  0
   12.2880    9.2067   -2.4837 C   0  0  0  0  0  0  0  0  0  0  0  0
   11.8435    9.4875   -3.7341 O   0  0  0  0  0  0  0  0  0  0  0  0
   11.6850    8.9367   -6.6568 C   0  0  0  0  0  0  0  0  0  0  0  0
   11.2125    8.7442   -7.9696 C   0  0  0  0  0  0  0  0  0  0  0  0
    9.2462    4.3358  -10.3687 H   0  0  0  0  0  0  0  0  0  0  0  0
    9.8356    4.9178   -8.8221 H   0  0  0  0  0  0  0  0  0  0  0  0
    8.0934    5.0114   -9.2074 H   0  0  0  0  0  0  0  0  0  0  0  0
   10.2700    5.7727  -13.7978 H   0  0  0  0  0  0  0  0  0  0  0  0
   10.3626    4.7061  -12.4101 H   0  0  0  0  0  0  0  0  0  0  0  0
    8.9337    3.0354  -13.5149 H   0  0  0  0  0  0  0  0  0  0  0  0
    8.6719    4.1025  -14.8758 H   0  0  0  0  0  0  0  0  0  0  0  0
   11.1623    4.0976  -15.2948 H   0  0  0  0  0  0  0  0  0  0  0  0
   11.3498    2.8556  -14.0867 H   0  0  0  0  0  0  0  0  0  0  0  0
   10.6795    0.5752  -14.6199 H   0  0  0  0  0  0  0  0  0  0  0  0
    9.0233    1.1279  -14.6727 H   0  0  0  0  0  0  0  0  0  0  0  0
    9.3014   -0.9823  -15.9620 H   0  0  0  0  0  0  0  0  0  0  0  0
    8.7739    0.3152  -17.0093 H   0  0  0  0  0  0  0  0  0  0  0  0
   10.4712    1.3669  -18.4667 H   0  0  0  0  0  0  0  0  0  0  0  0
   12.1710   -1.4274  -18.7277 H   0  0  0  0  0  0  0  0  0  0  0  0
   14.1726   -1.8946  -20.0820 H   0  0  0  0  0  0  0  0  0  0  0  0
   15.0663    2.3228  -20.2131 H   0  0  0  0  0  0  0  0  0  0  0  0
   13.0641    2.7975  -18.8635 H   0  0  0  0  0  0  0  0  0  0  0  0
   11.8349    2.9604  -17.1323 H   0  0  0  0  0  0  0  0  0  0  0  0
   12.3654    1.6709  -16.0786 H   0  0  0  0  0  0  0  0  0  0  0  0
    8.9641    6.2451   -7.3561 H   0  0  0  0  0  0  0  0  0  0  0  0
    9.8743    6.4975   -5.0998 H   0  0  0  0  0  0  0  0  0  0  0  0
   12.4835    9.9838   -1.7598 H   0  0  0  0  0  0  0  0  0  0  0  0
   12.4284    9.6953   -6.4608 H   0  0  0  0  0  0  0  0  0  0  0  0
   11.6054    9.3663   -8.7623 H   0  0  0  0  0  0  0  0  0  0  0  0
  2  1  1  0
  3  2  1  0
  4  3  1  0
  5  4  1  0
  6  5  1  0
  7  6  1  0
  8  7  1  0
  9  8  1  0
 10  9  1  0
 11 10  1  0
 12 11  1  0
 13 12  1  0
 14 13  1  0
 15 14  2  0
 16 15  1  0
 17 16  1  0
 18 17  1  0
 19 17  1  0
 20 17  1  0
 21 16  2  0
 22 13  2  0
 22 21  1  0
 23  8  1  0
 23 12  1  0
 24  3  2  0
 25 24  1  0
 26  2  1  0
 26 25  2  0
 27 26  1  0
 28 27  1  0
 29 28  2  0
 30 29  1  0
 31 30  1  0
 32 31  2  0
 33 32  1  0
 34 33  2  0
 35 31  1  0
 35 34  1  0
 36 30  2  0
 37 27  2  0
 37 36  1  0
 38  1  1  0
 39  1  1  0
 40  1  1  0
 41  5  1  0
 42  5  1  0
 43  6  1  0
 44  6  1  0
 45  7  1  0
 46  7  1  0
 47  9  1  0
 48  9  1  0
 49 10  1  0
 50 10  1  0
 12 51  1  6
 52 14  1  0
 53 15  1  0
 54 21  1  0
 55 22  1  0
 56 23  1  0
 57 23  1  0
 58 28  1  0
 59 29  1  0
 60 34  1  0
 61 36  1  0
 62 37  1  0
M  END
>  <b_m_subgroup_collapsed>  (295) 
0

>  <r_i_docking_score>  (295) 
-8.3131289411424891

>  <s_m_subgroup_title>  (295) 
glide-dock_SP_D22_pv

>  <s_m_subgroupid>  (295) 
glide-dock_SP_D22_pv

>  <Molecule ChEMBL ID>  (295) 
CHEMBL3765285

>  <Standard Type>  (295) 
Ki

>  <Standard Value>  (295) 
12303.0

>  <label>  (295) 
0

$$$$
CHEMBL5903693
     RDKit          3D

 79 83  0  0  1  0  0  0  0  0999 V2000
   12.5777    1.5822  -19.1968 C   0  0  0  0  0  0  0  0  0  0  0  0
   11.1964    0.9298  -19.0723 C   0  0  0  0  0  0  0  0  0  0  0  0
   11.2432   -0.3840  -18.2795 C   0  0  0  0  0  0  0  0  0  0  0  0
    9.8724   -1.0809  -18.1106 C   0  0  0  0  0  0  0  0  0  0  0  0
    8.8344   -0.2679  -17.4494 N   0  0  0  0  0  0  0  0  0  0  0  0
    9.0308    0.1787  -16.1770 C   0  0  0  0  0  0  0  0  0  0  0  0
    9.9504   -0.2071  -15.4508 O   0  0  0  0  0  0  0  0  0  0  0  0
    8.1513    1.1179  -15.7837 N   0  0  0  0  0  0  0  0  0  0  0  0
    8.1524    1.8406  -14.5190 C   0  0  1  0  0  0  0  0  0  0  0  0
    9.2514    2.9203  -14.5447 C   0  0  0  0  0  0  0  0  0  0  0  0
    9.1859    3.8075  -13.3009 C   0  0  0  0  0  0  0  0  0  0  0  0
    7.8161    4.5043  -13.1725 C   0  0  2  0  0  0  0  0  0  0  0  0
    7.7620    5.5369  -12.0187 C   0  0  0  0  0  0  0  0  0  0  0  0
    8.3232    5.0683  -10.6528 C   0  0  0  0  0  0  0  0  0  0  0  0
    8.4861    6.1714   -9.6650 N   0  0  0  0  0  0  0  0  0  0  0  0
    8.6123    5.6382   -8.2769 C   0  0  0  0  0  0  0  0  0  0  0  0
    8.9568    6.7098   -7.2199 C   0  0  0  0  0  0  0  0  0  0  0  0
   10.0909    7.5299   -7.6394 N   0  0  0  0  0  0  0  0  0  0  0  0
   10.8283    8.3017   -6.6946 C   0  0  0  0  0  0  0  0  0  0  0  0
   11.1613    9.5250   -7.0461 N   0  0  0  0  0  0  0  0  0  0  0  0
   12.0043   10.2883   -5.8469 S   0  0  0  0  0  0  0  0  0  0  0  0
   11.9214    8.9812   -4.7206 C   0  0  0  0  0  0  0  0  0  0  0  0
   12.3988    8.9501   -3.4001 C   0  0  0  0  0  0  0  0  0  0  0  0
   12.2723    7.7751   -2.6539 C   0  0  0  0  0  0  0  0  0  0  0  0
   11.7120    6.6455   -3.2653 C   0  0  0  0  0  0  0  0  0  0  0  0
   11.2606    6.6784   -4.6039 C   0  0  0  0  0  0  0  0  0  0  0  0
   11.2860    7.8731   -5.3669 C   0  0  0  0  0  0  0  0  0  0  0  0
    9.8756    8.1150   -8.9661 C   0  0  0  0  0  0  0  0  0  0  0  0
    9.6281    7.0455  -10.0208 C   0  0  0  0  0  0  0  0  0  0  0  0
    6.6544    3.4872  -13.1608 C   0  0  0  0  0  0  0  0  0  0  0  0
    6.7548    2.4693  -14.3182 C   0  0  0  0  0  0  0  0  0  0  0  0
    7.5825   -0.1332  -18.1340 C   0  0  0  0  0  0  0  0  0  0  0  0
    7.5344    0.4650  -19.4132 C   0  0  0  0  0  0  0  0  0  0  0  0
    6.3047    0.6124  -20.0851 C   0  0  0  0  0  0  0  0  0  0  0  0
    5.1115    0.1599  -19.4878 C   0  0  0  0  0  0  0  0  0  0  0  0
    5.1529   -0.4556  -18.2241 C   0  0  0  0  0  0  0  0  0  0  0  0
    6.3822   -0.6068  -17.5523 C   0  0  0  0  0  0  0  0  0  0  0  0
   12.5179    2.5136  -19.7580 H   0  0  0  0  0  0  0  0  0  0  0  0
   13.0005    1.8109  -18.2177 H   0  0  0  0  0  0  0  0  0  0  0  0
   13.2779    0.9265  -19.7149 H   0  0  0  0  0  0  0  0  0  0  0  0
   10.7943    0.7429  -20.0680 H   0  0  0  0  0  0  0  0  0  0  0  0
   10.5218    1.6347  -18.5864 H   0  0  0  0  0  0  0  0  0  0  0  0
   11.6987   -0.2029  -17.3062 H   0  0  0  0  0  0  0  0  0  0  0  0
   11.9184   -1.0761  -18.7835 H   0  0  0  0  0  0  0  0  0  0  0  0
   10.0107   -1.9922  -17.5295 H   0  0  0  0  0  0  0  0  0  0  0  0
    9.5216   -1.4175  -19.0885 H   0  0  0  0  0  0  0  0  0  0  0  0
    7.4258    1.3553  -16.4435 H   0  0  0  0  0  0  0  0  0  0  0  0
    8.3568    1.1368  -13.7110 H   0  0  0  0  0  0  0  0  0  0  0  0
   10.2352    2.4507  -14.6024 H   0  0  0  0  0  0  0  0  0  0  0  0
    9.1487    3.5367  -15.4402 H   0  0  0  0  0  0  0  0  0  0  0  0
    9.3855    3.1798  -12.4333 H   0  0  0  0  0  0  0  0  0  0  0  0
    9.9835    4.5513  -13.3403 H   0  0  0  0  0  0  0  0  0  0  0  0
    7.6864    5.0850  -14.0870 H   0  0  0  0  0  0  0  0  0  0  0  0
    8.3141    6.4075  -12.3659 H   0  0  0  0  0  0  0  0  0  0  0  0
    6.7390    5.8896  -11.8854 H   0  0  0  0  0  0  0  0  0  0  0  0
    7.6837    4.2863  -10.2500 H   0  0  0  0  0  0  0  0  0  0  0  0
    9.2989    4.5986  -10.7690 H   0  0  0  0  0  0  0  0  0  0  0  0
    7.6865    5.1432   -7.9912 H   0  0  0  0  0  0  0  0  0  0  0  0
    9.3896    4.8750   -8.2637 H   0  0  0  0  0  0  0  0  0  0  0  0
    8.0895    7.3541   -7.0467 H   0  0  0  0  0  0  0  0  0  0  0  0
    9.1567    6.2003   -6.2791 H   0  0  0  0  0  0  0  0  0  0  0  0
   12.8645    9.8214   -2.9627 H   0  0  0  0  0  0  0  0  0  0  0  0
   12.6150    7.7350   -1.6305 H   0  0  0  0  0  0  0  0  0  0  0  0
   11.6308    5.7546   -2.6722 H   0  0  0  0  0  0  0  0  0  0  0  0
   10.8496    5.7729   -5.0243 H   0  0  0  0  0  0  0  0  0  0  0  0
    9.0319    8.8061   -8.9211 H   0  0  0  0  0  0  0  0  0  0  0  0
   10.7396    8.6932   -9.2957 H   0  0  0  0  0  0  0  0  0  0  0  0
   10.5345    6.4478  -10.1347 H   0  0  0  0  0  0  0  0  0  0  0  0
    9.4549    7.5441  -10.9742 H   0  0  0  0  0  0  0  0  0  0  0  0
    6.5777    2.9729  -12.2054 H   0  0  0  0  0  0  0  0  0  0  0  0
    5.7115    4.0255  -13.2533 H   0  0  0  0  0  0  0  0  0  0  0  0
    6.4825    2.9729  -15.2432 H   0  0  0  0  0  0  0  0  0  0  0  0
    6.0130    1.6824  -14.1780 H   0  0  0  0  0  0  0  0  0  0  0  0
    8.4394    0.8191  -19.8829 H   0  0  0  0  0  0  0  0  0  0  0  0
    6.2724    1.0726  -21.0623 H   0  0  0  0  0  0  0  0  0  0  0  0
    4.1700    0.2732  -20.0033 H   0  0  0  0  0  0  0  0  0  0  0  0
    4.2407   -0.8182  -17.7702 H   0  0  0  0  0  0  0  0  0  0  0  0
    6.4012   -1.0924  -16.5870 H   0  0  0  0  0  0  0  0  0  0  0  0
    7.6417    6.7510   -9.7005 H   0  0  0  0  0  0  0  0  0  0  0  0
  2  1  1  0
  3  2  1  0
  4  3  1  0
  5  4  1  0
  6  5  1  0
  7  6  2  0
  8  6  1  0
  9  8  1  0
 10  9  1  0
 11 10  1  0
 12 11  1  0
 13 12  1  0
 14 13  1  0
 15 14  1  0
 16 15  1  0
 17 16  1  0
 18 17  1  0
 19 18  1  0
 20 19  2  0
 21 20  1  0
 22 21  1  0
 23 22  2  0
 24 23  1  0
 25 24  2  0
 26 25  1  0
 27 19  1  0
 27 22  1  0
 27 26  2  0
 28 18  1  0
 29 15  1  0
 29 28  1  0
 30 12  1  0
 31  9  1  0
 31 30  1  0
 32  5  1  0
 33 32  2  0
 34 33  1  0
 35 34  2  0
 36 35  1  0
 37 32  1  0
 37 36  2  0
 38  1  1  0
 39  1  1  0
 40  1  1  0
 41  2  1  0
 42  2  1  0
 43  3  1  0
 44  3  1  0
 45  4  1  0
 46  4  1  0
 47  8  1  0
  9 48  1  1
 49 10  1  0
 50 10  1  0
 51 11  1  0
 52 11  1  0
 12 53  1  6
 54 13  1  0
 55 13  1  0
 56 14  1  0
 57 14  1  0
 58 16  1  0
 59 16  1  0
 60 17  1  0
 61 17  1  0
 62 23  1  0
 63 24  1  0
 64 25  1  0
 65 26  1  0
 66 28  1  0
 67 28  1  0
 68 29  1  0
 69 29  1  0
 70 30  1  0
 71 30  1  0
 72 31  1  0
 73 31  1  0
 74 33  1  0
 75 34  1  0
 76 35  1  0
 77 36  1  0
 78 37  1  0
 79 15  1  0
M  CHG  1  15   1
M  END
>  <b_m_subgroup_collapsed>  (296) 
0

>  <r_i_docking_score>  (296) 
-8.3131081707074603

>  <s_m_subgroup_title>  (296) 
glide-dock_SP_D22_pv

>  <s_m_subgroupid>  (296) 
glide-dock_SP_D22_pv

>  <Molecule ChEMBL ID>  (296) 
CHEMBL5903693

>  <Standard Type>  (296) 
Ki

>  <Standard Value>  (296) 
14.8

>  <label>  (296) 
1

$$$$
CHEMBL2029925
     RDKit          3D

 58 61  0  0  1  0  0  0  0  0999 V2000
    8.3500    2.3657  -15.9507 O   0  0  0  0  0  0  0  0  0  0  0  0
    8.5583    1.7146  -14.9279 C   0  0  0  0  0  0  0  0  0  0  0  0
    8.1076    0.2504  -14.8472 C   0  0  0  0  0  0  0  0  0  0  0  0
    6.5911    0.0893  -14.8196 C   0  0  0  0  0  0  0  0  0  0  0  0
    5.9032   -0.4202  -15.9399 C   0  0  0  0  0  0  0  0  0  0  0  0
    4.5143   -0.6278  -15.8524 C   0  0  0  0  0  0  0  0  0  0  0  0
    3.8625   -0.3146  -14.6455 C   0  0  0  0  0  0  0  0  0  0  0  0
    4.5060    0.1724  -13.5634 N   0  0  0  0  0  0  0  0  0  0  0  0
    5.8397    0.3705  -13.6580 C   0  0  0  0  0  0  0  0  0  0  0  0
    9.1908    2.2021  -13.8469 N   0  0  0  0  0  0  0  0  0  0  0  0
    9.6541    3.5242  -13.6601 C   0  0  0  0  0  0  0  0  0  0  0  0
   10.5993    4.0979  -14.5352 C   0  0  0  0  0  0  0  0  0  0  0  0
   11.1256    5.3719  -14.2499 C   0  0  0  0  0  0  0  0  0  0  0  0
   10.7050    6.0774  -13.1049 C   0  0  0  0  0  0  0  0  0  0  0  0
    9.7382    5.5226  -12.2359 C   0  0  0  0  0  0  0  0  0  0  0  0
    9.2660    6.2671  -10.9898 C   0  0  0  0  0  0  0  0  0  0  0  0
   10.3653    7.1356  -10.3369 C   0  0  0  0  0  0  0  0  0  0  0  0
   10.0447    7.6639   -9.0105 N   0  0  0  0  0  0  0  0  0  0  0  0
    9.9776    6.5689   -8.0270 C   0  0  0  0  0  0  0  0  0  0  0  0
    9.7838    7.1062   -6.5985 C   0  0  0  0  0  0  0  0  0  0  0  0
   10.8655    8.0297   -6.2798 N   0  0  0  0  0  0  0  0  0  0  0  0
   11.3582    8.1249   -4.9696 C   0  0  0  0  0  0  0  0  0  0  0  0
   11.6832    6.9525   -4.2466 C   0  0  0  0  0  0  0  0  0  0  0  0
   12.2013    7.0280   -2.9385 C   0  0  0  0  0  0  0  0  0  0  0  0
   12.4128    8.2821   -2.3390 C   0  0  0  0  0  0  0  0  0  0  0  0
   12.0860    9.4530   -3.0470 C   0  0  0  0  0  0  0  0  0  0  0  0
   11.5665    9.3782   -4.3525 C   0  0  0  0  0  0  0  0  0  0  0  0
   10.9776    9.1352   -7.2202 C   0  0  0  0  0  0  0  0  0  0  0  0
   11.1405    8.5739   -8.6450 C   0  0  0  0  0  0  0  0  0  0  0  0
    9.2337    4.2326  -12.5144 C   0  0  0  0  0  0  0  0  0  0  0  0
    8.5288   -0.2275  -13.9637 H   0  0  0  0  0  0  0  0  0  0  0  0
    8.5164   -0.2778  -15.7074 H   0  0  0  0  0  0  0  0  0  0  0  0
    6.4344   -0.6711  -16.8462 H   0  0  0  0  0  0  0  0  0  0  0  0
    3.9573   -1.0240  -16.6894 H   0  0  0  0  0  0  0  0  0  0  0  0
    2.7965   -0.4607  -14.5449 H   0  0  0  0  0  0  0  0  0  0  0  0
    6.3256    0.7383  -12.7660 H   0  0  0  0  0  0  0  0  0  0  0  0
    9.2753    1.5974  -13.0359 H   0  0  0  0  0  0  0  0  0  0  0  0
   10.9389    3.5591  -15.4078 H   0  0  0  0  0  0  0  0  0  0  0  0
   11.8573    5.8113  -14.9108 H   0  0  0  0  0  0  0  0  0  0  0  0
   11.1244    7.0543  -12.9191 H   0  0  0  0  0  0  0  0  0  0  0  0
    8.4198    6.8989  -11.2615 H   0  0  0  0  0  0  0  0  0  0  0  0
    8.8746    5.5270  -10.2926 H   0  0  0  0  0  0  0  0  0  0  0  0
   11.2895    6.5722  -10.2636 H   0  0  0  0  0  0  0  0  0  0  0  0
   10.5701    7.9792  -10.9983 H   0  0  0  0  0  0  0  0  0  0  0  0
    9.1388    5.9104   -8.2487 H   0  0  0  0  0  0  0  0  0  0  0  0
   10.8834    5.9612   -8.0693 H   0  0  0  0  0  0  0  0  0  0  0  0
    8.8307    7.6328   -6.5227 H   0  0  0  0  0  0  0  0  0  0  0  0
    9.7328    6.2779   -5.8930 H   0  0  0  0  0  0  0  0  0  0  0  0
   11.5524    5.9802   -4.6958 H   0  0  0  0  0  0  0  0  0  0  0  0
   12.4500    6.1226   -2.4035 H   0  0  0  0  0  0  0  0  0  0  0  0
   12.8267    8.3519   -1.3432 H   0  0  0  0  0  0  0  0  0  0  0  0
   12.2276   10.4194   -2.5894 H   0  0  0  0  0  0  0  0  0  0  0  0
   11.3174   10.2965   -4.8623 H   0  0  0  0  0  0  0  0  0  0  0  0
   10.0954    9.7712   -7.1531 H   0  0  0  0  0  0  0  0  0  0  0  0
   11.8444    9.7527   -6.9858 H   0  0  0  0  0  0  0  0  0  0  0  0
   12.0988    8.0563   -8.7163 H   0  0  0  0  0  0  0  0  0  0  0  0
   11.1810    9.4026   -9.3538 H   0  0  0  0  0  0  0  0  0  0  0  0
    8.5212    3.7754  -11.8442 H   0  0  0  0  0  0  0  0  0  0  0  0
  2  1  2  0
  3  2  1  0
  4  3  1  0
  5  4  1  0
  6  5  2  0
  7  6  1  0
  8  7  2  0
  9  4  2  0
  9  8  1  0
 10  2  1  0
 11 10  1  0
 12 11  1  0
 13 12  2  0
 14 13  1  0
 15 14  2  0
 16 15  1  0
 17 16  1  0
 18 17  1  0
 19 18  1  0
 20 19  1  0
 21 20  1  0
 22 21  1  0
 23 22  2  0
 24 23  1  0
 25 24  2  0
 26 25  1  0
 27 22  1  0
 27 26  2  0
 28 21  1  0
 29 18  1  0
 29 28  1  0
 30 11  2  0
 30 15  1  0
 31  3  1  0
 32  3  1  0
 33  5  1  0
 34  6  1  0
 35  7  1  0
 36  9  1  0
 37 10  1  0
 38 12  1  0
 39 13  1  0
 40 14  1  0
 41 16  1  0
 42 16  1  0
 43 17  1  0
 44 17  1  0
 45 19  1  0
 46 19  1  0
 47 20  1  0
 48 20  1  0
 49 23  1  0
 50 24  1  0
 51 25  1  0
 52 26  1  0
 53 27  1  0
 54 28  1  0
 55 28  1  0
 56 29  1  0
 57 29  1  0
 58 30  1  0
M  END
>  <b_m_subgroup_collapsed>  (297) 
0

>  <r_i_docking_score>  (297) 
-8.3124194500913404

>  <s_m_subgroup_title>  (297) 
glide-dock_SP_D22_pv

>  <s_m_subgroupid>  (297) 
glide-dock_SP_D22_pv

>  <Molecule ChEMBL ID>  (297) 
CHEMBL2029925

>  <Standard Type>  (297) 
Ki

>  <Standard Value>  (297) 
82.4

>  <label>  (297) 
1

$$$$
CHEMBL80469
     RDKit          3D

 41 44  0  0  1  0  0  0  0  0999 V2000
   11.2862   10.5797   -5.8466 Cl  0  0  0  0  0  0  0  0  0  0  0  0
   11.5223    9.1519   -4.9277 C   0  0  0  0  0  0  0  0  0  0  0  0
   11.9198    9.2609   -3.5797 C   0  0  0  0  0  0  0  0  0  0  0  0
   12.0860    8.1045   -2.7987 C   0  0  0  0  0  0  0  0  0  0  0  0
   11.8416    6.8438   -3.3696 C   0  0  0  0  0  0  0  0  0  0  0  0
   11.4393    6.7437   -4.7172 C   0  0  0  0  0  0  0  0  0  0  0  0
   11.2861    7.8924   -5.5222 C   0  0  0  0  0  0  0  0  0  0  0  0
   10.9344    7.8083   -6.8861 N   0  0  0  0  0  0  0  0  0  0  0  0
   10.1356    6.6816   -7.3527 C   0  0  0  0  0  0  0  0  0  0  0  0
    9.5532    6.9888   -8.7471 C   0  0  0  0  0  0  0  0  0  0  0  0
   10.6299    7.2895   -9.7042 N   0  0  0  0  0  0  0  0  0  0  0  0
   10.0963    7.6037  -11.0289 C   0  0  0  0  0  0  0  0  0  0  0  0
    9.4134    6.4650  -11.7149 C   0  0  0  0  0  0  0  0  0  0  0  0
    8.0851    6.1722  -11.5588 N   0  0  0  0  0  0  0  0  0  0  0  0
    7.7724    5.1190  -12.3619 C   0  0  0  0  0  0  0  0  0  0  0  0
    6.5996    4.4051  -12.6470 C   0  0  0  0  0  0  0  0  0  0  0  0
    6.6952    3.3732  -13.6006 C   0  0  0  0  0  0  0  0  0  0  0  0
    7.9534    3.1180  -14.1957 C   0  0  0  0  0  0  0  0  0  0  0  0
    9.0905    3.8022  -13.9170 N   0  0  0  0  0  0  0  0  0  0  0  0
    8.9843    4.7824  -13.0117 C   0  0  0  0  0  0  0  0  0  0  0  0
    9.9973    5.6324  -12.5927 N   0  0  0  0  0  0  0  0  0  0  0  0
   11.3533    8.4691   -9.2213 C   0  0  0  0  0  0  0  0  0  0  0  0
   11.9746    8.1785   -7.8469 C   0  0  0  0  0  0  0  0  0  0  0  0
   12.0887   10.2317   -3.1368 H   0  0  0  0  0  0  0  0  0  0  0  0
   12.3881    8.1876   -1.7649 H   0  0  0  0  0  0  0  0  0  0  0  0
   11.9595    5.9494   -2.7749 H   0  0  0  0  0  0  0  0  0  0  0  0
   11.2685    5.7724   -5.1394 H   0  0  0  0  0  0  0  0  0  0  0  0
    9.3240    6.4865   -6.6507 H   0  0  0  0  0  0  0  0  0  0  0  0
   10.7511    5.7822   -7.3970 H   0  0  0  0  0  0  0  0  0  0  0  0
    8.8531    7.8242   -8.6861 H   0  0  0  0  0  0  0  0  0  0  0  0
    8.9820    6.1216   -9.0766 H   0  0  0  0  0  0  0  0  0  0  0  0
   10.9134    7.9276  -11.6730 H   0  0  0  0  0  0  0  0  0  0  0  0
    9.3981    8.4392  -10.9654 H   0  0  0  0  0  0  0  0  0  0  0  0
    5.6682    4.6450  -12.1548 H   0  0  0  0  0  0  0  0  0  0  0  0
    5.8285    2.7862  -13.8672 H   0  0  0  0  0  0  0  0  0  0  0  0
    8.0514    2.3288  -14.9269 H   0  0  0  0  0  0  0  0  0  0  0  0
    7.4318    6.7046  -10.9672 H   0  0  0  0  0  0  0  0  0  0  0  0
   12.1463    8.7306   -9.9236 H   0  0  0  0  0  0  0  0  0  0  0  0
   10.6850    9.3300   -9.1566 H   0  0  0  0  0  0  0  0  0  0  0  0
   12.5453    9.0440   -7.5156 H   0  0  0  0  0  0  0  0  0  0  0  0
   12.6980    7.3724   -7.9309 H   0  0  0  0  0  0  0  0  0  0  0  0
  2  1  1  0
  3  2  2  0
  4  3  1  0
  5  4  2  0
  6  5  1  0
  7  2  1  0
  7  6  2  0
  8  7  1  0
  9  8  1  0
 10  9  1  0
 11 10  1  0
 12 11  1  0
 13 12  1  0
 14 13  1  0
 15 14  1  0
 16 15  1  0
 17 16  2  0
 18 17  1  0
 19 18  2  0
 20 15  2  0
 20 19  1  0
 21 13  2  0
 21 20  1  0
 22 11  1  0
 23  8  1  0
 23 22  1  0
 24  3  1  0
 25  4  1  0
 26  5  1  0
 27  6  1  0
 28  9  1  0
 29  9  1  0
 30 10  1  0
 31 10  1  0
 32 12  1  0
 33 12  1  0
 34 16  1  0
 35 17  1  0
 36 18  1  0
 37 14  1  0
 38 22  1  0
 39 22  1  0
 40 23  1  0
 41 23  1  0
M  END
>  <b_m_subgroup_collapsed>  (298) 
0

>  <r_i_docking_score>  (298) 
-8.3123087060494107

>  <s_m_subgroup_title>  (298) 
glide-dock_SP_D22_pv

>  <s_m_subgroupid>  (298) 
glide-dock_SP_D22_pv

>  <Molecule ChEMBL ID>  (298) 
CHEMBL80469

>  <Standard Type>  (298) 
Ki

>  <Standard Value>  (298) 
10000.0

>  <label>  (298) 
0

$$$$
CHEMBL4583596
     RDKit          3D

 72 75  0  0  1  0  0  0  0  0999 V2000
   11.7790   11.0779   -6.1344 C   0  0  0  0  0  0  0  0  0  0  0  0
   11.1735    9.8166   -6.2552 O   0  0  0  0  0  0  0  0  0  0  0  0
   11.4260    8.9006   -5.2566 C   0  0  0  0  0  0  0  0  0  0  0  0
   12.1819    9.1885   -4.0899 C   0  0  0  0  0  0  0  0  0  0  0  0
   12.4841    8.1904   -3.1491 C   0  0  0  0  0  0  0  0  0  0  0  0
   12.0499    6.8767   -3.3734 C   0  0  0  0  0  0  0  0  0  0  0  0
   11.2837    6.5881   -4.5161 C   0  0  0  0  0  0  0  0  0  0  0  0
   10.9276    7.5910   -5.4417 C   0  0  0  0  0  0  0  0  0  0  0  0
   10.0763    7.2789   -6.5149 N   0  0  0  0  0  0  0  0  0  0  0  0
    8.9431    8.1173   -6.8863 C   0  0  0  0  0  0  0  0  0  0  0  0
    9.0865    8.5812   -8.3431 C   0  0  0  0  0  0  0  0  0  0  0  0
    9.2867    7.4209   -9.2479 N   0  0  0  0  0  0  0  0  0  0  0  0
    9.3658    7.8332  -10.6722 C   0  0  0  0  0  0  0  0  0  0  0  0
    9.5497    6.6524  -11.6420 C   0  0  0  0  0  0  0  0  0  0  0  0
    8.4921    5.5278  -11.5510 C   0  0  0  0  0  0  0  0  0  0  0  0
    8.9948    4.2973  -12.1579 N   0  0  0  0  0  0  0  0  0  0  0  0
    9.2271    4.1406  -13.4651 C   0  0  0  0  0  0  0  0  0  0  0  0
    8.9140    4.9785  -14.3079 O   0  0  0  0  0  0  0  0  0  0  0  0
    9.8660    2.9892  -13.7442 N   0  0  0  0  0  0  0  0  0  0  0  0
   10.3745    2.7055  -15.0238 N   0  0  0  0  0  0  0  0  0  0  0  0
   11.5171    3.5525  -15.4099 C   0  0  0  0  0  0  0  0  0  0  0  0
   11.2898    4.5227  -16.5705 C   0  0  0  0  0  0  0  0  0  0  0  0
   12.3387    5.3913  -16.9413 C   0  0  0  0  0  0  0  0  0  0  0  0
   12.1565    6.3341  -17.9750 C   0  0  0  0  0  0  0  0  0  0  0  0
   10.9217    6.4119  -18.6493 C   0  0  0  0  0  0  0  0  0  0  0  0
   10.7211    7.3930  -19.7041 C   0  0  0  0  0  0  0  0  0  0  0  0
   10.5595    8.1727  -20.5438 N   0  0  0  0  0  0  0  0  0  0  0  0
    9.8728    5.5442  -18.2900 C   0  0  0  0  0  0  0  0  0  0  0  0
   10.0554    4.6059  -17.2573 C   0  0  0  0  0  0  0  0  0  0  0  0
    9.9392    1.6254  -15.8278 C   0  0  0  0  0  0  0  0  0  0  0  0
   10.8836    0.9466  -16.6376 C   0  0  0  0  0  0  0  0  0  0  0  0
   10.4982   -0.0963  -17.5011 C   0  0  0  0  0  0  0  0  0  0  0  0
    9.1532   -0.4791  -17.5785 C   0  0  0  0  0  0  0  0  0  0  0  0
    8.6723   -1.7442  -18.6473 Cl  0  0  0  0  0  0  0  0  0  0  0  0
    8.1997    0.1721  -16.7793 C   0  0  0  0  0  0  0  0  0  0  0  0
    8.5751    1.2096  -15.9059 C   0  0  0  0  0  0  0  0  0  0  0  0
    7.2940    1.9410  -15.0045 Cl  0  0  0  0  0  0  0  0  0  0  0  0
   10.4399    6.5704   -8.8254 C   0  0  0  0  0  0  0  0  0  0  0  0
   10.3551    6.1411   -7.3584 C   0  0  0  0  0  0  0  0  0  0  0  0
   11.6859   11.6630   -7.0461 H   0  0  0  0  0  0  0  0  0  0  0  0
   11.2868   11.6092   -5.3177 H   0  0  0  0  0  0  0  0  0  0  0  0
   12.8471   10.9715   -5.9477 H   0  0  0  0  0  0  0  0  0  0  0  0
   12.5664   10.1697   -3.8858 H   0  0  0  0  0  0  0  0  0  0  0  0
   13.0551    8.4331   -2.2642 H   0  0  0  0  0  0  0  0  0  0  0  0
   12.2769    6.0978   -2.6610 H   0  0  0  0  0  0  0  0  0  0  0  0
   10.9061    5.5931   -4.6461 H   0  0  0  0  0  0  0  0  0  0  0  0
    8.0334    7.5312   -6.7663 H   0  0  0  0  0  0  0  0  0  0  0  0
    8.8385    8.9730   -6.2286 H   0  0  0  0  0  0  0  0  0  0  0  0
    8.2048    9.1527   -8.6370 H   0  0  0  0  0  0  0  0  0  0  0  0
    9.9385    9.2553   -8.4367 H   0  0  0  0  0  0  0  0  0  0  0  0
    8.4859    8.4028  -10.9489 H   0  0  0  0  0  0  0  0  0  0  0  0
   10.2074    8.5172  -10.7933 H   0  0  0  0  0  0  0  0  0  0  0  0
    9.5387    7.0591  -12.6468 H   0  0  0  0  0  0  0  0  0  0  0  0
   10.5496    6.2368  -11.5295 H   0  0  0  0  0  0  0  0  0  0  0  0
    8.2438    5.2962  -10.5145 H   0  0  0  0  0  0  0  0  0  0  0  0
    7.5588    5.8372  -12.0256 H   0  0  0  0  0  0  0  0  0  0  0  0
    9.2471    3.5447  -11.5353 H   0  0  0  0  0  0  0  0  0  0  0  0
   10.0860    2.2978  -13.0354 H   0  0  0  0  0  0  0  0  0  0  0  0
   11.8230    4.1590  -14.5557 H   0  0  0  0  0  0  0  0  0  0  0  0
   12.3924    2.9455  -15.6299 H   0  0  0  0  0  0  0  0  0  0  0  0
   13.2867    5.3452  -16.4251 H   0  0  0  0  0  0  0  0  0  0  0  0
   12.9647    7.0012  -18.2393 H   0  0  0  0  0  0  0  0  0  0  0  0
    8.9183    5.6022  -18.7964 H   0  0  0  0  0  0  0  0  0  0  0  0
    9.2267    3.9702  -16.9892 H   0  0  0  0  0  0  0  0  0  0  0  0
   11.9302    1.2045  -16.6146 H   0  0  0  0  0  0  0  0  0  0  0  0
   11.2391   -0.5954  -18.1062 H   0  0  0  0  0  0  0  0  0  0  0  0
    7.1656   -0.1339  -16.8391 H   0  0  0  0  0  0  0  0  0  0  0  0
   10.4863    5.6588   -9.4176 H   0  0  0  0  0  0  0  0  0  0  0  0
   11.3691    7.1191   -8.9944 H   0  0  0  0  0  0  0  0  0  0  0  0
   11.2861    5.6535   -7.0618 H   0  0  0  0  0  0  0  0  0  0  0  0
    9.5528    5.4128   -7.2380 H   0  0  0  0  0  0  0  0  0  0  0  0
    8.4371    6.8755   -9.1585 H   0  0  0  0  0  0  0  0  0  0  0  0
  2  1  1  0
  3  2  1  0
  4  3  2  0
  5  4  1  0
  6  5  2  0
  7  6  1  0
  8  3  1  0
  8  7  2  0
  9  8  1  0
 10  9  1  0
 11 10  1  0
 12 11  1  0
 13 12  1  0
 14 13  1  0
 15 14  1  0
 16 15  1  0
 17 16  1  0
 18 17  2  0
 19 17  1  0
 20 19  1  0
 21 20  1  0
 22 21  1  0
 23 22  1  0
 24 23  2  0
 25 24  1  0
 26 25  1  0
 27 26  3  0
 28 25  2  0
 29 22  2  0
 29 28  1  0
 30 20  1  0
 31 30  1  0
 32 31  2  0
 33 32  1  0
 34 33  1  0
 35 33  2  0
 36 30  2  0
 36 35  1  0
 37 36  1  0
 38 12  1  0
 39  9  1  0
 39 38  1  0
 40  1  1  0
 41  1  1  0
 42  1  1  0
 43  4  1  0
 44  5  1  0
 45  6  1  0
 46  7  1  0
 47 10  1  0
 48 10  1  0
 49 11  1  0
 50 11  1  0
 51 13  1  0
 52 13  1  0
 53 14  1  0
 54 14  1  0
 55 15  1  0
 56 15  1  0
 57 16  1  0
 58 19  1  0
 59 21  1  0
 60 21  1  0
 61 23  1  0
 62 24  1  0
 63 28  1  0
 64 29  1  0
 65 31  1  0
 66 32  1  0
 67 35  1  0
 68 38  1  0
 69 38  1  0
 70 39  1  0
 71 39  1  0
 72 12  1  0
M  CHG  1  12   1
M  END
>  <b_m_subgroup_collapsed>  (299) 
0

>  <r_i_docking_score>  (299) 
-8.3086603368062892

>  <s_m_subgroup_title>  (299) 
glide-dock_SP_D22_pv

>  <s_m_subgroupid>  (299) 
glide-dock_SP_D22_pv

>  <Molecule ChEMBL ID>  (299) 
CHEMBL4583596

>  <Standard Type>  (299) 
Ki

>  <Standard Value>  (299) 
94.0

>  <label>  (299) 
1

$$$$
CHEMBL239700
     RDKit          3D

 58 61  0  0  1  0  0  0  0  0999 V2000
    5.4079    1.0455  -13.6950 C   0  0  0  0  0  0  0  0  0  0  0  0
    6.2368    2.1860  -13.8672 O   0  0  0  0  0  0  0  0  0  0  0  0
    7.5495    1.9862  -14.2469 C   0  0  0  0  0  0  0  0  0  0  0  0
    7.9944    0.7540  -14.7935 C   0  0  0  0  0  0  0  0  0  0  0  0
    9.3365    0.5713  -15.1665 C   0  0  0  0  0  0  0  0  0  0  0  0
   10.2552    1.6175  -14.9996 C   0  0  0  0  0  0  0  0  0  0  0  0
    9.8316    2.8418  -14.4538 C   0  0  0  0  0  0  0  0  0  0  0  0
    8.4821    3.0503  -14.0708 C   0  0  0  0  0  0  0  0  0  0  0  0
    8.0859    4.2972  -13.5259 N   0  0  0  0  0  0  0  0  0  0  0  0
    7.3072    4.3687  -12.2878 C   0  0  0  0  0  0  0  0  0  0  0  0
    8.1626    4.9016  -11.1219 C   0  0  0  0  0  0  0  0  0  0  0  0
    8.8546    6.1659  -11.4636 N   0  0  0  0  0  0  0  0  0  0  0  0
    9.6076    6.6918  -10.3008 C   0  0  0  0  0  0  0  0  0  0  0  0
   10.0070    8.1753  -10.4385 C   0  0  0  0  0  0  0  0  0  0  0  0
   10.8001    8.6661   -9.2182 C   0  0  0  0  0  0  0  0  0  0  0  0
    9.9209    8.8542   -7.9684 C   0  0  0  0  0  0  0  0  0  0  0  0
   10.7060    8.8123   -6.7306 N   0  0  0  0  0  0  0  0  0  0  0  0
   11.2439   10.0170   -6.2500 C   0  0  0  0  0  0  0  0  0  0  0  0
   11.6860   10.1723   -5.0460 N   0  0  0  0  0  0  0  0  0  0  0  0
   11.7980    9.0516   -4.2225 C   0  0  0  0  0  0  0  0  0  0  0  0
   12.2655    9.2107   -2.9057 C   0  0  0  0  0  0  0  0  0  0  0  0
   12.4562    8.0911   -2.0791 C   0  0  0  0  0  0  0  0  0  0  0  0
   12.1698    6.8025   -2.5679 C   0  0  0  0  0  0  0  0  0  0  0  0
   11.6860    6.6416   -3.8779 C   0  0  0  0  0  0  0  0  0  0  0  0
   11.4837    7.7626   -4.7013 C   0  0  0  0  0  0  0  0  0  0  0  0
   10.8946    7.6425   -6.0773 C   0  0  0  0  0  0  0  0  0  0  0  0
   10.5846    6.5508   -6.5467 O   0  0  0  0  0  0  0  0  0  0  0  0
    9.6863    5.9889  -12.6831 C   0  0  0  0  0  0  0  0  0  0  0  0
    8.8197    5.5120  -13.8623 C   0  0  0  0  0  0  0  0  0  0  0  0
    4.4698    1.3569  -13.2393 H   0  0  0  0  0  0  0  0  0  0  0  0
    5.1707    0.5714  -14.6482 H   0  0  0  0  0  0  0  0  0  0  0  0
    5.8671    0.3126  -13.0300 H   0  0  0  0  0  0  0  0  0  0  0  0
    7.3211   -0.0760  -14.9450 H   0  0  0  0  0  0  0  0  0  0  0  0
    9.6577   -0.3743  -15.5790 H   0  0  0  0  0  0  0  0  0  0  0  0
   11.2881    1.4781  -15.2813 H   0  0  0  0  0  0  0  0  0  0  0  0
   10.5756    3.6113  -14.3210 H   0  0  0  0  0  0  0  0  0  0  0  0
    6.4578    5.0319  -12.4560 H   0  0  0  0  0  0  0  0  0  0  0  0
    6.8883    3.4069  -11.9981 H   0  0  0  0  0  0  0  0  0  0  0  0
    7.5409    5.0628  -10.2474 H   0  0  0  0  0  0  0  0  0  0  0  0
    8.9199    4.1723  -10.8408 H   0  0  0  0  0  0  0  0  0  0  0  0
    8.9781    6.5783   -9.4190 H   0  0  0  0  0  0  0  0  0  0  0  0
   10.4854    6.0710  -10.1231 H   0  0  0  0  0  0  0  0  0  0  0  0
   10.6327    8.3158  -11.3181 H   0  0  0  0  0  0  0  0  0  0  0  0
    9.1208    8.7953  -10.5850 H   0  0  0  0  0  0  0  0  0  0  0  0
   11.6070    7.9600   -9.0148 H   0  0  0  0  0  0  0  0  0  0  0  0
   11.2864    9.6138   -9.4542 H   0  0  0  0  0  0  0  0  0  0  0  0
    9.3437    9.7723   -8.0413 H   0  0  0  0  0  0  0  0  0  0  0  0
    9.1432    8.0925   -7.9121 H   0  0  0  0  0  0  0  0  0  0  0  0
   11.2758   10.8297   -6.9742 H   0  0  0  0  0  0  0  0  0  0  0  0
   12.4859   10.1945   -2.5262 H   0  0  0  0  0  0  0  0  0  0  0  0
   12.8196    8.2229   -1.0705 H   0  0  0  0  0  0  0  0  0  0  0  0
   12.3088    5.9374   -1.9353 H   0  0  0  0  0  0  0  0  0  0  0  0
   11.4371    5.6648   -4.2482 H   0  0  0  0  0  0  0  0  0  0  0  0
   10.1868    6.9171  -12.9509 H   0  0  0  0  0  0  0  0  0  0  0  0
   10.4746    5.2609  -12.4847 H   0  0  0  0  0  0  0  0  0  0  0  0
    9.4132    5.3936  -14.7689 H   0  0  0  0  0  0  0  0  0  0  0  0
    8.0860    6.2805  -14.0910 H   0  0  0  0  0  0  0  0  0  0  0  0
    8.1214    6.8372  -11.6584 H   0  0  0  0  0  0  0  0  0  0  0  0
  2  1  1  0
  3  2  1  0
  4  3  2  0
  5  4  1  0
  6  5  2  0
  7  6  1  0
  8  3  1  0
  8  7  2  0
  9  8  1  0
 10  9  1  0
 11 10  1  0
 12 11  1  0
 13 12  1  0
 14 13  1  0
 15 14  1  0
 16 15  1  0
 17 16  1  0
 18 17  1  0
 19 18  2  0
 20 19  1  0
 21 20  2  0
 22 21  1  0
 23 22  2  0
 24 23  1  0
 25 20  1  0
 25 24  2  0
 26 17  1  0
 26 25  1  0
 27 26  2  0
 28 12  1  0
 29  9  1  0
 29 28  1  0
 30  1  1  0
 31  1  1  0
 32  1  1  0
 33  4  1  0
 34  5  1  0
 35  6  1  0
 36  7  1  0
 37 10  1  0
 38 10  1  0
 39 11  1  0
 40 11  1  0
 41 13  1  0
 42 13  1  0
 43 14  1  0
 44 14  1  0
 45 15  1  0
 46 15  1  0
 47 16  1  0
 48 16  1  0
 49 18  1  0
 50 21  1  0
 51 22  1  0
 52 23  1  0
 53 24  1  0
 54 28  1  0
 55 28  1  0
 56 29  1  0
 57 29  1  0
 58 12  1  0
M  CHG  1  12   1
M  END
>  <b_m_subgroup_collapsed>  (300) 
0

>  <r_i_docking_score>  (300) 
-8.3057382298218698

>  <s_m_subgroup_title>  (300) 
glide-dock_SP_D22_pv

>  <s_m_subgroupid>  (300) 
glide-dock_SP_D22_pv

>  <Molecule ChEMBL ID>  (300) 
CHEMBL239700

>  <Standard Type>  (300) 
Ki

>  <Standard Value>  (300) 
1.2

>  <label>  (300) 
1

$$$$
CHEMBL199045
     RDKit          3D

 62 66  0  0  1  0  0  0  0  0999 V2000
   11.7863    6.1293  -15.3806 C   0  0  0  0  0  0  0  0  0  0  0  0
   11.2012    4.7363  -15.0809 C   0  0  0  0  0  0  0  0  0  0  0  0
   12.0700    3.9974  -14.0546 C   0  0  0  0  0  0  0  0  0  0  0  0
    9.9094    4.9735  -14.4918 O   0  0  0  0  0  0  0  0  0  0  0  0
    8.9460    3.9876  -14.5470 C   0  0  0  0  0  0  0  0  0  0  0  0
    9.0498    2.9735  -15.5298 C   0  0  0  0  0  0  0  0  0  0  0  0
    8.0859    1.9561  -15.6251 C   0  0  0  0  0  0  0  0  0  0  0  0
    6.9897    1.9558  -14.7463 C   0  0  0  0  0  0  0  0  0  0  0  0
    6.8571    2.9810  -13.7901 C   0  0  0  0  0  0  0  0  0  0  0  0
    7.8265    4.0051  -13.6655 C   0  0  0  0  0  0  0  0  0  0  0  0
    7.6337    5.0025  -12.6826 N   0  0  0  0  0  0  0  0  0  0  0  0
    7.2852    4.6422  -11.3220 C   0  0  0  0  0  0  0  0  0  0  0  0
    8.4396    4.9955  -10.3657 C   0  0  0  0  0  0  0  0  0  0  0  0
    8.8205    6.4352  -10.4833 N   0  0  0  0  0  0  0  0  0  0  0  0
    9.8892    6.8378   -9.5293 C   0  0  0  0  0  0  0  0  0  0  0  0
    9.3948    6.9901   -8.0737 C   0  0  0  0  0  0  0  0  0  0  0  0
   10.5196    6.7871   -7.0339 C   0  0  0  0  0  0  0  0  0  0  0  0
   10.8908    7.9856   -6.2113 C   0  0  0  0  0  0  0  0  0  0  0  0
   10.8643    9.3116   -6.5660 C   0  0  0  0  0  0  0  0  0  0  0  0
   11.2860   10.0798   -5.4911 N   0  0  0  0  0  0  0  0  0  0  0  0
   11.6231    9.2751   -4.4197 C   0  0  0  0  0  0  0  0  0  0  0  0
   12.0857    9.5553   -3.1240 C   0  0  0  0  0  0  0  0  0  0  0  0
   12.3610    8.4989   -2.2374 C   0  0  0  0  0  0  0  0  0  0  0  0
   12.1606    7.1700   -2.6528 C   0  0  0  0  0  0  0  0  0  0  0  0
   11.6868    6.8990   -3.9531 C   0  0  0  0  0  0  0  0  0  0  0  0
   11.3985    7.9410   -4.8665 C   0  0  0  0  0  0  0  0  0  0  0  0
    9.1476    6.7931  -11.8928 C   0  0  0  0  0  0  0  0  0  0  0  0
    8.0103    6.3962  -12.8554 C   0  0  0  0  0  0  0  0  0  0  0  0
   10.0973    3.0288  -16.4712 N   0  0  0  0  0  0  0  0  0  0  0  0
   11.1235    3.8766  -16.3630 C   0  0  0  0  0  0  0  0  0  0  0  0
   11.9981    3.9415  -17.2253 O   0  0  0  0  0  0  0  0  0  0  0  0
   12.8065    6.0648  -15.7603 H   0  0  0  0  0  0  0  0  0  0  0  0
   11.1903    6.6579  -16.1249 H   0  0  0  0  0  0  0  0  0  0  0  0
   11.8117    6.7458  -14.4811 H   0  0  0  0  0  0  0  0  0  0  0  0
   13.0772    3.8391  -14.4395 H   0  0  0  0  0  0  0  0  0  0  0  0
   12.1474    4.5577  -13.1228 H   0  0  0  0  0  0  0  0  0  0  0  0
   11.6517    3.0153  -13.8326 H   0  0  0  0  0  0  0  0  0  0  0  0
    8.1678    1.1834  -16.3783 H   0  0  0  0  0  0  0  0  0  0  0  0
    6.2380    1.1855  -14.8178 H   0  0  0  0  0  0  0  0  0  0  0  0
    5.9910    2.9757  -13.1454 H   0  0  0  0  0  0  0  0  0  0  0  0
    6.4058    5.2253  -11.0496 H   0  0  0  0  0  0  0  0  0  0  0  0
    7.0107    3.5949  -11.2210 H   0  0  0  0  0  0  0  0  0  0  0  0
    8.1347    4.7536   -9.3492 H   0  0  0  0  0  0  0  0  0  0  0  0
    9.3094    4.3733  -10.5902 H   0  0  0  0  0  0  0  0  0  0  0  0
   10.6967    6.1091   -9.5985 H   0  0  0  0  0  0  0  0  0  0  0  0
   10.3201    7.7905   -9.8385 H   0  0  0  0  0  0  0  0  0  0  0  0
    8.8834    7.9431   -7.9393 H   0  0  0  0  0  0  0  0  0  0  0  0
    8.6301    6.2475   -7.8581 H   0  0  0  0  0  0  0  0  0  0  0  0
   10.1866    6.0084   -6.3478 H   0  0  0  0  0  0  0  0  0  0  0  0
   11.4170    6.3726   -7.4935 H   0  0  0  0  0  0  0  0  0  0  0  0
   10.5678    9.7709   -7.4969 H   0  0  0  0  0  0  0  0  0  0  0  0
   11.3391   11.0881   -5.5163 H   0  0  0  0  0  0  0  0  0  0  0  0
   12.2254   10.5729   -2.7952 H   0  0  0  0  0  0  0  0  0  0  0  0
   12.7161    8.7098   -1.2407 H   0  0  0  0  0  0  0  0  0  0  0  0
   12.3608    6.3519   -1.9743 H   0  0  0  0  0  0  0  0  0  0  0  0
   11.5309    5.8729   -4.2552 H   0  0  0  0  0  0  0  0  0  0  0  0
    9.3275    7.8655  -11.9682 H   0  0  0  0  0  0  0  0  0  0  0  0
   10.0743    6.2939  -12.1823 H   0  0  0  0  0  0  0  0  0  0  0  0
    8.2689    6.5720  -13.8878 H   0  0  0  0  0  0  0  0  0  0  0  0
    7.1339    7.0117  -12.6503 H   0  0  0  0  0  0  0  0  0  0  0  0
   10.0656    2.4058  -17.2648 H   0  0  0  0  0  0  0  0  0  0  0  0
    7.9749    6.9677  -10.2519 H   0  0  0  0  0  0  0  0  0  0  0  0
  2  1  1  0
  3  2  1  0
  4  2  1  0
  5  4  1  0
  6  5  2  0
  7  6  1  0
  8  7  2  0
  9  8  1  0
 10  5  1  0
 10  9  2  0
 11 10  1  0
 12 11  1  0
 13 12  1  0
 14 13  1  0
 15 14  1  0
 16 15  1  0
 17 16  1  0
 18 17  1  0
 19 18  2  0
 20 19  1  0
 21 20  1  0
 22 21  2  0
 23 22  1  0
 24 23  2  0
 25 24  1  0
 26 18  1  0
 26 21  1  0
 26 25  2  0
 27 14  1  0
 28 11  1  0
 28 27  1  0
 29  6  1  0
 30  2  1  0
 30 29  1  0
 31 30  2  0
 32  1  1  0
 33  1  1  0
 34  1  1  0
 35  3  1  0
 36  3  1  0
 37  3  1  0
 38  7  1  0
 39  8  1  0
 40  9  1  0
 41 12  1  0
 42 12  1  0
 43 13  1  0
 44 13  1  0
 45 15  1  0
 46 15  1  0
 47 16  1  0
 48 16  1  0
 49 17  1  0
 50 17  1  0
 51 19  1  0
 52 20  1  0
 53 22  1  0
 54 23  1  0
 55 24  1  0
 56 25  1  0
 57 27  1  0
 58 27  1  0
 59 28  1  0
 60 28  1  0
 61 29  1  0
 62 14  1  0
M  CHG  1  14   1
M  END
>  <b_m_subgroup_collapsed>  (301) 
0

>  <r_i_docking_score>  (301) 
-8.3038412606154495

>  <s_m_subgroup_title>  (301) 
glide-dock_SP_D22_pv

>  <s_m_subgroupid>  (301) 
glide-dock_SP_D22_pv

>  <Molecule ChEMBL ID>  (301) 
CHEMBL199045

>  <Standard Type>  (301) 
Ki

>  <Standard Value>  (301) 
7.4

>  <label>  (301) 
1

$$$$
CHEMBL457921
     RDKit          3D

 66 69  0  0  1  0  0  0  0  0999 V2000
    6.0950   -0.7981  -14.3867 C   0  0  0  0  0  0  0  0  0  0  0  0
    5.4264    0.1535  -13.5670 O   0  0  0  0  0  0  0  0  0  0  0  0
    5.9315    1.4361  -13.5263 C   0  0  0  0  0  0  0  0  0  0  0  0
    5.3031    2.3406  -12.6470 C   0  0  0  0  0  0  0  0  0  0  0  0
    5.7631    3.6635  -12.5111 C   0  0  0  0  0  0  0  0  0  0  0  0
    6.8691    4.0980  -13.2590 C   0  0  0  0  0  0  0  0  0  0  0  0
    7.5111    3.2109  -14.1490 C   0  0  0  0  0  0  0  0  0  0  0  0
    8.7120    3.6922  -14.9399 C   0  0  0  0  0  0  0  0  0  0  0  0
   10.0473    3.2672  -14.3212 C   0  0  0  0  0  0  0  0  0  0  0  0
   11.2025    3.9866  -14.9953 C   0  0  0  0  0  0  0  0  0  0  0  0
   11.8350    3.4023  -16.1123 C   0  0  0  0  0  0  0  0  0  0  0  0
   12.8854    4.0747  -16.7628 C   0  0  0  0  0  0  0  0  0  0  0  0
   13.3085    5.3329  -16.2961 C   0  0  0  0  0  0  0  0  0  0  0  0
   12.6838    5.9179  -15.1803 C   0  0  0  0  0  0  0  0  0  0  0  0
   11.6197    5.2541  -14.5215 C   0  0  0  0  0  0  0  0  0  0  0  0
   10.9439    5.7897  -13.4464 O   0  0  0  0  0  0  0  0  0  0  0  0
   11.5459    6.8704  -12.7507 C   0  0  0  0  0  0  0  0  0  0  0  0
   10.7535    7.1276  -11.4632 C   0  0  0  0  0  0  0  0  0  0  0  0
   11.5452    8.0034  -10.4759 C   0  0  0  0  0  0  0  0  0  0  0  0
   10.8299    8.1736   -9.2150 N   0  0  0  0  0  0  0  0  0  0  0  0
   11.0169    7.0148   -8.3387 C   0  0  0  0  0  0  0  0  0  0  0  0
   10.1646    7.1851   -7.0705 C   0  0  0  0  0  0  0  0  0  0  0  0
   10.6301    8.3670   -6.3532 N   0  0  0  0  0  0  0  0  0  0  0  0
   11.2737    8.3187   -5.0941 C   0  0  0  0  0  0  0  0  0  0  0  0
   11.4397    9.4974   -4.3305 C   0  0  0  0  0  0  0  0  0  0  0  0
   11.9940    9.4503   -3.0395 C   0  0  0  0  0  0  0  0  0  0  0  0
   12.3785    8.2221   -2.4816 C   0  0  0  0  0  0  0  0  0  0  0  0
   12.8842    8.1775   -1.2298 F   0  0  0  0  0  0  0  0  0  0  0  0
   12.2257    7.0400   -3.2227 C   0  0  0  0  0  0  0  0  0  0  0  0
   11.6856    7.0904   -4.5220 C   0  0  0  0  0  0  0  0  0  0  0  0
   10.6025    9.5630   -7.1895 C   0  0  0  0  0  0  0  0  0  0  0  0
   11.3767    9.3289   -8.5031 C   0  0  0  0  0  0  0  0  0  0  0  0
    7.0376    1.8889  -14.2884 C   0  0  0  0  0  0  0  0  0  0  0  0
    5.6139   -1.7708  -14.2834 H   0  0  0  0  0  0  0  0  0  0  0  0
    6.0481   -0.5145  -15.4387 H   0  0  0  0  0  0  0  0  0  0  0  0
    7.1378   -0.9169  -14.0883 H   0  0  0  0  0  0  0  0  0  0  0  0
    4.4855    2.0072  -12.0355 H   0  0  0  0  0  0  0  0  0  0  0  0
    5.2861    4.3364  -11.8135 H   0  0  0  0  0  0  0  0  0  0  0  0
    7.2301    5.1090  -13.1350 H   0  0  0  0  0  0  0  0  0  0  0  0
    8.6688    4.7809  -14.9969 H   0  0  0  0  0  0  0  0  0  0  0  0
    8.6441    3.3279  -15.9655 H   0  0  0  0  0  0  0  0  0  0  0  0
   10.1803    2.1877  -14.4046 H   0  0  0  0  0  0  0  0  0  0  0  0
   10.0548    3.4871  -13.2536 H   0  0  0  0  0  0  0  0  0  0  0  0
   11.5139    2.4389  -16.4758 H   0  0  0  0  0  0  0  0  0  0  0  0
   13.3682    3.6252  -17.6180 H   0  0  0  0  0  0  0  0  0  0  0  0
   14.1166    5.8483  -16.7924 H   0  0  0  0  0  0  0  0  0  0  0  0
   13.0351    6.8859  -14.8550 H   0  0  0  0  0  0  0  0  0  0  0  0
   12.5731    6.6061  -12.4970 H   0  0  0  0  0  0  0  0  0  0  0  0
   11.5705    7.7717  -13.3636 H   0  0  0  0  0  0  0  0  0  0  0  0
    9.8040    7.6052  -11.7096 H   0  0  0  0  0  0  0  0  0  0  0  0
   10.4864    6.1735  -11.0090 H   0  0  0  0  0  0  0  0  0  0  0  0
   12.5366    7.5871  -10.2923 H   0  0  0  0  0  0  0  0  0  0  0  0
   11.7063    8.9731  -10.9450 H   0  0  0  0  0  0  0  0  0  0  0  0
   10.7493    6.0873   -8.8416 H   0  0  0  0  0  0  0  0  0  0  0  0
   12.0700    6.9721   -8.0552 H   0  0  0  0  0  0  0  0  0  0  0  0
    9.1205    7.3346   -7.3495 H   0  0  0  0  0  0  0  0  0  0  0  0
   10.1746    6.2789   -6.4726 H   0  0  0  0  0  0  0  0  0  0  0  0
   11.1094   10.4616   -4.6851 H   0  0  0  0  0  0  0  0  0  0  0  0
   12.0863   10.3599   -2.4653 H   0  0  0  0  0  0  0  0  0  0  0  0
   12.5190    6.0930   -2.7961 H   0  0  0  0  0  0  0  0  0  0  0  0
   11.5997    6.1566   -5.0548 H   0  0  0  0  0  0  0  0  0  0  0  0
    9.5616    9.7723   -7.4441 H   0  0  0  0  0  0  0  0  0  0  0  0
   10.9956   10.4481   -6.6968 H   0  0  0  0  0  0  0  0  0  0  0  0
   12.4397    9.1923   -8.2969 H   0  0  0  0  0  0  0  0  0  0  0  0
   11.2860   10.1994   -9.1477 H   0  0  0  0  0  0  0  0  0  0  0  0
    7.5488    1.2291  -14.9755 H   0  0  0  0  0  0  0  0  0  0  0  0
  2  1  1  0
  3  2  1  0
  4  3  1  0
  5  4  2  0
  6  5  1  0
  7  6  2  0
  8  7  1  0
  9  8  1  0
 10  9  1  0
 11 10  2  0
 12 11  1  0
 13 12  2  0
 14 13  1  0
 15 10  1  0
 15 14  2  0
 16 15  1  0
 17 16  1  0
 18 17  1  0
 19 18  1  0
 20 19  1  0
 21 20  1  0
 22 21  1  0
 23 22  1  0
 24 23  1  0
 25 24  1  0
 26 25  2  0
 27 26  1  0
 28 27  1  0
 29 27  2  0
 30 24  2  0
 30 29  1  0
 31 23  1  0
 32 20  1  0
 32 31  1  0
 33  3  2  0
 33  7  1  0
 34  1  1  0
 35  1  1  0
 36  1  1  0
 37  4  1  0
 38  5  1  0
 39  6  1  0
 40  8  1  0
 41  8  1  0
 42  9  1  0
 43  9  1  0
 44 11  1  0
 45 12  1  0
 46 13  1  0
 47 14  1  0
 48 17  1  0
 49 17  1  0
 50 18  1  0
 51 18  1  0
 52 19  1  0
 53 19  1  0
 54 21  1  0
 55 21  1  0
 56 22  1  0
 57 22  1  0
 58 25  1  0
 59 26  1  0
 60 29  1  0
 61 30  1  0
 62 31  1  0
 63 31  1  0
 64 32  1  0
 65 32  1  0
 66 33  1  0
M  END
>  <b_m_subgroup_collapsed>  (302) 
0

>  <r_i_docking_score>  (302) 
-8.2963157174250508

>  <s_m_subgroup_title>  (302) 
glide-dock_SP_D22_pv

>  <s_m_subgroupid>  (302) 
glide-dock_SP_D22_pv

>  <Molecule ChEMBL ID>  (302) 
CHEMBL457921

>  <Standard Type>  (302) 
Ki

>  <Standard Value>  (302) 
655000.0

>  <label>  (302) 
0

$$$$
CHEMBL5272829
     RDKit          3D

 51 52  0  0  1  0  0  0  0  0999 V2000
   12.0629    4.6627  -14.4399 C   0  0  0  0  0  0  0  0  0  0  0  0
   11.0031    3.8869  -15.2321 C   0  0  0  0  0  0  0  0  0  0  0  0
    9.7299    3.1228  -14.1799 S   0  0  0  0  0  0  0  0  0  0  0  0
    8.8663    4.5638  -13.4877 C   0  0  1  0  0  0  0  0  0  0  0  0
    7.3770    4.2882  -13.1993 C   0  0  0  0  0  0  0  0  0  0  0  0
    7.0540    4.9486  -11.8467 C   0  0  0  0  0  0  0  0  0  0  0  0
    8.2928    5.7920  -11.5106 C   0  0  1  0  0  0  0  0  0  0  0  0
    8.4860    6.1723  -10.0781 N   0  0  1  0  0  0  0  0  0  0  0  0
    8.6301    5.0322   -9.1308 C   0  0  0  0  0  0  0  0  0  0  0  0
    9.6023    7.1521   -9.9422 C   0  0  0  0  0  0  0  0  0  0  0  0
    9.6451    7.9028   -8.6071 C   0  0  0  0  0  0  0  0  0  0  0  0
    8.8916    8.8565   -8.4172 O   0  0  0  0  0  0  0  0  0  0  0  0
   10.5502    7.4619   -7.7137 N   0  0  0  0  0  0  0  0  0  0  0  0
   10.8797    8.0441   -6.4653 C   0  0  0  0  0  0  0  0  0  0  0  0
   10.8887    9.4414   -6.2598 C   0  0  0  0  0  0  0  0  0  0  0  0
   11.2862    9.9722   -5.0206 C   0  0  0  0  0  0  0  0  0  0  0  0
   11.6886    9.1184   -3.9754 C   0  0  0  0  0  0  0  0  0  0  0  0
   12.1230    9.7034   -2.6469 C   0  0  0  0  0  0  0  0  0  0  0  0
   11.6862    7.7202   -4.1771 C   0  0  0  0  0  0  0  0  0  0  0  0
   12.0949    6.7816   -3.0627 C   0  0  0  0  0  0  0  0  0  0  0  0
   11.2853    7.1906   -5.4213 C   0  0  0  0  0  0  0  0  0  0  0  0
    9.4490    5.0137  -12.1451 C   0  0  0  0  0  0  0  0  0  0  0  0
   12.9046    4.9286  -15.0815 H   0  0  0  0  0  0  0  0  0  0  0  0
   11.6622    5.5955  -14.0466 H   0  0  0  0  0  0  0  0  0  0  0  0
   12.4549    4.0770  -13.6087 H   0  0  0  0  0  0  0  0  0  0  0  0
   11.4918    3.0867  -15.7900 H   0  0  0  0  0  0  0  0  0  0  0  0
   10.5272    4.5351  -15.9675 H   0  0  0  0  0  0  0  0  0  0  0  0
    8.9244    5.3842  -14.2047 H   0  0  0  0  0  0  0  0  0  0  0  0
    7.1719    3.2178  -13.1463 H   0  0  0  0  0  0  0  0  0  0  0  0
    6.7473    4.6852  -13.9952 H   0  0  0  0  0  0  0  0  0  0  0  0
    6.8840    4.1553  -11.1230 H   0  0  0  0  0  0  0  0  0  0  0  0
    6.1459    5.5523  -11.8845 H   0  0  0  0  0  0  0  0  0  0  0  0
    8.1752    6.7221  -12.0711 H   0  0  0  0  0  0  0  0  0  0  0  0
    9.6187    4.5772   -9.2111 H   0  0  0  0  0  0  0  0  0  0  0  0
    8.5004    5.3749   -8.1029 H   0  0  0  0  0  0  0  0  0  0  0  0
    7.9047    4.2383   -9.2810 H   0  0  0  0  0  0  0  0  0  0  0  0
    9.5077    7.9159  -10.7147 H   0  0  0  0  0  0  0  0  0  0  0  0
   10.5595    6.6590  -10.1195 H   0  0  0  0  0  0  0  0  0  0  0  0
   11.0224    6.5974   -7.9287 H   0  0  0  0  0  0  0  0  0  0  0  0
   10.6111   10.1239   -7.0467 H   0  0  0  0  0  0  0  0  0  0  0  0
   11.2844   11.0416   -4.8813 H   0  0  0  0  0  0  0  0  0  0  0  0
   12.0855   10.7913   -2.6457 H   0  0  0  0  0  0  0  0  0  0  0  0
   11.4835    9.3442   -1.8469 H   0  0  0  0  0  0  0  0  0  0  0  0
   13.1437    9.3969   -2.4194 H   0  0  0  0  0  0  0  0  0  0  0  0
   12.1994    5.7723   -3.4407 H   0  0  0  0  0  0  0  0  0  0  0  0
   13.0574    7.0716   -2.6464 H   0  0  0  0  0  0  0  0  0  0  0  0
   11.3498    6.7692   -2.2656 H   0  0  0  0  0  0  0  0  0  0  0  0
   11.2926    6.1208   -5.5730 H   0  0  0  0  0  0  0  0  0  0  0  0
   10.3455    5.6204  -12.2586 H   0  0  0  0  0  0  0  0  0  0  0  0
    9.7085    4.1397  -11.5459 H   0  0  0  0  0  0  0  0  0  0  0  0
    7.6316    6.6932   -9.8464 H   0  0  0  0  0  0  0  0  0  0  0  0
  2  1  1  0
  3  2  1  0
  4  3  1  0
  5  4  1  0
  6  5  1  0
  7  6  1  0
  8  7  1  0
  9  8  1  0
 10  8  1  0
 11 10  1  0
 12 11  2  0
 13 11  1  0
 14 13  1  0
 15 14  1  0
 16 15  2  0
 17 16  1  0
 18 17  1  0
 19 17  2  0
 20 19  1  0
 21 14  2  0
 21 19  1  0
 22  4  1  0
 22  7  1  0
 23  1  1  0
 24  1  1  0
 25  1  1  0
 26  2  1  0
 27  2  1  0
  4 28  1  6
 29  5  1  0
 30  5  1  0
 31  6  1  0
 32  6  1  0
  7 33  1  6
 34  9  1  0
 35  9  1  0
 36  9  1  0
 37 10  1  0
 38 10  1  0
 39 13  1  0
 40 15  1  0
 41 16  1  0
 42 18  1  0
 43 18  1  0
 44 18  1  0
 45 20  1  0
 46 20  1  0
 47 20  1  0
 48 21  1  0
 49 22  1  0
 50 22  1  0
  8 51  1  1
M  CHG  1   8   1
M  END
>  <b_m_subgroup_collapsed>  (303) 
0

>  <r_i_docking_score>  (303) 
-8.2961971429016703

>  <s_m_subgroup_title>  (303) 
glide-dock_SP_D22_pv

>  <s_m_subgroupid>  (303) 
glide-dock_SP_D22_pv

>  <Molecule ChEMBL ID>  (303) 
CHEMBL5272829

>  <Standard Type>  (303) 
Ki

>  <Standard Value>  (303) 
10000.0

>  <label>  (303) 
0

$$$$
CHEMBL77151
     RDKit          3D

 42 45  0  0  1  0  0  0  0  0999 V2000
   12.0862    6.9835   -2.6346 Cl  0  0  0  0  0  0  0  0  0  0  0  0
   11.6861    7.9701   -3.9907 C   0  0  0  0  0  0  0  0  0  0  0  0
   11.5940    9.3711   -3.8543 C   0  0  0  0  0  0  0  0  0  0  0  0
   11.2858   10.1651   -4.9777 C   0  0  0  0  0  0  0  0  0  0  0  0
   11.1452    9.5596   -6.2393 C   0  0  0  0  0  0  0  0  0  0  0  0
   11.2504    8.1606   -6.3833 C   0  0  0  0  0  0  0  0  0  0  0  0
   11.2220    7.5737   -7.6547 N   0  0  0  0  0  0  0  0  0  0  0  0
   11.9395    8.1725   -8.7725 C   0  0  0  0  0  0  0  0  0  0  0  0
   10.9555    8.5433   -9.8905 C   0  0  0  0  0  0  0  0  0  0  0  0
   10.2329    7.3386  -10.3105 N   0  0  0  0  0  0  0  0  0  0  0  0
    9.4045    7.6646  -11.4696 C   0  0  0  0  0  0  0  0  0  0  0  0
    8.7622    6.4745  -12.1105 C   0  0  0  0  0  0  0  0  0  0  0  0
    9.3770    5.6528  -12.9638 N   0  0  0  0  0  0  0  0  0  0  0  0
    8.3860    4.7277  -13.2545 C   0  0  0  0  0  0  0  0  0  0  0  0
    8.4001    3.6045  -14.1113 C   0  0  0  0  0  0  0  0  0  0  0  0
    7.2528    2.7928  -14.2446 C   0  0  0  0  0  0  0  0  0  0  0  0
    6.0861    3.0798  -13.5037 C   0  0  0  0  0  0  0  0  0  0  0  0
    6.0453    4.1995  -12.6495 C   0  0  0  0  0  0  0  0  0  0  0  0
    7.1835    5.0165  -12.5444 C   0  0  0  0  0  0  0  0  0  0  0  0
    7.4812    6.1723  -11.8470 N   0  0  0  0  0  0  0  0  0  0  0  0
    9.4147    6.8772   -9.1752 C   0  0  0  0  0  0  0  0  0  0  0  0
   10.3062    6.4874   -7.9748 C   0  0  0  0  0  0  0  0  0  0  0  0
   11.4588    7.3627   -5.2395 C   0  0  0  0  0  0  0  0  0  0  0  0
   11.7487    9.8336   -2.8904 H   0  0  0  0  0  0  0  0  0  0  0  0
   11.1934   11.2351   -4.8878 H   0  0  0  0  0  0  0  0  0  0  0  0
   10.9594   10.1724   -7.1044 H   0  0  0  0  0  0  0  0  0  0  0  0
   12.5136    9.0428   -8.4590 H   0  0  0  0  0  0  0  0  0  0  0  0
   12.6649    7.4539   -9.1505 H   0  0  0  0  0  0  0  0  0  0  0  0
   10.2599    9.3148   -9.5566 H   0  0  0  0  0  0  0  0  0  0  0  0
   11.5159    8.9567  -10.7298 H   0  0  0  0  0  0  0  0  0  0  0  0
    8.6336    8.3851  -11.1911 H   0  0  0  0  0  0  0  0  0  0  0  0
   10.0210    8.1440  -12.2303 H   0  0  0  0  0  0  0  0  0  0  0  0
    9.2979    3.3697  -14.6621 H   0  0  0  0  0  0  0  0  0  0  0  0
    7.2745    1.9328  -14.8978 H   0  0  0  0  0  0  0  0  0  0  0  0
    5.2213    2.4385  -13.5920 H   0  0  0  0  0  0  0  0  0  0  0  0
    5.1607    4.4298  -12.0751 H   0  0  0  0  0  0  0  0  0  0  0  0
    6.8990    6.7369  -11.2027 H   0  0  0  0  0  0  0  0  0  0  0  0
    8.7110    7.6584   -8.8809 H   0  0  0  0  0  0  0  0  0  0  0  0
    8.8166    6.0122   -9.4613 H   0  0  0  0  0  0  0  0  0  0  0  0
   10.8858    5.5964   -8.2141 H   0  0  0  0  0  0  0  0  0  0  0  0
    9.6821    6.2410   -7.1151 H   0  0  0  0  0  0  0  0  0  0  0  0
   11.5447    6.2883   -5.3352 H   0  0  0  0  0  0  0  0  0  0  0  0
  2  1  1  0
  3  2  1  0
  4  3  2  0
  5  4  1  0
  6  5  2  0
  7  6  1  0
  8  7  1  0
  9  8  1  0
 10  9  1  0
 11 10  1  0
 12 11  1  0
 13 12  2  0
 14 13  1  0
 15 14  2  0
 16 15  1  0
 17 16  2  0
 18 17  1  0
 19 14  1  0
 19 18  2  0
 20 12  1  0
 20 19  1  0
 21 10  1  0
 22  7  1  0
 22 21  1  0
 23  2  2  0
 23  6  1  0
 24  3  1  0
 25  4  1  0
 26  5  1  0
 27  8  1  0
 28  8  1  0
 29  9  1  0
 30  9  1  0
 31 11  1  0
 32 11  1  0
 33 15  1  0
 34 16  1  0
 35 17  1  0
 36 18  1  0
 37 20  1  0
 38 21  1  0
 39 21  1  0
 40 22  1  0
 41 22  1  0
 42 23  1  0
M  END
>  <b_m_subgroup_collapsed>  (304) 
0

>  <r_i_docking_score>  (304) 
-8.2950055364130293

>  <s_m_subgroup_title>  (304) 
glide-dock_SP_D22_pv

>  <s_m_subgroupid>  (304) 
glide-dock_SP_D22_pv

>  <Molecule ChEMBL ID>  (304) 
CHEMBL77151

>  <Standard Type>  (304) 
Ki

>  <Standard Value>  (304) 
10000.0

>  <label>  (304) 
0

$$$$
CHEMBL1088000
     RDKit          3D

 67 73  0  0  1  0  0  0  0  0999 V2000
    3.3210   -1.0282  -14.4894 O   0  0  0  0  0  0  0  0  0  0  0  0
    4.3347   -0.7307  -15.1180 C   0  0  0  0  0  0  0  0  0  0  0  0
    4.3978   -0.9360  -16.6436 C   0  0  0  0  0  0  0  0  0  0  0  0
    5.8073   -0.7399  -17.2568 C   0  0  0  0  0  0  0  0  0  0  0  0
    6.6074    0.3539  -16.5689 C   0  0  0  0  0  0  0  0  0  0  0  0
    7.5746    1.1304  -17.2438 C   0  0  0  0  0  0  0  0  0  0  0  0
    8.3155    2.1089  -16.5408 C   0  0  0  0  0  0  0  0  0  0  0  0
    8.1156    2.3054  -15.1543 C   0  0  0  0  0  0  0  0  0  0  0  0
    8.9523    3.3241  -14.3721 C   0  0  0  0  0  0  0  0  0  0  0  0
    8.2033    4.5675  -13.8061 C   0  0  1  0  0  0  0  0  0  0  0  0
    6.9951    4.2008  -12.9079 C   0  0  0  0  0  0  0  0  0  0  0  0
    6.5399    5.2770  -11.9118 C   0  0  2  0  0  0  0  0  0  0  0  0
    6.0569    6.5476  -12.5802 C   0  0  0  0  0  0  0  0  0  0  0  0
    7.3628    7.3277  -12.8081 C   0  0  0  0  0  0  0  0  0  0  0  0
    8.4583    6.5175  -12.1086 C   0  0  2  0  0  0  0  0  0  0  0  0
    9.1792    5.5489  -13.0953 C   0  0  0  0  0  0  0  0  0  0  0  0
    7.6875    5.7505  -11.1142 N   0  0  2  0  0  0  0  0  0  0  0  0
    8.4214    4.7215  -10.3210 C   0  0  0  0  0  0  0  0  0  0  0  0
    9.3083    5.3043   -9.2164 C   0  0  2  0  0  0  0  0  0  0  0  0
    8.4804    6.0631   -8.1828 C   0  0  0  0  0  0  0  0  0  0  0  0
    9.2927    6.4977   -7.1276 O   0  0  0  0  0  0  0  0  0  0  0  0
   10.3642    7.2030   -7.5913 C   0  0  0  0  0  0  0  0  0  0  0  0
   10.8731    7.0470   -8.9091 C   0  0  0  0  0  0  0  0  0  0  0  0
   12.0171    7.7721   -9.3173 C   0  0  0  0  0  0  0  0  0  0  0  0
   12.6968    8.5767   -8.3883 C   0  0  0  0  0  0  0  0  0  0  0  0
   12.0860    8.8270   -7.1492 C   0  0  0  0  0  0  0  0  0  0  0  0
   10.9730    8.1278   -6.7532 C   0  0  0  0  0  0  0  0  0  0  0  0
   10.5791    8.5033   -5.3683 C   0  0  0  0  0  0  0  0  0  0  0  0
   11.7451    9.4122   -5.0085 C   0  0  0  0  0  0  0  0  0  0  0  0
   11.9844    9.7723   -3.8600 O   0  0  0  0  0  0  0  0  0  0  0  0
   12.4862    9.6523   -6.0959 N   0  0  0  0  0  0  0  0  0  0  0  0
   10.2829    6.1723   -9.7887 O   0  0  0  0  0  0  0  0  0  0  0  0
    7.1619    1.5024  -14.4958 C   0  0  0  0  0  0  0  0  0  0  0  0
    6.3919    0.5635  -15.1954 C   0  0  0  0  0  0  0  0  0  0  0  0
    5.3644   -0.1227  -14.5111 N   0  0  0  0  0  0  0  0  0  0  0  0
    4.0129   -1.9259  -16.8941 H   0  0  0  0  0  0  0  0  0  0  0  0
    3.7067   -0.2277  -17.0952 H   0  0  0  0  0  0  0  0  0  0  0  0
    5.7214   -0.5200  -18.3211 H   0  0  0  0  0  0  0  0  0  0  0  0
    6.3726   -1.6688  -17.1746 H   0  0  0  0  0  0  0  0  0  0  0  0
    7.7553    0.9737  -18.2972 H   0  0  0  0  0  0  0  0  0  0  0  0
    9.0540    2.6947  -17.0689 H   0  0  0  0  0  0  0  0  0  0  0  0
    9.7707    3.6629  -15.0089 H   0  0  0  0  0  0  0  0  0  0  0  0
    9.4279    2.7871  -13.5499 H   0  0  0  0  0  0  0  0  0  0  0  0
    7.7925    5.1131  -14.6468 H   0  0  0  0  0  0  0  0  0  0  0  0
    7.2718    3.3723  -12.2817 H   0  0  0  0  0  0  0  0  0  0  0  0
    6.1496    3.8775  -13.5168 H   0  0  0  0  0  0  0  0  0  0  0  0
    5.7280    4.8604  -11.3316 H   0  0  0  0  0  0  0  0  0  0  0  0
    5.4495    6.3413  -13.4469 H   0  0  0  0  0  0  0  0  0  0  0  0
    5.3899    7.0826  -11.9030 H   0  0  0  0  0  0  0  0  0  0  0  0
    7.6218    7.3723  -13.8468 H   0  0  0  0  0  0  0  0  0  0  0  0
    7.2881    8.3433  -12.4164 H   0  0  0  0  0  0  0  0  0  0  0  0
    9.1715    7.1968  -11.6449 H   0  0  0  0  0  0  0  0  0  0  0  0
    9.7272    6.1150  -13.8457 H   0  0  0  0  0  0  0  0  0  0  0  0
    9.9666    5.0027  -12.5785 H   0  0  0  0  0  0  0  0  0  0  0  0
    9.0245    4.0773  -10.9532 H   0  0  0  0  0  0  0  0  0  0  0  0
    7.6860    4.0737   -9.8494 H   0  0  0  0  0  0  0  0  0  0  0  0
    9.8293    4.4830   -8.7208 H   0  0  0  0  0  0  0  0  0  0  0  0
    8.0860    6.9572   -8.6531 H   0  0  0  0  0  0  0  0  0  0  0  0
    7.6738    5.4528   -7.7857 H   0  0  0  0  0  0  0  0  0  0  0  0
   12.4235    7.6316  -10.3082 H   0  0  0  0  0  0  0  0  0  0  0  0
   13.6294    9.0495   -8.6469 H   0  0  0  0  0  0  0  0  0  0  0  0
    9.6860    9.1066   -5.4471 H   0  0  0  0  0  0  0  0  0  0  0  0
   10.4860    7.6405   -4.7098 H   0  0  0  0  0  0  0  0  0  0  0  0
   13.3629   10.1660   -6.1122 H   0  0  0  0  0  0  0  0  0  0  0  0
    6.9820    1.6103  -13.4468 H   0  0  0  0  0  0  0  0  0  0  0  0
    5.3018    0.0160  -13.5153 H   0  0  0  0  0  0  0  0  0  0  0  0
    7.2805    6.4454  -10.4836 H   0  0  0  0  0  0  0  0  0  0  0  0
  2  1  2  0
  3  2  1  0
  4  3  1  0
  5  4  1  0
  6  5  1  0
  7  6  2  0
  8  7  1  0
  9  8  1  0
 10  9  1  0
 11 10  1  0
 12 11  1  0
 13 12  1  0
 14 13  1  0
 15 14  1  0
 16 10  1  0
 16 15  1  0
 17 12  1  0
 17 15  1  0
 18 17  1  0
 19 18  1  0
 20 19  1  0
 21 20  1  0
 22 21  1  0
 23 22  2  0
 24 23  1  0
 25 24  2  0
 26 25  1  0
 27 22  1  0
 27 26  2  0
 28 27  1  0
 29 28  1  0
 30 29  2  0
 31 26  1  0
 31 29  1  0
 32 19  1  0
 32 23  1  0
 33  8  2  0
 34  5  2  0
 34 33  1  0
 35  2  1  0
 35 34  1  0
 36  3  1  0
 37  3  1  0
 38  4  1  0
 39  4  1  0
 40  6  1  0
 41  7  1  0
 42  9  1  0
 43  9  1  0
 10 44  1  6
 45 11  1  0
 46 11  1  0
 12 47  1  1
 48 13  1  0
 49 13  1  0
 50 14  1  0
 51 14  1  0
 15 52  1  1
 53 16  1  0
 54 16  1  0
 55 18  1  0
 56 18  1  0
 19 57  1  1
 58 20  1  0
 59 20  1  0
 60 24  1  0
 61 25  1  0
 62 28  1  0
 63 28  1  0
 64 31  1  0
 65 33  1  0
 66 35  1  0
 17 67  1  1
M  CHG  1  17   1
M  END
>  <b_m_subgroup_collapsed>  (305) 
0

>  <r_i_docking_score>  (305) 
-8.2946149190410097

>  <s_m_subgroup_title>  (305) 
glide-dock_SP_D22_pv

>  <s_m_subgroupid>  (305) 
glide-dock_SP_D22_pv

>  <Molecule ChEMBL ID>  (305) 
CHEMBL1088000

>  <Standard Type>  (305) 
Ki

>  <Standard Value>  (305) 
16.0

>  <label>  (305) 
1

$$$$
CHEMBL519228
     RDKit          3D

 68 71  0  0  1  0  0  0  0  0999 V2000
   13.2923   -0.6165  -19.7164 C   0  0  0  0  0  0  0  0  0  0  0  0
   12.2461   -0.5798  -18.7545 O   0  0  0  0  0  0  0  0  0  0  0  0
   12.0610    0.5912  -18.0510 C   0  0  0  0  0  0  0  0  0  0  0  0
   12.7866    1.7873  -18.2777 C   0  0  0  0  0  0  0  0  0  0  0  0
   12.5470    2.9313  -17.4915 C   0  0  0  0  0  0  0  0  0  0  0  0
   11.5862    2.8932  -16.4638 C   0  0  0  0  0  0  0  0  0  0  0  0
   10.8574    1.7116  -16.2292 C   0  0  0  0  0  0  0  0  0  0  0  0
    9.8095    1.6753  -15.1321 C   0  0  0  0  0  0  0  0  0  0  0  0
    8.4995    2.3203  -15.6036 C   0  0  0  0  0  0  0  0  0  0  0  0
    7.3855    2.2027  -14.5804 C   0  0  0  0  0  0  0  0  0  0  0  0
    6.7089    0.9673  -14.4708 C   0  0  0  0  0  0  0  0  0  0  0  0
    5.6662    0.8060  -13.5454 C   0  0  0  0  0  0  0  0  0  0  0  0
    5.2856    1.8878  -12.7339 C   0  0  0  0  0  0  0  0  0  0  0  0
    5.9442    3.1263  -12.8429 C   0  0  0  0  0  0  0  0  0  0  0  0
    7.0259    3.2945  -13.7486 C   0  0  0  0  0  0  0  0  0  0  0  0
    7.7672    4.4577  -13.8326 O   0  0  0  0  0  0  0  0  0  0  0  0
    7.4131    5.5687  -13.0116 C   0  0  0  0  0  0  0  0  0  0  0  0
    7.8795    5.4165  -11.5535 C   0  0  0  0  0  0  0  0  0  0  0  0
    9.3832    5.6508  -11.3525 C   0  0  0  0  0  0  0  0  0  0  0  0
    9.8060    5.7996   -9.8754 C   0  0  0  0  0  0  0  0  0  0  0  0
    9.0986    6.9625   -9.1541 C   0  0  0  0  0  0  0  0  0  0  0  0
    9.9403    7.5543   -8.0845 N   0  0  1  0  0  0  0  0  0  0  0  0
    9.5835    8.9585   -7.7768 C   0  0  0  0  0  0  0  0  0  0  0  0
   10.7400    9.6102   -7.0112 C   0  0  0  0  0  0  0  0  0  0  0  0
   11.1658    8.7895   -5.8204 C   0  0  0  0  0  0  0  0  0  0  0  0
   11.8793    9.4123   -4.7811 C   0  0  0  0  0  0  0  0  0  0  0  0
   12.3104    8.6742   -3.6662 C   0  0  0  0  0  0  0  0  0  0  0  0
   12.0229    7.2987   -3.5963 C   0  0  0  0  0  0  0  0  0  0  0  0
   11.2903    6.6820   -4.6297 C   0  0  0  0  0  0  0  0  0  0  0  0
   10.8564    7.4136   -5.7531 C   0  0  0  0  0  0  0  0  0  0  0  0
   10.0325    6.7345   -6.8465 C   0  0  0  0  0  0  0  0  0  0  0  0
   11.0879    0.5729  -17.0312 C   0  0  0  0  0  0  0  0  0  0  0  0
   13.3427   -1.6106  -20.1558 H   0  0  0  0  0  0  0  0  0  0  0  0
   13.1164    0.0946  -20.5258 H   0  0  0  0  0  0  0  0  0  0  0  0
   14.2616   -0.4102  -19.2587 H   0  0  0  0  0  0  0  0  0  0  0  0
   13.5374    1.8541  -19.0466 H   0  0  0  0  0  0  0  0  0  0  0  0
   13.1028    3.8371  -17.6691 H   0  0  0  0  0  0  0  0  0  0  0  0
   11.4048    3.7704  -15.8609 H   0  0  0  0  0  0  0  0  0  0  0  0
   10.1867    2.1914  -14.2486 H   0  0  0  0  0  0  0  0  0  0  0  0
    9.6401    0.6384  -14.8355 H   0  0  0  0  0  0  0  0  0  0  0  0
    8.1639    1.8342  -16.5211 H   0  0  0  0  0  0  0  0  0  0  0  0
    8.6720    3.3636  -15.8623 H   0  0  0  0  0  0  0  0  0  0  0  0
    6.9929    0.1332  -15.0948 H   0  0  0  0  0  0  0  0  0  0  0  0
    5.1534   -0.1392  -13.4619 H   0  0  0  0  0  0  0  0  0  0  0  0
    4.4863    1.7763  -12.0237 H   0  0  0  0  0  0  0  0  0  0  0  0
    5.6200    3.9145  -12.1831 H   0  0  0  0  0  0  0  0  0  0  0  0
    7.8637    6.4616  -13.4444 H   0  0  0  0  0  0  0  0  0  0  0  0
    6.3388    5.7571  -13.0480 H   0  0  0  0  0  0  0  0  0  0  0  0
    7.3258    6.1654  -10.9925 H   0  0  0  0  0  0  0  0  0  0  0  0
    7.5935    4.4566  -11.1308 H   0  0  0  0  0  0  0  0  0  0  0  0
    9.9344    4.8300  -11.8111 H   0  0  0  0  0  0  0  0  0  0  0  0
    9.6782    6.5505  -11.8916 H   0  0  0  0  0  0  0  0  0  0  0  0
    9.6324    4.8687   -9.3354 H   0  0  0  0  0  0  0  0  0  0  0  0
   10.8854    5.9710   -9.8478 H   0  0  0  0  0  0  0  0  0  0  0  0
    8.8859    7.7355   -9.8920 H   0  0  0  0  0  0  0  0  0  0  0  0
    8.1327    6.6440   -8.7566 H   0  0  0  0  0  0  0  0  0  0  0  0
    9.3926    9.5160   -8.6942 H   0  0  0  0  0  0  0  0  0  0  0  0
    8.6573    8.9734   -7.1995 H   0  0  0  0  0  0  0  0  0  0  0  0
   10.4862   10.6039   -6.6461 H   0  0  0  0  0  0  0  0  0  0  0  0
   11.6023    9.7247   -7.6689 H   0  0  0  0  0  0  0  0  0  0  0  0
   12.0860   10.4668   -4.8546 H   0  0  0  0  0  0  0  0  0  0  0  0
   12.8598    9.1588   -2.8712 H   0  0  0  0  0  0  0  0  0  0  0  0
   12.3437    6.7213   -2.7414 H   0  0  0  0  0  0  0  0  0  0  0  0
   11.0435    5.6426   -4.5463 H   0  0  0  0  0  0  0  0  0  0  0  0
    9.0327    6.5400   -6.4573 H   0  0  0  0  0  0  0  0  0  0  0  0
   10.4842    5.7721   -7.0852 H   0  0  0  0  0  0  0  0  0  0  0  0
   10.5207   -0.3293  -16.8544 H   0  0  0  0  0  0  0  0  0  0  0  0
   10.8733    7.6027   -8.4670 H   0  0  0  0  0  0  0  0  0  0  0  0
  2  1  1  0
  3  2  1  0
  4  3  1  0
  5  4  2  0
  6  5  1  0
  7  6  2  0
  8  7  1  0
  9  8  1  0
 10  9  1  0
 11 10  2  0
 12 11  1  0
 13 12  2  0
 14 13  1  0
 15 10  1  0
 15 14  2  0
 16 15  1  0
 17 16  1  0
 18 17  1  0
 19 18  1  0
 20 19  1  0
 21 20  1  0
 22 21  1  0
 23 22  1  0
 24 23  1  0
 25 24  1  0
 26 25  2  0
 27 26  1  0
 28 27  2  0
 29 28  1  0
 30 25  1  0
 30 29  2  0
 31 22  1  0
 31 30  1  0
 32  3  2  0
 32  7  1  0
 33  1  1  0
 34  1  1  0
 35  1  1  0
 36  4  1  0
 37  5  1  0
 38  6  1  0
 39  8  1  0
 40  8  1  0
 41  9  1  0
 42  9  1  0
 43 11  1  0
 44 12  1  0
 45 13  1  0
 46 14  1  0
 47 17  1  0
 48 17  1  0
 49 18  1  0
 50 18  1  0
 51 19  1  0
 52 19  1  0
 53 20  1  0
 54 20  1  0
 55 21  1  0
 56 21  1  0
 57 23  1  0
 58 23  1  0
 59 24  1  0
 60 24  1  0
 61 26  1  0
 62 27  1  0
 63 28  1  0
 64 29  1  0
 65 31  1  0
 66 31  1  0
 67 32  1  0
 22 68  1  6
M  CHG  1  22   1
M  END
>  <b_m_subgroup_collapsed>  (306) 
0

>  <r_i_docking_score>  (306) 
-8.2921633433968793

>  <s_m_subgroup_title>  (306) 
glide-dock_SP_D22_pv

>  <s_m_subgroupid>  (306) 
glide-dock_SP_D22_pv

>  <Molecule ChEMBL ID>  (306) 
CHEMBL519228

>  <Standard Type>  (306) 
Ki

>  <Standard Value>  (306) 
1000000.0

>  <label>  (306) 
0

$$$$
CHEMBL292187
     RDKit          3D

 51 55  0  0  1  0  0  0  0  0999 V2000
    9.5870   -0.3187  -16.4202 F   0  0  0  0  0  0  0  0  0  0  0  0
    9.6920    0.8418  -15.7302 C   0  0  0  0  0  0  0  0  0  0  0  0
    8.6098    1.3156  -14.9657 C   0  0  0  0  0  0  0  0  0  0  0  0
    8.7302    2.5230  -14.2472 C   0  0  0  0  0  0  0  0  0  0  0  0
    9.9359    3.2616  -14.2719 C   0  0  0  0  0  0  0  0  0  0  0  0
   10.0986    4.5012  -13.5152 C   0  0  0  0  0  0  0  0  0  0  0  0
   10.9721    5.5443  -13.6545 C   0  0  0  0  0  0  0  0  0  0  0  0
   10.6771    6.5076  -12.6467 C   0  0  0  0  0  0  0  0  0  0  0  0
    9.6505    6.0248  -11.8778 C   0  0  0  0  0  0  0  0  0  0  0  0
    8.9416    6.5842  -10.6843 C   0  0  0  0  0  0  0  0  0  0  0  0
    9.8712    6.7380   -9.5377 N   0  0  0  0  0  0  0  0  0  0  0  0
    9.2879    6.3963   -8.2163 C   0  0  0  0  0  0  0  0  0  0  0  0
   10.4028    6.3238   -7.1526 C   0  0  0  0  0  0  0  0  0  0  0  0
   11.2482    7.5100   -7.1681 N   0  0  0  0  0  0  0  0  0  0  0  0
   11.2710    8.3328   -6.0264 C   0  0  0  0  0  0  0  0  0  0  0  0
   10.8890    9.6843   -6.1200 C   0  0  0  0  0  0  0  0  0  0  0  0
   10.8892   10.5014   -4.9803 C   0  0  0  0  0  0  0  0  0  0  0  0
   11.2983    9.9986   -3.7352 C   0  0  0  0  0  0  0  0  0  0  0  0
   11.6861    8.6591   -3.5887 C   0  0  0  0  0  0  0  0  0  0  0  0
   12.1025    7.8291   -2.5028 C   0  0  0  0  0  0  0  0  0  0  0  0
   12.2576    6.5818   -3.0449 C   0  0  0  0  0  0  0  0  0  0  0  0
   11.9922    6.5640   -4.3895 O   0  0  0  0  0  0  0  0  0  0  0  0
   11.6388    7.8451   -4.7479 C   0  0  0  0  0  0  0  0  0  0  0  0
   11.6993    8.0268   -8.4585 C   0  0  0  0  0  0  0  0  0  0  0  0
   10.5559    8.0574   -9.4879 C   0  0  0  0  0  0  0  0  0  0  0  0
    9.3054    4.8016  -12.4235 N   0  0  0  0  0  0  0  0  0  0  0  0
   11.0067    2.7758  -15.0551 C   0  0  0  0  0  0  0  0  0  0  0  0
   10.8868    1.5778  -15.7817 C   0  0  0  0  0  0  0  0  0  0  0  0
    7.6886    0.7517  -14.9324 H   0  0  0  0  0  0  0  0  0  0  0  0
    7.8861    2.8717  -13.6718 H   0  0  0  0  0  0  0  0  0  0  0  0
   11.7342    5.6234  -14.4172 H   0  0  0  0  0  0  0  0  0  0  0  0
   11.1787    7.4518  -12.5089 H   0  0  0  0  0  0  0  0  0  0  0  0
    8.1161    5.9245  -10.4143 H   0  0  0  0  0  0  0  0  0  0  0  0
    8.4865    7.5419  -10.9363 H   0  0  0  0  0  0  0  0  0  0  0  0
    8.7747    5.4347   -8.2644 H   0  0  0  0  0  0  0  0  0  0  0  0
    8.5383    7.1393   -7.9394 H   0  0  0  0  0  0  0  0  0  0  0  0
   11.0396    5.4619   -7.3497 H   0  0  0  0  0  0  0  0  0  0  0  0
    9.9617    6.1726   -6.1665 H   0  0  0  0  0  0  0  0  0  0  0  0
   10.5637   10.1071   -7.0522 H   0  0  0  0  0  0  0  0  0  0  0  0
   10.5767   11.5250   -5.0468 H   0  0  0  0  0  0  0  0  0  0  0  0
   11.2972   10.6333   -2.8662 H   0  0  0  0  0  0  0  0  0  0  0  0
   12.2299    8.1314   -1.4742 H   0  0  0  0  0  0  0  0  0  0  0  0
   12.5476    5.6358   -2.6154 H   0  0  0  0  0  0  0  0  0  0  0  0
   12.1535    9.0133   -8.3595 H   0  0  0  0  0  0  0  0  0  0  0  0
   12.4931    7.3732   -8.8194 H   0  0  0  0  0  0  0  0  0  0  0  0
   10.9602    8.3229  -10.4627 H   0  0  0  0  0  0  0  0  0  0  0  0
    9.8336    8.8315   -9.2247 H   0  0  0  0  0  0  0  0  0  0  0  0
    8.5713    4.2023  -12.0762 H   0  0  0  0  0  0  0  0  0  0  0  0
   11.9410    3.3174  -15.0949 H   0  0  0  0  0  0  0  0  0  0  0  0
   11.7180    1.2150  -16.3697 H   0  0  0  0  0  0  0  0  0  0  0  0
   10.5898    6.0463   -9.6920 H   0  0  0  0  0  0  0  0  0  0  0  0
  2  1  1  0
  3  2  1  0
  4  3  2  0
  5  4  1  0
  6  5  1  0
  7  6  2  0
  8  7  1  0
  9  8  2  0
 10  9  1  0
 11 10  1  0
 12 11  1  0
 13 12  1  0
 14 13  1  0
 15 14  1  0
 16 15  1  0
 17 16  2  0
 18 17  1  0
 19 18  2  0
 20 19  1  0
 21 20  2  0
 22 21  1  0
 23 15  2  0
 23 19  1  0
 23 22  1  0
 24 14  1  0
 25 11  1  0
 25 24  1  0
 26  6  1  0
 26  9  1  0
 27  5  2  0
 28  2  2  0
 28 27  1  0
 29  3  1  0
 30  4  1  0
 31  7  1  0
 32  8  1  0
 33 10  1  0
 34 10  1  0
 35 12  1  0
 36 12  1  0
 37 13  1  0
 38 13  1  0
 39 16  1  0
 40 17  1  0
 41 18  1  0
 42 20  1  0
 43 21  1  0
 44 24  1  0
 45 24  1  0
 46 25  1  0
 47 25  1  0
 48 26  1  0
 49 27  1  0
 50 28  1  0
 51 11  1  0
M  CHG  1  11   1
M  END
>  <b_m_subgroup_collapsed>  (307) 
0

>  <r_i_docking_score>  (307) 
-8.2893280164651593

>  <s_m_subgroup_title>  (307) 
glide-dock_SP_D22_pv

>  <s_m_subgroupid>  (307) 
glide-dock_SP_D22_pv

>  <Molecule ChEMBL ID>  (307) 
CHEMBL292187

>  <Standard Type>  (307) 
Ki

>  <Standard Value>  (307) 
0.42

>  <label>  (307) 
1

$$$$
CHEMBL198040
     RDKit          3D

 59 63  0  0  1  0  0  0  0  0999 V2000
    5.9285    2.8232  -13.3987 C   0  0  0  0  0  0  0  0  0  0  0  0
    6.7050    2.0215  -14.2527 C   0  0  0  0  0  0  0  0  0  0  0  0
    8.0662    2.3144  -14.4655 C   0  0  0  0  0  0  0  0  0  0  0  0
    8.6648    3.4145  -13.7950 C   0  0  0  0  0  0  0  0  0  0  0  0
    7.8817    4.2165  -12.9231 C   0  0  0  0  0  0  0  0  0  0  0  0
    8.4680    5.2892  -12.2315 N   0  0  0  0  0  0  0  0  0  0  0  0
    8.7908    4.9779  -10.8428 C   0  0  0  0  0  0  0  0  0  0  0  0
    9.5489    6.1382  -10.1644 C   0  0  0  0  0  0  0  0  0  0  0  0
    8.8862    7.4455  -10.4125 N   0  0  0  0  0  0  0  0  0  0  0  0
    9.5164    8.6142   -9.7604 C   0  0  0  0  0  0  0  0  0  0  0  0
    9.5203    8.5491   -8.2235 C   0  0  0  0  0  0  0  0  0  0  0  0
   10.9031    8.2151   -7.6289 C   0  0  0  0  0  0  0  0  0  0  0  0
   11.1133    8.8352   -6.2832 C   0  0  0  0  0  0  0  0  0  0  0  0
   11.0572   10.1737   -6.0062 C   0  0  0  0  0  0  0  0  0  0  0  0
   11.2857   10.3769   -4.6672 N   0  0  0  0  0  0  0  0  0  0  0  0
   11.6388    9.2063   -4.0574 C   0  0  0  0  0  0  0  0  0  0  0  0
   12.0857    8.9306   -2.7593 C   0  0  0  0  0  0  0  0  0  0  0  0
   12.3279    7.5990   -2.4085 C   0  0  0  0  0  0  0  0  0  0  0  0
   12.0884    6.5722   -3.3300 C   0  0  0  0  0  0  0  0  0  0  0  0
   11.6858    6.8615   -4.6449 C   0  0  0  0  0  0  0  0  0  0  0  0
   11.4617    8.1938   -5.0466 C   0  0  0  0  0  0  0  0  0  0  0  0
    8.6485    7.6893  -11.8498 C   0  0  0  0  0  0  0  0  0  0  0  0
    7.7848    6.5622  -12.4041 C   0  0  0  0  0  0  0  0  0  0  0  0
    6.5127    3.9149  -12.7351 C   0  0  0  0  0  0  0  0  0  0  0  0
   10.1462    3.7216  -14.0070 C   0  0  0  0  0  0  0  0  0  0  0  0
   10.9082    2.5470  -14.6318 C   0  0  0  0  0  0  0  0  0  0  0  0
   10.1050    1.9292  -15.7789 C   0  0  0  0  0  0  0  0  0  0  0  0
    8.7971    1.4818  -15.3261 N   0  0  0  0  0  0  0  0  0  0  0  0
    4.8858    2.5903  -13.2410 H   0  0  0  0  0  0  0  0  0  0  0  0
    6.2459    1.1791  -14.7496 H   0  0  0  0  0  0  0  0  0  0  0  0
    7.8694    4.7668  -10.2970 H   0  0  0  0  0  0  0  0  0  0  0  0
    9.4032    4.0783  -10.8029 H   0  0  0  0  0  0  0  0  0  0  0  0
    9.6201    5.9403   -9.0948 H   0  0  0  0  0  0  0  0  0  0  0  0
   10.5667    6.1857  -10.5482 H   0  0  0  0  0  0  0  0  0  0  0  0
   10.5133    8.7858  -10.1678 H   0  0  0  0  0  0  0  0  0  0  0  0
    8.9266    9.4874  -10.0409 H   0  0  0  0  0  0  0  0  0  0  0  0
    9.2208    9.5383   -7.8808 H   0  0  0  0  0  0  0  0  0  0  0  0
    8.7468    7.8841   -7.8318 H   0  0  0  0  0  0  0  0  0  0  0  0
   11.0328    7.1338   -7.5792 H   0  0  0  0  0  0  0  0  0  0  0  0
   11.6953    8.5744   -8.2878 H   0  0  0  0  0  0  0  0  0  0  0  0
   10.8693   11.0148   -6.6465 H   0  0  0  0  0  0  0  0  0  0  0  0
   11.2873   11.2867   -4.2273 H   0  0  0  0  0  0  0  0  0  0  0  0
   12.2457    9.7277   -2.0465 H   0  0  0  0  0  0  0  0  0  0  0  0
   12.7149    7.3509   -1.4429 H   0  0  0  0  0  0  0  0  0  0  0  0
   12.2814    5.5549   -3.0340 H   0  0  0  0  0  0  0  0  0  0  0  0
   11.5559    6.0574   -5.3531 H   0  0  0  0  0  0  0  0  0  0  0  0
    8.1289    8.6376  -11.9935 H   0  0  0  0  0  0  0  0  0  0  0  0
    9.5993    7.7526  -12.3792 H   0  0  0  0  0  0  0  0  0  0  0  0
    7.5835    6.7496  -13.4469 H   0  0  0  0  0  0  0  0  0  0  0  0
    6.8204    6.5557  -11.8942 H   0  0  0  0  0  0  0  0  0  0  0  0
    5.9072    4.5035  -12.0610 H   0  0  0  0  0  0  0  0  0  0  0  0
   10.2128    4.5934  -14.6587 H   0  0  0  0  0  0  0  0  0  0  0  0
   10.6216    3.9936  -13.0643 H   0  0  0  0  0  0  0  0  0  0  0  0
   11.8896    2.8714  -14.9766 H   0  0  0  0  0  0  0  0  0  0  0  0
   11.0806    1.7835  -13.8719 H   0  0  0  0  0  0  0  0  0  0  0  0
    9.9754    2.6532  -16.5846 H   0  0  0  0  0  0  0  0  0  0  0  0
   10.6446    1.0783  -16.1970 H   0  0  0  0  0  0  0  0  0  0  0  0
    8.3384    0.7272  -15.8169 H   0  0  0  0  0  0  0  0  0  0  0  0
    7.9258    7.3815  -10.0544 H   0  0  0  0  0  0  0  0  0  0  0  0
  2  1  2  0
  3  2  1  0
  4  3  2  0
  5  4  1  0
  6  5  1  0
  7  6  1  0
  8  7  1  0
  9  8  1  0
 10  9  1  0
 11 10  1  0
 12 11  1  0
 13 12  1  0
 14 13  2  0
 15 14  1  0
 16 15  1  0
 17 16  2  0
 18 17  1  0
 19 18  2  0
 20 19  1  0
 21 13  1  0
 21 16  1  0
 21 20  2  0
 22  9  1  0
 23  6  1  0
 23 22  1  0
 24  1  1  0
 24  5  2  0
 25  4  1  0
 26 25  1  0
 27 26  1  0
 28  3  1  0
 28 27  1  0
 29  1  1  0
 30  2  1  0
 31  7  1  0
 32  7  1  0
 33  8  1  0
 34  8  1  0
 35 10  1  0
 36 10  1  0
 37 11  1  0
 38 11  1  0
 39 12  1  0
 40 12  1  0
 41 14  1  0
 42 15  1  0
 43 17  1  0
 44 18  1  0
 45 19  1  0
 46 20  1  0
 47 22  1  0
 48 22  1  0
 49 23  1  0
 50 23  1  0
 51 24  1  0
 52 25  1  0
 53 25  1  0
 54 26  1  0
 55 26  1  0
 56 27  1  0
 57 27  1  0
 58 28  1  0
 59  9  1  0
M  CHG  1   9   1
M  END
>  <b_m_subgroup_collapsed>  (308) 
0

>  <r_i_docking_score>  (308) 
-8.2836870273123608

>  <s_m_subgroup_title>  (308) 
glide-dock_SP_D22_pv

>  <s_m_subgroupid>  (308) 
glide-dock_SP_D22_pv

>  <Molecule ChEMBL ID>  (308) 
CHEMBL198040

>  <Standard Type>  (308) 
Ki

>  <Standard Value>  (308) 
11.3

>  <label>  (308) 
1

$$$$
CHEMBL303556
     RDKit          3D

 44 47  0  0  1  0  0  0  0  0999 V2000
   10.4010   -0.0845  -16.1208 O   0  0  0  0  0  0  0  0  0  0  0  0
    9.4071    0.4201  -15.6053 C   0  0  0  0  0  0  0  0  0  0  0  0
    9.3183    1.9023  -15.1955 C   0  0  0  0  0  0  0  0  0  0  0  0
    7.9420    1.9029  -14.5763 C   0  0  0  0  0  0  0  0  0  0  0  0
    7.3803    0.6348  -14.6632 C   0  0  0  0  0  0  0  0  0  0  0  0
    6.1248    0.3332  -14.1183 C   0  0  0  0  0  0  0  0  0  0  0  0
    5.4454    1.3701  -13.4450 C   0  0  0  0  0  0  0  0  0  0  0  0
    6.0200    2.6613  -13.3200 C   0  0  0  0  0  0  0  0  0  0  0  0
    7.2860    2.9462  -13.8953 C   0  0  0  0  0  0  0  0  0  0  0  0
    7.8912    4.1747  -13.7714 O   0  0  0  0  0  0  0  0  0  0  0  0
    7.5188    4.9332  -12.6243 C   0  0  1  0  0  0  0  0  0  0  0  0
    8.2674    6.2794  -12.7366 C   0  0  0  0  0  0  0  0  0  0  0  0
    8.4861    6.9721  -11.4466 N   0  0  0  0  0  0  0  0  0  0  0  0
    9.2960    6.2258  -10.4581 C   0  0  0  0  0  0  0  0  0  0  0  0
    9.9355    7.1547   -9.4438 C   0  0  0  0  0  0  0  0  0  0  0  0
   11.1990    7.7269   -9.7036 C   0  0  0  0  0  0  0  0  0  0  0  0
   11.8093    8.5575   -8.7441 C   0  0  0  0  0  0  0  0  0  0  0  0
   11.1539    8.8380   -7.5292 C   0  0  0  0  0  0  0  0  0  0  0  0
    9.8885    8.2762   -7.2697 C   0  0  0  0  0  0  0  0  0  0  0  0
    9.2859    7.4301   -8.2211 C   0  0  0  0  0  0  0  0  0  0  0  0
    5.9897    5.0877  -12.5624 C   0  0  0  0  0  0  0  0  0  0  0  0
    5.3020    3.7181  -12.5028 C   0  0  0  0  0  0  0  0  0  0  0  0
    8.2727   -0.2276  -15.2990 N   0  0  0  0  0  0  0  0  0  0  0  0
    9.3694    2.5639  -16.0604 H   0  0  0  0  0  0  0  0  0  0  0  0
   10.0880    2.1643  -14.4695 H   0  0  0  0  0  0  0  0  0  0  0  0
    5.7056   -0.6601  -14.1939 H   0  0  0  0  0  0  0  0  0  0  0  0
    4.4857    1.1668  -12.9979 H   0  0  0  0  0  0  0  0  0  0  0  0
    7.8635    4.3764  -11.7513 H   0  0  0  0  0  0  0  0  0  0  0  0
    7.7355    6.9491  -13.4114 H   0  0  0  0  0  0  0  0  0  0  0  0
    9.2480    6.1161  -13.1854 H   0  0  0  0  0  0  0  0  0  0  0  0
    7.5913    7.2371  -11.0015 H   0  0  0  0  0  0  0  0  0  0  0  0
   10.0860    5.6667  -10.9618 H   0  0  0  0  0  0  0  0  0  0  0  0
    8.6655    5.5029   -9.9394 H   0  0  0  0  0  0  0  0  0  0  0  0
   11.7155    7.5163  -10.6295 H   0  0  0  0  0  0  0  0  0  0  0  0
   12.7872    8.9723   -8.9417 H   0  0  0  0  0  0  0  0  0  0  0  0
   11.6223    9.4782   -6.7972 H   0  0  0  0  0  0  0  0  0  0  0  0
    9.3799    8.4852   -6.3399 H   0  0  0  0  0  0  0  0  0  0  0  0
    8.3206    6.9924   -8.0069 H   0  0  0  0  0  0  0  0  0  0  0  0
    5.6869    5.6976  -11.7106 H   0  0  0  0  0  0  0  0  0  0  0  0
    5.6473    5.6145  -13.4495 H   0  0  0  0  0  0  0  0  0  0  0  0
    4.2670    3.7868  -12.8376 H   0  0  0  0  0  0  0  0  0  0  0  0
    5.2883    3.3731  -11.4681 H   0  0  0  0  0  0  0  0  0  0  0  0
    8.0868   -1.2212  -15.4468 H   0  0  0  0  0  0  0  0  0  0  0  0
    8.9763    7.8321  -11.6391 H   0  0  0  0  0  0  0  0  0  0  0  0
  2  1  2  0
  3  2  1  0
  4  3  1  0
  5  4  2  0
  6  5  1  0
  7  6  2  0
  8  7  1  0
  9  4  1  0
  9  8  2  0
 10  9  1  0
 11 10  1  0
 12 11  1  0
 13 12  1  0
 14 13  1  0
 15 14  1  0
 16 15  2  0
 17 16  1  0
 18 17  2  0
 19 18  1  0
 20 15  1  0
 20 19  2  0
 21 11  1  0
 22  8  1  0
 22 21  1  0
 23  2  1  0
 23  5  1  0
 24  3  1  0
 25  3  1  0
 26  6  1  0
 27  7  1  0
 11 28  1  1
 29 12  1  0
 30 12  1  0
 31 13  1  0
 32 14  1  0
 33 14  1  0
 34 16  1  0
 35 17  1  0
 36 18  1  0
 37 19  1  0
 38 20  1  0
 39 21  1  0
 40 21  1  0
 41 22  1  0
 42 22  1  0
 43 23  1  0
 44 13  1  0
M  CHG  1  13   1
M  END
>  <b_m_subgroup_collapsed>  (309) 
0

>  <r_i_docking_score>  (309) 
-8.2813050601582905

>  <s_m_subgroup_title>  (309) 
glide-dock_SP_D22_pv

>  <s_m_subgroupid>  (309) 
glide-dock_SP_D22_pv

>  <Molecule ChEMBL ID>  (309) 
CHEMBL303556

>  <Standard Type>  (309) 
Ki

>  <Standard Value>  (309) 
9.3

>  <label>  (309) 
1

$$$$
CHEMBL3818935
     RDKit          3D

 59 63  0  0  1  0  0  0  0  0999 V2000
   11.1109    5.6421  -13.5720 O   0  0  0  0  0  0  0  0  0  0  0  0
   10.3774    4.7531  -13.9988 C   0  0  0  0  0  0  0  0  0  0  0  0
   10.6856    3.9337  -14.9909 N   0  0  0  0  0  0  0  0  0  0  0  0
    9.6553    2.9567  -15.2496 C   0  0  0  0  0  0  0  0  0  0  0  0
    8.5243    3.3866  -14.4219 N   0  0  0  0  0  0  0  0  0  0  0  0
    7.4326    2.4858  -14.2477 C   0  0  0  0  0  0  0  0  0  0  0  0
    6.3049    2.7969  -13.4436 C   0  0  0  0  0  0  0  0  0  0  0  0
    5.2879    1.8537  -13.1997 C   0  0  0  0  0  0  0  0  0  0  0  0
    5.3418    0.5820  -13.7941 C   0  0  0  0  0  0  0  0  0  0  0  0
    6.4173    0.2631  -14.6382 C   0  0  0  0  0  0  0  0  0  0  0  0
    7.4414    1.2036  -14.8656 C   0  0  0  0  0  0  0  0  0  0  0  0
    8.9671    4.4383  -13.4769 C   0  0  1  0  0  0  0  0  0  0  0  0
    9.0275    3.9374  -12.0225 C   0  0  0  0  0  0  0  0  0  0  0  0
    9.4665    4.9913  -11.0092 C   0  0  0  0  0  0  0  0  0  0  0  0
    8.5955    6.1874  -11.0425 N   0  0  1  0  0  0  0  0  0  0  0  0
    9.0700    7.2192  -10.0889 C   0  0  0  0  0  0  0  0  0  0  0  0
    8.9807    6.7648   -8.6225 C   0  0  0  0  0  0  0  0  0  0  0  0
    9.0029    7.9547   -7.6556 C   0  0  0  0  0  0  0  0  0  0  0  0
   10.3644    8.6687   -7.6363 C   0  0  0  0  0  0  0  0  0  0  0  0
   10.9441    8.6835   -6.2755 C   0  0  0  0  0  0  0  0  0  0  0  0
   11.0743    9.7492   -5.4739 N   0  0  0  0  0  0  0  0  0  0  0  0
   11.5683    9.1896   -4.3145 C   0  0  0  0  0  0  0  0  0  0  0  0
   11.9148    9.7388   -3.0664 C   0  0  0  0  0  0  0  0  0  0  0  0
   12.4014    8.9057   -2.0371 C   0  0  0  0  0  0  0  0  0  0  0  0
   12.4859    7.5099   -2.2319 C   0  0  0  0  0  0  0  0  0  0  0  0
   12.1063    6.9359   -3.4543 C   0  0  0  0  0  0  0  0  0  0  0  0
   11.6854    7.7925   -4.4750 C   0  0  0  0  0  0  0  0  0  0  0  0
   11.2870    7.4702   -5.7500 O   0  0  0  0  0  0  0  0  0  0  0  0
    8.4689    6.7615  -12.4075 C   0  0  0  0  0  0  0  0  0  0  0  0
    8.0931    5.7170  -13.4912 C   0  0  0  0  0  0  0  0  0  0  0  0
   11.5596    3.9595  -15.4951 H   0  0  0  0  0  0  0  0  0  0  0  0
   10.0365    1.9800  -14.9485 H   0  0  0  0  0  0  0  0  0  0  0  0
    9.3940    2.9403  -16.3073 H   0  0  0  0  0  0  0  0  0  0  0  0
    6.1977    3.7383  -12.9401 H   0  0  0  0  0  0  0  0  0  0  0  0
    4.4595    2.1189  -12.5602 H   0  0  0  0  0  0  0  0  0  0  0  0
    4.5558   -0.1374  -13.6212 H   0  0  0  0  0  0  0  0  0  0  0  0
    6.4592   -0.7084  -15.1103 H   0  0  0  0  0  0  0  0  0  0  0  0
    8.2406    0.8887  -15.5179 H   0  0  0  0  0  0  0  0  0  0  0  0
    8.0238    3.6798  -11.7033 H   0  0  0  0  0  0  0  0  0  0  0  0
    9.6707    3.0558  -11.9446 H   0  0  0  0  0  0  0  0  0  0  0  0
    9.4570    4.5393  -10.0178 H   0  0  0  0  0  0  0  0  0  0  0  0
   10.4808    5.3149  -11.1983 H   0  0  0  0  0  0  0  0  0  0  0  0
   10.0960    7.4999  -10.3310 H   0  0  0  0  0  0  0  0  0  0  0  0
    8.4865    8.1285  -10.2229 H   0  0  0  0  0  0  0  0  0  0  0  0
    8.0768    6.1782   -8.4628 H   0  0  0  0  0  0  0  0  0  0  0  0
    9.8039    6.0917   -8.3793 H   0  0  0  0  0  0  0  0  0  0  0  0
    8.2154    8.6675   -7.9026 H   0  0  0  0  0  0  0  0  0  0  0  0
    8.7441    7.5897   -6.6596 H   0  0  0  0  0  0  0  0  0  0  0  0
   11.0845    8.1887   -8.2984 H   0  0  0  0  0  0  0  0  0  0  0  0
   10.2597    9.6923   -7.9873 H   0  0  0  0  0  0  0  0  0  0  0  0
   11.7937   10.7987   -2.9078 H   0  0  0  0  0  0  0  0  0  0  0  0
   12.6922    9.3420   -1.0914 H   0  0  0  0  0  0  0  0  0  0  0  0
   12.8798    6.8788   -1.4465 H   0  0  0  0  0  0  0  0  0  0  0  0
   12.1565    5.8689   -3.6136 H   0  0  0  0  0  0  0  0  0  0  0  0
    7.7139    7.5497  -12.3926 H   0  0  0  0  0  0  0  0  0  0  0  0
    9.4096    7.2556  -12.6436 H   0  0  0  0  0  0  0  0  0  0  0  0
    8.1860    6.1707  -14.4716 H   0  0  0  0  0  0  0  0  0  0  0  0
    7.0367    5.4976  -13.4008 H   0  0  0  0  0  0  0  0  0  0  0  0
    7.6611    5.9360  -10.7423 H   0  0  0  0  0  0  0  0  0  0  0  0
  2  1  2  0
  3  2  1  0
  4  3  1  0
  5  4  1  0
  6  5  1  0
  7  6  2  0
  8  7  1  0
  9  8  2  0
 10  9  1  0
 11  6  1  0
 11 10  2  0
 12  2  1  0
 12  5  1  6
 13 12  1  0
 14 13  1  0
 15 14  1  0
 16 15  1  0
 17 16  1  0
 18 17  1  0
 19 18  1  0
 20 19  1  0
 21 20  2  0
 22 21  1  0
 23 22  2  0
 24 23  1  0
 25 24  2  0
 26 25  1  0
 27 22  1  0
 27 26  2  0
 28 20  1  0
 28 27  1  0
 29 15  1  0
 30 12  1  0
 30 29  1  0
 31  3  1  0
 32  4  1  0
 33  4  1  0
 34  7  1  0
 35  8  1  0
 36  9  1  0
 37 10  1  0
 38 11  1  0
 39 13  1  0
 40 13  1  0
 41 14  1  0
 42 14  1  0
 43 16  1  0
 44 16  1  0
 45 17  1  0
 46 17  1  0
 47 18  1  0
 48 18  1  0
 49 19  1  0
 50 19  1  0
 51 23  1  0
 52 24  1  0
 53 25  1  0
 54 26  1  0
 55 29  1  0
 56 29  1  0
 57 30  1  0
 58 30  1  0
 15 59  1  1
M  CHG  1  15   1
M  END
>  <b_m_subgroup_collapsed>  (310) 
0

>  <r_i_docking_score>  (310) 
-8.2779189925717205

>  <s_m_subgroup_title>  (310) 
glide-dock_SP_D22_pv

>  <s_m_subgroupid>  (310) 
glide-dock_SP_D22_pv

>  <Molecule ChEMBL ID>  (310) 
CHEMBL3818935

>  <Standard Type>  (310) 
Ki

>  <Standard Value>  (310) 
10.23

>  <label>  (310) 
1

$$$$
CHEMBL210404
     RDKit          3D

 50 53  0  0  1  0  0  0  0  0999 V2000
   12.9216    7.3999  -15.2345 C   0  0  0  0  0  0  0  0  0  0  0  0
   11.9227    6.9720  -14.3211 O   0  0  0  0  0  0  0  0  0  0  0  0
   11.5350    5.6459  -14.3239 C   0  0  0  0  0  0  0  0  0  0  0  0
   12.1340    4.6828  -15.1755 C   0  0  0  0  0  0  0  0  0  0  0  0
   11.6859    3.3512  -15.1851 C   0  0  0  0  0  0  0  0  0  0  0  0
   10.6557    2.9489  -14.3230 C   0  0  0  0  0  0  0  0  0  0  0  0
   10.0550    3.8888  -13.4709 C   0  0  0  0  0  0  0  0  0  0  0  0
   10.4704    5.2429  -13.4668 C   0  0  0  0  0  0  0  0  0  0  0  0
    9.7933    6.1721  -12.6467 N   0  0  0  0  0  0  0  0  0  0  0  0
   10.5133    7.1217  -11.8093 C   0  0  0  0  0  0  0  0  0  0  0  0
   10.2991    6.8279  -10.3146 C   0  0  0  0  0  0  0  0  0  0  0  0
    8.8860    6.5285   -9.9481 N   0  0  0  0  0  0  0  0  0  0  0  0
    8.7431    6.0950   -8.5352 C   0  0  0  0  0  0  0  0  0  0  0  0
    9.4088    7.0416   -7.5702 C   0  0  0  0  0  0  0  0  0  0  0  0
    9.2863    8.4557   -7.4909 C   0  0  0  0  0  0  0  0  0  0  0  0
   10.0439    8.9726   -6.5420 N   0  0  0  0  0  0  0  0  0  0  0  0
   10.5991    7.9190   -5.9055 N   0  0  0  0  0  0  0  0  0  0  0  0
   11.3155    8.1045   -4.6928 C   0  0  0  0  0  0  0  0  0  0  0  0
   11.6925    6.9718   -3.9336 C   0  0  0  0  0  0  0  0  0  0  0  0
   12.2847    7.1531   -2.6714 C   0  0  0  0  0  0  0  0  0  0  0  0
   12.4858    8.4612   -2.2020 C   0  0  0  0  0  0  0  0  0  0  0  0
   12.0862    9.5294   -3.0218 C   0  0  0  0  0  0  0  0  0  0  0  0
   11.5244    9.3624   -4.2338 N   0  0  0  0  0  0  0  0  0  0  0  0
   10.2795    6.7456   -6.5609 C   0  0  0  0  0  0  0  0  0  0  0  0
    8.2283    5.5685  -10.8733 C   0  0  0  0  0  0  0  0  0  0  0  0
    8.3822    6.0030  -12.3333 C   0  0  0  0  0  0  0  0  0  0  0  0
   13.0843    8.4706  -15.1102 H   0  0  0  0  0  0  0  0  0  0  0  0
   13.8729    6.8988  -15.0495 H   0  0  0  0  0  0  0  0  0  0  0  0
   12.6158    7.2333  -16.2684 H   0  0  0  0  0  0  0  0  0  0  0  0
   12.9388    4.9410  -15.8465 H   0  0  0  0  0  0  0  0  0  0  0  0
   12.1511    2.6307  -15.8422 H   0  0  0  0  0  0  0  0  0  0  0  0
   10.3248    1.9206  -14.3130 H   0  0  0  0  0  0  0  0  0  0  0  0
    9.2673    3.5439  -12.8186 H   0  0  0  0  0  0  0  0  0  0  0  0
   10.1518    8.1229  -12.0471 H   0  0  0  0  0  0  0  0  0  0  0  0
   11.5840    7.1163  -12.0085 H   0  0  0  0  0  0  0  0  0  0  0  0
   10.6829    7.6761   -9.7487 H   0  0  0  0  0  0  0  0  0  0  0  0
   10.8860    5.9687  -10.0087 H   0  0  0  0  0  0  0  0  0  0  0  0
    9.1760    5.0981   -8.4367 H   0  0  0  0  0  0  0  0  0  0  0  0
    7.6894    5.9677   -8.2983 H   0  0  0  0  0  0  0  0  0  0  0  0
    8.6949    9.1188   -8.1060 H   0  0  0  0  0  0  0  0  0  0  0  0
   11.5088    5.9659   -4.2764 H   0  0  0  0  0  0  0  0  0  0  0  0
   12.5667    6.3006   -2.0697 H   0  0  0  0  0  0  0  0  0  0  0  0
   12.9262    8.6493   -1.2341 H   0  0  0  0  0  0  0  0  0  0  0  0
   12.2025   10.5482   -2.6849 H   0  0  0  0  0  0  0  0  0  0  0  0
   10.6499    5.7862   -6.2380 H   0  0  0  0  0  0  0  0  0  0  0  0
    8.6499    4.5726  -10.7318 H   0  0  0  0  0  0  0  0  0  0  0  0
    7.1667    5.5040  -10.6465 H   0  0  0  0  0  0  0  0  0  0  0  0
    7.8771    6.9584  -12.4854 H   0  0  0  0  0  0  0  0  0  0  0  0
    7.8955    5.2981  -13.0074 H   0  0  0  0  0  0  0  0  0  0  0  0
    8.3299    7.3738  -10.0459 H   0  0  0  0  0  0  0  0  0  0  0  0
  2  1  1  0
  3  2  1  0
  4  3  2  0
  5  4  1  0
  6  5  2  0
  7  6  1  0
  8  3  1  0
  8  7  2  0
  9  8  1  0
 10  9  1  0
 11 10  1  0
 12 11  1  0
 13 12  1  0
 14 13  1  0
 15 14  1  0
 16 15  2  0
 17 16  1  0
 18 17  1  0
 19 18  2  0
 20 19  1  0
 21 20  2  0
 22 21  1  0
 23 18  1  0
 23 22  2  0
 24 14  2  0
 24 17  1  0
 25 12  1  0
 26  9  1  0
 26 25  1  0
 27  1  1  0
 28  1  1  0
 29  1  1  0
 30  4  1  0
 31  5  1  0
 32  6  1  0
 33  7  1  0
 34 10  1  0
 35 10  1  0
 36 11  1  0
 37 11  1  0
 38 13  1  0
 39 13  1  0
 40 15  1  0
 41 19  1  0
 42 20  1  0
 43 21  1  0
 44 22  1  0
 45 24  1  0
 46 25  1  0
 47 25  1  0
 48 26  1  0
 49 26  1  0
 50 12  1  0
M  CHG  1  12   1
M  END
>  <b_m_subgroup_collapsed>  (311) 
0

>  <r_i_docking_score>  (311) 
-8.2763489110435806

>  <s_m_subgroup_title>  (311) 
glide-dock_SP_D22_pv

>  <s_m_subgroupid>  (311) 
glide-dock_SP_D22_pv

>  <Molecule ChEMBL ID>  (311) 
CHEMBL210404

>  <Standard Type>  (311) 
Ki

>  <Standard Value>  (311) 
31.0

>  <label>  (311) 
1

$$$$
CHEMBL2397477
     RDKit          3D

 88 90  0  0  1  0  0  0  0  0999 V2000
   11.7720    8.8090   -3.5173 C   0  0  0  0  0  0  0  0  0  0  0  0
   11.2875    8.4937   -4.5951 C   0  0  0  0  0  0  0  0  0  0  0  0
   10.6880    8.1861   -5.8533 C   0  0  0  0  0  0  0  0  0  0  0  0
   10.5869    9.1367   -6.7935 C   0  0  0  0  0  0  0  0  0  0  0  0
    9.9358    8.9155   -8.1437 C   0  0  0  0  0  0  0  0  0  0  0  0
    9.7084    7.4190   -8.4979 C   0  0  2  0  0  0  0  0  0  0  0  0
    8.8864    7.2446   -9.7472 N   0  0  1  0  0  0  0  0  0  0  0  0
    9.2942    8.1322  -10.8847 C   0  0  0  0  0  0  0  0  0  0  0  0
   10.5724    7.7007  -11.6486 C   0  0  0  0  0  0  0  0  0  0  0  0
   11.9081    8.1640  -11.0446 C   0  0  0  0  0  0  0  0  0  0  0  0
    8.6621    5.8249  -10.1505 C   0  0  0  0  0  0  0  0  0  0  0  0
    7.8958    5.6576  -11.4822 C   0  0  0  0  0  0  0  0  0  0  0  0
    7.6670    4.1906  -11.8328 C   0  0  0  0  0  0  0  0  0  0  0  0
    7.2590    3.9639  -13.2979 C   0  0  0  0  0  0  0  0  0  0  0  0
    8.4270    4.0892  -14.1632 N   0  0  0  0  0  0  0  0  0  0  0  0
    9.2340    3.0742  -14.5009 C   0  0  0  0  0  0  0  0  0  0  0  0
    8.9897    1.8952  -14.2469 O   0  0  0  0  0  0  0  0  0  0  0  0
   10.4562    3.4571  -15.2749 C   0  0  0  0  0  0  0  0  0  0  0  0
   11.1273    4.6769  -15.0289 C   0  0  0  0  0  0  0  0  0  0  0  0
   12.2577    5.0292  -15.7895 C   0  0  0  0  0  0  0  0  0  0  0  0
   12.7369    4.1634  -16.8034 C   0  0  0  0  0  0  0  0  0  0  0  0
   13.8044    4.4832  -17.6122 O   0  0  0  0  0  0  0  0  0  0  0  0
   13.9104    5.8248  -18.0855 C   0  0  0  0  0  0  0  0  0  0  0  0
   12.8832    6.1323  -19.1952 C   0  0  0  0  0  0  0  0  0  0  0  0
   11.4760    6.5084  -18.6911 C   0  0  0  0  0  0  0  0  0  0  0  0
   10.5290    6.8004  -19.8163 C   0  0  0  0  0  0  0  0  0  0  0  0
    9.6236    5.8978  -20.4348 C   0  0  0  0  0  0  0  0  0  0  0  0
    8.9727    6.5019  -21.3947 N   0  0  0  0  0  0  0  0  0  0  0  0
    9.4891    7.7600  -21.3497 N   0  0  0  0  0  0  0  0  0  0  0  0
    9.0562    8.7995  -22.2664 C   0  0  0  0  0  0  0  0  0  0  0  0
    7.8440    9.6009  -21.7551 C   0  0  0  0  0  0  0  0  0  0  0  0
    6.6049    8.7448  -21.4517 C   0  0  0  0  0  0  0  0  0  0  0  0
    5.3875    9.5977  -21.0938 C   0  0  0  0  0  0  0  0  0  0  0  0
   10.4362    7.9715  -20.3953 N   0  0  0  0  0  0  0  0  0  0  0  0
   12.1164    2.9083  -17.0048 C   0  0  0  0  0  0  0  0  0  0  0  0
   12.6540    2.0896  -17.9776 O   0  0  0  0  0  0  0  0  0  0  0  0
   12.0905    0.7980  -18.1523 C   0  0  0  0  0  0  0  0  0  0  0  0
   10.9750    2.5710  -16.2394 C   0  0  0  0  0  0  0  0  0  0  0  0
    9.1475    6.6987   -7.2505 C   0  0  0  0  0  0  0  0  0  0  0  0
   10.1444    6.7857   -6.0704 C   0  0  0  0  0  0  0  0  0  0  0  0
   12.1901    9.0929   -2.5772 H   0  0  0  0  0  0  0  0  0  0  0  0
   10.9582   10.1337   -6.6030 H   0  0  0  0  0  0  0  0  0  0  0  0
    8.9859    9.4560   -8.1529 H   0  0  0  0  0  0  0  0  0  0  0  0
   10.5995    9.3886   -8.8660 H   0  0  0  0  0  0  0  0  0  0  0  0
   10.6799    6.9653   -8.6938 H   0  0  0  0  0  0  0  0  0  0  0  0
    8.4661    8.1630  -11.5928 H   0  0  0  0  0  0  0  0  0  0  0  0
    9.3486    9.1765  -10.5947 H   0  0  0  0  0  0  0  0  0  0  0  0
   10.6113    6.6252  -11.8188 H   0  0  0  0  0  0  0  0  0  0  0  0
   10.4873    8.1292  -12.6465 H   0  0  0  0  0  0  0  0  0  0  0  0
   12.7220    7.9871  -11.7478 H   0  0  0  0  0  0  0  0  0  0  0  0
   11.9055    9.2275  -10.8120 H   0  0  0  0  0  0  0  0  0  0  0  0
   12.1573    7.6219  -10.1366 H   0  0  0  0  0  0  0  0  0  0  0  0
    9.6204    5.3077  -10.2054 H   0  0  0  0  0  0  0  0  0  0  0  0
    8.0867    5.3197   -9.3786 H   0  0  0  0  0  0  0  0  0  0  0  0
    6.9370    6.1718  -11.4466 H   0  0  0  0  0  0  0  0  0  0  0  0
    8.4483    6.0947  -12.3113 H   0  0  0  0  0  0  0  0  0  0  0  0
    8.6095    3.6783  -11.6498 H   0  0  0  0  0  0  0  0  0  0  0  0
    6.9200    3.7696  -11.1592 H   0  0  0  0  0  0  0  0  0  0  0  0
    6.8024    2.9783  -13.4099 H   0  0  0  0  0  0  0  0  0  0  0  0
    6.4975    4.6858  -13.6019 H   0  0  0  0  0  0  0  0  0  0  0  0
    8.6815    5.0165  -14.4702 H   0  0  0  0  0  0  0  0  0  0  0  0
   10.7805    5.3558  -14.2631 H   0  0  0  0  0  0  0  0  0  0  0  0
   12.7427    5.9710  -15.5847 H   0  0  0  0  0  0  0  0  0  0  0  0
   13.8871    6.5743  -17.2912 H   0  0  0  0  0  0  0  0  0  0  0  0
   14.9089    5.9035  -18.5201 H   0  0  0  0  0  0  0  0  0  0  0  0
   13.2633    6.9640  -19.7915 H   0  0  0  0  0  0  0  0  0  0  0  0
   12.8218    5.2781  -19.8700 H   0  0  0  0  0  0  0  0  0  0  0  0
   11.0599    5.6978  -18.0948 H   0  0  0  0  0  0  0  0  0  0  0  0
   11.5542    7.3714  -18.0295 H   0  0  0  0  0  0  0  0  0  0  0  0
    9.4516    4.8535  -20.2168 H   0  0  0  0  0  0  0  0  0  0  0  0
    9.8949    9.4669  -22.4558 H   0  0  0  0  0  0  0  0  0  0  0  0
    8.8137    8.3362  -23.2214 H   0  0  0  0  0  0  0  0  0  0  0  0
    8.1238   10.1500  -20.8560 H   0  0  0  0  0  0  0  0  0  0  0  0
    7.5865   10.3520  -22.5011 H   0  0  0  0  0  0  0  0  0  0  0  0
    6.3625    8.1171  -22.3098 H   0  0  0  0  0  0  0  0  0  0  0  0
    6.8131    8.0644  -20.6240 H   0  0  0  0  0  0  0  0  0  0  0  0
    4.5324    8.9746  -20.8280 H   0  0  0  0  0  0  0  0  0  0  0  0
    5.6142   10.2408  -20.2469 H   0  0  0  0  0  0  0  0  0  0  0  0
    5.0923   10.2338  -21.9284 H   0  0  0  0  0  0  0  0  0  0  0  0
   12.6828    0.2439  -18.8810 H   0  0  0  0  0  0  0  0  0  0  0  0
   12.0940    0.2225  -17.2248 H   0  0  0  0  0  0  0  0  0  0  0  0
   11.0701    0.8556  -18.5328 H   0  0  0  0  0  0  0  0  0  0  0  0
   10.4636    1.6319  -16.3920 H   0  0  0  0  0  0  0  0  0  0  0  0
    8.1915    7.1400   -6.9636 H   0  0  0  0  0  0  0  0  0  0  0  0
    8.9588    5.6448   -7.4443 H   0  0  0  0  0  0  0  0  0  0  0  0
   11.0062    6.1459   -6.2708 H   0  0  0  0  0  0  0  0  0  0  0  0
    9.6857    6.4160   -5.1514 H   0  0  0  0  0  0  0  0  0  0  0  0
    7.9364    7.5674   -9.5486 H   0  0  0  0  0  0  0  0  0  0  0  0
  2  1  3  0
  3  2  1  0
  4  3  2  0
  5  4  1  0
  6  5  1  0
  7  6  1  0
  8  7  1  0
  9  8  1  0
 10  9  1  0
 11  7  1  0
 12 11  1  0
 13 12  1  0
 14 13  1  0
 15 14  1  0
 16 15  1  0
 17 16  2  0
 18 16  1  0
 19 18  1  0
 20 19  2  0
 21 20  1  0
 22 21  1  0
 23 22  1  0
 24 23  1  0
 25 24  1  0
 26 25  1  0
 27 26  1  0
 28 27  2  0
 29 28  1  0
 30 29  1  0
 31 30  1  0
 32 31  1  0
 33 32  1  0
 34 26  2  0
 34 29  1  0
 35 21  2  0
 36 35  1  0
 37 36  1  0
 38 18  2  0
 38 35  1  0
 39  6  1  0
 40  3  1  0
 40 39  1  0
 41  1  1  0
 42  4  1  0
 43  5  1  0
 44  5  1  0
  6 45  1  6
 46  8  1  0
 47  8  1  0
 48  9  1  0
 49  9  1  0
 50 10  1  0
 51 10  1  0
 52 10  1  0
 53 11  1  0
 54 11  1  0
 55 12  1  0
 56 12  1  0
 57 13  1  0
 58 13  1  0
 59 14  1  0
 60 14  1  0
 61 15  1  0
 62 19  1  0
 63 20  1  0
 64 23  1  0
 65 23  1  0
 66 24  1  0
 67 24  1  0
 68 25  1  0
 69 25  1  0
 70 27  1  0
 71 30  1  0
 72 30  1  0
 73 31  1  0
 74 31  1  0
 75 32  1  0
 76 32  1  0
 77 33  1  0
 78 33  1  0
 79 33  1  0
 80 37  1  0
 81 37  1  0
 82 37  1  0
 83 38  1  0
 84 39  1  0
 85 39  1  0
 86 40  1  0
 87 40  1  0
  7 88  1  1
M  CHG  1   7   1
M  END
>  <b_m_subgroup_collapsed>  (312) 
0

>  <r_i_docking_score>  (312) 
-8.27126249200745

>  <s_m_subgroup_title>  (312) 
glide-dock_SP_D22_pv

>  <s_m_subgroupid>  (312) 
glide-dock_SP_D22_pv

>  <Molecule ChEMBL ID>  (312) 
CHEMBL2397477

>  <Standard Type>  (312) 
Ki

>  <Standard Value>  (312) 
4.2

>  <label>  (312) 
1

$$$$
CHEMBL196370
     RDKit          3D

 66 69  0  0  1  0  0  0  0  0999 V2000
    7.0235    2.2471  -14.9160 C   0  0  0  0  0  0  0  0  0  0  0  0
    8.2631    2.9389  -14.9033 O   0  0  0  0  0  0  0  0  0  0  0  0
    8.4831    3.8730  -13.9097 C   0  0  0  0  0  0  0  0  0  0  0  0
    7.5181    4.1838  -12.9177 C   0  0  0  0  0  0  0  0  0  0  0  0
    7.7781    5.1567  -11.9377 C   0  0  0  0  0  0  0  0  0  0  0  0
    9.0104    5.8324  -11.9123 C   0  0  0  0  0  0  0  0  0  0  0  0
    9.1968    6.7899  -10.8762 N   0  0  0  0  0  0  0  0  0  0  0  0
   10.3378    7.3482  -10.4268 C   0  0  0  0  0  0  0  0  0  0  0  0
   11.3877    7.3731  -11.0712 O   0  0  0  0  0  0  0  0  0  0  0  0
   10.2103    7.9843   -9.2408 N   0  0  0  0  0  0  0  0  0  0  0  0
   11.2515    8.8964   -8.7577 C   0  0  0  0  0  0  0  0  0  0  0  0
   12.0858    8.2035   -7.6695 C   0  0  0  0  0  0  0  0  0  0  0  0
   11.2097    7.6916   -6.6106 N   0  0  0  0  0  0  0  0  0  0  0  0
   11.5507    7.7978   -5.2425 C   0  0  0  0  0  0  0  0  0  0  0  0
   11.3830    6.6889   -4.3855 C   0  0  0  0  0  0  0  0  0  0  0  0
   11.7481    6.7511   -3.0264 C   0  0  0  0  0  0  0  0  0  0  0  0
   12.2690    7.9407   -2.4930 C   0  0  0  0  0  0  0  0  0  0  0  0
   12.4353    9.0573   -3.3280 C   0  0  0  0  0  0  0  0  0  0  0  0
   12.0835    8.9920   -4.6900 C   0  0  0  0  0  0  0  0  0  0  0  0
   12.2604   10.1154   -5.4452 O   0  0  0  0  0  0  0  0  0  0  0  0
   11.0500   10.7536   -5.7789 C   0  0  0  0  0  0  0  0  0  0  0  0
   10.0580    6.8907   -7.0231 C   0  0  0  0  0  0  0  0  0  0  0  0
    9.2857    7.5949   -8.1599 C   0  0  0  0  0  0  0  0  0  0  0  0
    9.9691    5.5384  -12.9095 C   0  0  0  0  0  0  0  0  0  0  0  0
    9.7187    4.5720  -13.9113 C   0  0  0  0  0  0  0  0  0  0  0  0
   10.6779    4.3239  -14.9175 N   0  0  0  0  0  0  0  0  0  0  0  0
   11.2879    2.9983  -14.9125 C   0  0  0  0  0  0  0  0  0  0  0  0
   11.9342    2.7026  -16.2789 C   0  0  0  0  0  0  0  0  0  0  0  0
   12.8751    3.7832  -16.6734 N   0  0  0  0  0  0  0  0  0  0  0  0
   13.5681    3.4971  -17.9476 C   0  0  0  0  0  0  0  0  0  0  0  0
   12.2267    5.1187  -16.6681 C   0  0  0  0  0  0  0  0  0  0  0  0
   11.5715    5.4122  -15.3092 C   0  0  0  0  0  0  0  0  0  0  0  0
    6.9952    1.5687  -15.7685 H   0  0  0  0  0  0  0  0  0  0  0  0
    6.8916    1.6505  -14.0127 H   0  0  0  0  0  0  0  0  0  0  0  0
    6.1895    2.9423  -15.0182 H   0  0  0  0  0  0  0  0  0  0  0  0
    6.5588    3.6917  -12.8819 H   0  0  0  0  0  0  0  0  0  0  0  0
    7.0215    5.3800  -11.1974 H   0  0  0  0  0  0  0  0  0  0  0  0
    8.3675    6.9815  -10.3224 H   0  0  0  0  0  0  0  0  0  0  0  0
   10.7624    9.7722   -8.3494 H   0  0  0  0  0  0  0  0  0  0  0  0
   11.8979    9.2640   -9.5565 H   0  0  0  0  0  0  0  0  0  0  0  0
   12.8511    8.8853   -7.3035 H   0  0  0  0  0  0  0  0  0  0  0  0
   12.6290    7.3724   -8.1111 H   0  0  0  0  0  0  0  0  0  0  0  0
   10.9772    5.7724   -4.7732 H   0  0  0  0  0  0  0  0  0  0  0  0
   11.6191    5.8854   -2.3927 H   0  0  0  0  0  0  0  0  0  0  0  0
   12.5364    8.0004   -1.4481 H   0  0  0  0  0  0  0  0  0  0  0  0
   12.8267    9.9771   -2.9223 H   0  0  0  0  0  0  0  0  0  0  0  0
   11.2497   11.3726   -6.6466 H   0  0  0  0  0  0  0  0  0  0  0  0
   10.2465   10.0634   -6.0325 H   0  0  0  0  0  0  0  0  0  0  0  0
   10.7096   11.3724   -4.9531 H   0  0  0  0  0  0  0  0  0  0  0  0
   10.4095    5.9133   -7.3560 H   0  0  0  0  0  0  0  0  0  0  0  0
    9.3804    6.7206   -6.1851 H   0  0  0  0  0  0  0  0  0  0  0  0
    8.7937    8.4906   -7.7768 H   0  0  0  0  0  0  0  0  0  0  0  0
    8.4835    6.9386   -8.4935 H   0  0  0  0  0  0  0  0  0  0  0  0
   10.9108    6.0573  -12.9234 H   0  0  0  0  0  0  0  0  0  0  0  0
   12.0447    2.9734  -14.1282 H   0  0  0  0  0  0  0  0  0  0  0  0
   10.5651    2.2199  -14.6673 H   0  0  0  0  0  0  0  0  0  0  0  0
   12.4612    1.7485  -16.2479 H   0  0  0  0  0  0  0  0  0  0  0  0
   11.1548    2.6056  -17.0373 H   0  0  0  0  0  0  0  0  0  0  0  0
   12.8633    3.4656  -18.7800 H   0  0  0  0  0  0  0  0  0  0  0  0
   14.3161    4.2622  -18.1607 H   0  0  0  0  0  0  0  0  0  0  0  0
   14.0812    2.5370  -17.8992 H   0  0  0  0  0  0  0  0  0  0  0  0
   12.9624    5.8916  -16.8954 H   0  0  0  0  0  0  0  0  0  0  0  0
   11.4714    5.1573  -17.4549 H   0  0  0  0  0  0  0  0  0  0  0  0
   11.0189    6.3509  -15.3675 H   0  0  0  0  0  0  0  0  0  0  0  0
   12.3448    5.5393  -14.5492 H   0  0  0  0  0  0  0  0  0  0  0  0
   13.5897    3.8071  -15.9588 H   0  0  0  0  0  0  0  0  0  0  0  0
  2  1  1  0
  3  2  1  0
  4  3  1  0
  5  4  2  0
  6  5  1  0
  7  6  1  0
  8  7  1  0
  9  8  2  0
 10  8  1  0
 11 10  1  0
 12 11  1  0
 13 12  1  0
 14 13  1  0
 15 14  2  0
 16 15  1  0
 17 16  2  0
 18 17  1  0
 19 14  1  0
 19 18  2  0
 20 19  1  0
 21 20  1  0
 22 13  1  0
 23 10  1  0
 23 22  1  0
 24  6  2  0
 25  3  2  0
 25 24  1  0
 26 25  1  0
 27 26  1  0
 28 27  1  0
 29 28  1  0
 30 29  1  0
 31 29  1  0
 32 26  1  0
 32 31  1  0
 33  1  1  0
 34  1  1  0
 35  1  1  0
 36  4  1  0
 37  5  1  0
 38  7  1  0
 39 11  1  0
 40 11  1  0
 41 12  1  0
 42 12  1  0
 43 15  1  0
 44 16  1  0
 45 17  1  0
 46 18  1  0
 47 21  1  0
 48 21  1  0
 49 21  1  0
 50 22  1  0
 51 22  1  0
 52 23  1  0
 53 23  1  0
 54 24  1  0
 55 27  1  0
 56 27  1  0
 57 28  1  0
 58 28  1  0
 59 30  1  0
 60 30  1  0
 61 30  1  0
 62 31  1  0
 63 31  1  0
 64 32  1  0
 65 32  1  0
 66 29  1  0
M  CHG  1  29   1
M  END
>  <b_m_subgroup_collapsed>  (313) 
0

>  <r_i_docking_score>  (313) 
-8.2711375946255998

>  <s_m_subgroup_title>  (313) 
glide-dock_SP_D22_pv

>  <s_m_subgroupid>  (313) 
glide-dock_SP_D22_pv

>  <Molecule ChEMBL ID>  (313) 
CHEMBL196370

>  <Standard Type>  (313) 
Ki

>  <Standard Value>  (313) 
10000.0

>  <label>  (313) 
0

$$$$
CHEMBL314663
     RDKit          3D

104111  0  0  1  0  0  0  0  0999 V2000
    9.6359    3.5006  -15.8115 C   0  0  0  0  0  0  0  0  0  0  0  0
    8.6753    2.5672  -15.8507 C   0  0  0  0  0  0  0  0  0  0  0  0
    8.4450    1.5555  -14.7569 C   0  0  0  0  0  0  0  0  0  0  0  0
    7.1012    1.6002  -14.2055 N   0  0  0  0  0  0  0  0  0  0  0  0
    6.4847    2.5563  -13.4465 C   0  0  0  0  0  0  0  0  0  0  0  0
    7.0464    3.8603  -13.0577 C   0  0  0  0  0  0  0  0  0  0  0  0
    6.1867    4.9696  -12.9859 C   0  0  0  0  0  0  0  0  0  0  0  0
    6.6902    6.2384  -12.6468 C   0  0  0  0  0  0  0  0  0  0  0  0
    8.0615    6.4387  -12.3950 C   0  0  0  0  0  0  0  0  0  0  0  0
    8.4856    7.7326  -12.1900 O   0  0  0  0  0  0  0  0  0  0  0  0
    9.6615    7.9501  -11.4269 C   0  0  0  0  0  0  0  0  0  0  0  0
    9.3789    7.7982   -9.9232 C   0  0  0  0  0  0  0  0  0  0  0  0
   10.6156    8.1429   -9.0801 C   0  0  0  0  0  0  0  0  0  0  0  0
   10.3179    8.1570   -7.6282 N   0  0  0  0  0  0  0  0  0  0  0  0
   10.0551    6.8277   -7.0211 C   0  0  0  0  0  0  0  0  0  0  0  0
   10.8426    6.7799   -5.6993 C   0  0  0  0  0  0  0  0  0  0  0  0
   11.2577    8.2212   -5.4310 C   0  0  0  0  0  0  0  0  0  0  0  0
   11.3698    8.8150   -6.8279 C   0  0  0  0  0  0  0  0  0  0  0  0
    8.9237    5.3230  -12.4156 C   0  0  0  0  0  0  0  0  0  0  0  0
    8.4113    4.0551  -12.7430 C   0  0  0  0  0  0  0  0  0  0  0  0
    5.2354    2.2320  -13.0758 N   0  0  0  0  0  0  0  0  0  0  0  0
    4.9992    1.0227  -13.7009 C   0  0  0  0  0  0  0  0  0  0  0  0
    3.8229    0.2482  -13.8469 C   0  0  0  0  0  0  0  0  0  0  0  0
    3.8416   -0.9710  -14.5447 C   0  0  0  0  0  0  0  0  0  0  0  0
    5.0427   -1.4334  -15.1065 C   0  0  0  0  0  0  0  0  0  0  0  0
    6.1963   -0.6285  -15.0497 C   0  0  0  0  0  0  0  0  0  0  0  0
    6.1674    0.5896  -14.3725 C   0  0  0  0  0  0  0  0  0  0  0  0
    9.9370    4.4491  -16.9448 C   0  0  0  0  0  0  0  0  0  0  0  0
   11.2934    4.2302  -17.4210 N   0  0  0  0  0  0  0  0  0  0  0  0
   11.7902    3.1120  -18.0138 C   0  0  0  0  0  0  0  0  0  0  0  0
   11.0093    1.9109  -18.3096 C   0  0  0  0  0  0  0  0  0  0  0  0
   11.3306    0.6892  -17.6814 C   0  0  0  0  0  0  0  0  0  0  0  0
   10.5764   -0.4713  -17.9564 C   0  0  0  0  0  0  0  0  0  0  0  0
    9.5002   -0.4396  -18.8677 C   0  0  0  0  0  0  0  0  0  0  0  0
    8.8600   -1.6416  -19.1073 O   0  0  0  0  0  0  0  0  0  0  0  0
    7.5068   -1.6681  -19.5535 C   0  0  0  0  0  0  0  0  0  0  0  0
    6.6049   -2.0267  -18.3539 C   0  0  0  0  0  0  0  0  0  0  0  0
    5.1029   -2.1207  -18.6998 C   0  0  0  0  0  0  0  0  0  0  0  0
    4.7266   -3.4121  -19.3247 N   0  0  0  0  0  0  0  0  0  0  0  0
    4.8038   -4.6024  -18.4491 C   0  0  0  0  0  0  0  0  0  0  0  0
    3.8192   -5.6321  -19.0259 C   0  0  0  0  0  0  0  0  0  0  0  0
    3.0597   -4.9019  -20.1382 C   0  0  0  0  0  0  0  0  0  0  0  0
    3.3611   -3.4281  -19.8815 C   0  0  0  0  0  0  0  0  0  0  0  0
    9.1890    0.7877  -19.5067 C   0  0  0  0  0  0  0  0  0  0  0  0
    9.9363    1.9541  -19.2245 C   0  0  0  0  0  0  0  0  0  0  0  0
   13.0941    3.1698  -18.2941 N   0  0  0  0  0  0  0  0  0  0  0  0
   13.4608    4.4320  -17.8687 C   0  0  0  0  0  0  0  0  0  0  0  0
   14.7133    5.0859  -17.9098 C   0  0  0  0  0  0  0  0  0  0  0  0
   14.8442    6.4011  -17.4108 C   0  0  0  0  0  0  0  0  0  0  0  0
   13.7278    7.0758  -16.8749 C   0  0  0  0  0  0  0  0  0  0  0  0
   12.4691    6.4455  -16.8270 C   0  0  0  0  0  0  0  0  0  0  0  0
   12.3489    5.1311  -17.3246 C   0  0  0  0  0  0  0  0  0  0  0  0
   10.2677    3.5862  -14.9407 H   0  0  0  0  0  0  0  0  0  0  0  0
    8.0341    2.4927  -16.7153 H   0  0  0  0  0  0  0  0  0  0  0  0
    8.6220    0.5771  -15.1998 H   0  0  0  0  0  0  0  0  0  0  0  0
    9.1809    1.6269  -13.9590 H   0  0  0  0  0  0  0  0  0  0  0  0
    5.1340    4.8564  -13.2000 H   0  0  0  0  0  0  0  0  0  0  0  0
    6.0118    7.0812  -12.6022 H   0  0  0  0  0  0  0  0  0  0  0  0
   10.5114    7.3547  -11.7492 H   0  0  0  0  0  0  0  0  0  0  0  0
    9.9608    8.9731  -11.6249 H   0  0  0  0  0  0  0  0  0  0  0  0
    8.5557    8.4668   -9.6495 H   0  0  0  0  0  0  0  0  0  0  0  0
    9.0396    6.7815   -9.7125 H   0  0  0  0  0  0  0  0  0  0  0  0
   11.4280    7.4475   -9.2826 H   0  0  0  0  0  0  0  0  0  0  0  0
   10.9652    9.1334   -9.3681 H   0  0  0  0  0  0  0  0  0  0  0  0
    8.9803    6.7270   -6.8440 H   0  0  0  0  0  0  0  0  0  0  0  0
   10.3576    5.9971   -7.6710 H   0  0  0  0  0  0  0  0  0  0  0  0
   10.2579    6.3503   -4.8801 H   0  0  0  0  0  0  0  0  0  0  0  0
   11.7416    6.1672   -5.8257 H   0  0  0  0  0  0  0  0  0  0  0  0
   10.4845    8.7437   -4.8693 H   0  0  0  0  0  0  0  0  0  0  0  0
   12.1832    8.2984   -4.8598 H   0  0  0  0  0  0  0  0  0  0  0  0
   12.3494    8.5789   -7.2475 H   0  0  0  0  0  0  0  0  0  0  0  0
   11.2562    9.8999   -6.8347 H   0  0  0  0  0  0  0  0  0  0  0  0
    9.9764    5.4026  -12.2148 H   0  0  0  0  0  0  0  0  0  0  0  0
    9.1012    3.2315  -12.7089 H   0  0  0  0  0  0  0  0  0  0  0  0
    2.8853    0.6084  -13.4472 H   0  0  0  0  0  0  0  0  0  0  0  0
    2.9341   -1.5515  -14.6384 H   0  0  0  0  0  0  0  0  0  0  0  0
    5.0782   -2.3901  -15.6052 H   0  0  0  0  0  0  0  0  0  0  0  0
    7.1162   -0.9674  -15.5054 H   0  0  0  0  0  0  0  0  0  0  0  0
    9.2360    4.3165  -17.7680 H   0  0  0  0  0  0  0  0  0  0  0  0
    9.8291    5.4708  -16.5899 H   0  0  0  0  0  0  0  0  0  0  0  0
   12.1516    0.6479  -16.9844 H   0  0  0  0  0  0  0  0  0  0  0  0
   10.8281   -1.3982  -17.4599 H   0  0  0  0  0  0  0  0  0  0  0  0
    7.1537   -0.7378  -20.0015 H   0  0  0  0  0  0  0  0  0  0  0  0
    7.4167   -2.4366  -20.3265 H   0  0  0  0  0  0  0  0  0  0  0  0
    6.9547   -2.9499  -17.8665 H   0  0  0  0  0  0  0  0  0  0  0  0
    6.7406   -1.2321  -17.6100 H   0  0  0  0  0  0  0  0  0  0  0  0
    4.4992   -1.9714  -17.8061 H   0  0  0  0  0  0  0  0  0  0  0  0
    4.8352   -1.3062  -19.3720 H   0  0  0  0  0  0  0  0  0  0  0  0
    5.8244   -4.9912  -18.3928 H   0  0  0  0  0  0  0  0  0  0  0  0
    4.4893   -4.3362  -17.4405 H   0  0  0  0  0  0  0  0  0  0  0  0
    4.3317   -6.5152  -19.4120 H   0  0  0  0  0  0  0  0  0  0  0  0
    3.1300   -5.9644  -18.2461 H   0  0  0  0  0  0  0  0  0  0  0  0
    3.4488   -5.1941  -21.1144 H   0  0  0  0  0  0  0  0  0  0  0  0
    1.9912   -5.1142  -20.1206 H   0  0  0  0  0  0  0  0  0  0  0  0
    2.6651   -3.0492  -19.1281 H   0  0  0  0  0  0  0  0  0  0  0  0
    3.2880   -2.8119  -20.7798 H   0  0  0  0  0  0  0  0  0  0  0  0
    8.4079    0.8604  -20.2464 H   0  0  0  0  0  0  0  0  0  0  0  0
    9.6910    2.8818  -19.7197 H   0  0  0  0  0  0  0  0  0  0  0  0
   15.5657    4.5738  -18.3304 H   0  0  0  0  0  0  0  0  0  0  0  0
   15.8045    6.8984  -17.4455 H   0  0  0  0  0  0  0  0  0  0  0  0
   13.8333    8.0865  -16.5052 H   0  0  0  0  0  0  0  0  0  0  0  0
   11.6149    6.9654  -16.4150 H   0  0  0  0  0  0  0  0  0  0  0  0
    9.4703    8.6923   -7.4961 H   0  0  0  0  0  0  0  0  0  0  0  0
    5.3445   -3.5723  -20.1077 H   0  0  0  0  0  0  0  0  0  0  0  0
  2  1  2  0
  3  2  1  0
  4  3  1  0
  5  4  1  0
  6  5  1  0
  7  6  1  0
  8  7  2  0
  9  8  1  0
 10  9  1  0
 11 10  1  0
 12 11  1  0
 13 12  1  0
 14 13  1  0
 15 14  1  0
 16 15  1  0
 17 16  1  0
 18 14  1  0
 18 17  1  0
 19  9  2  0
 20  6  2  0
 20 19  1  0
 21  5  2  0
 22 21  1  0
 23 22  2  0
 24 23  1  0
 25 24  2  0
 26 25  1  0
 27  4  1  0
 27 22  1  0
 27 26  2  0
 28  1  1  0
 29 28  1  0
 30 29  1  0
 31 30  1  0
 32 31  1  0
 33 32  2  0
 34 33  1  0
 35 34  1  0
 36 35  1  0
 37 36  1  0
 38 37  1  0
 39 38  1  0
 40 39  1  0
 41 40  1  0
 42 41  1  0
 43 39  1  0
 43 42  1  0
 44 34  2  0
 45 31  2  0
 45 44  1  0
 46 30  2  0
 47 46  1  0
 48 47  2  0
 49 48  1  0
 50 49  2  0
 51 50  1  0
 52 29  1  0
 52 47  1  0
 52 51  2  0
 53  1  1  0
 54  2  1  0
 55  3  1  0
 56  3  1  0
 57  7  1  0
 58  8  1  0
 59 11  1  0
 60 11  1  0
 61 12  1  0
 62 12  1  0
 63 13  1  0
 64 13  1  0
 65 15  1  0
 66 15  1  0
 67 16  1  0
 68 16  1  0
 69 17  1  0
 70 17  1  0
 71 18  1  0
 72 18  1  0
 73 19  1  0
 74 20  1  0
 75 23  1  0
 76 24  1  0
 77 25  1  0
 78 26  1  0
 79 28  1  0
 80 28  1  0
 81 32  1  0
 82 33  1  0
 83 36  1  0
 84 36  1  0
 85 37  1  0
 86 37  1  0
 87 38  1  0
 88 38  1  0
 89 40  1  0
 90 40  1  0
 91 41  1  0
 92 41  1  0
 93 42  1  0
 94 42  1  0
 95 43  1  0
 96 43  1  0
 97 44  1  0
 98 45  1  0
 99 48  1  0
100 49  1  0
101 50  1  0
102 51  1  0
103 14  1  0
104 39  1  0
M  CHG  2  14   1  39   1
M  END
>  <b_m_subgroup_collapsed>  (314) 
0

>  <r_i_docking_score>  (314) 
-8.2668972342632099

>  <s_m_subgroup_title>  (314) 
glide-dock_SP_D22_pv

>  <s_m_subgroupid>  (314) 
glide-dock_SP_D22_pv

>  <Molecule ChEMBL ID>  (314) 
CHEMBL314663

>  <Standard Type>  (314) 
Ki

>  <Standard Value>  (314) 
56.0

>  <label>  (314) 
1

$$$$
CHEMBL432713
     RDKit          3D

 66 69  0  0  1  0  0  0  0  0999 V2000
    9.5007    5.4747   -9.9956 O   0  0  0  0  0  0  0  0  0  0  0  0
   10.0521    6.5723  -10.0865 C   0  0  0  0  0  0  0  0  0  0  0  0
   10.4043    7.4353   -8.9767 C   0  0  0  0  0  0  0  0  0  0  0  0
   10.5159    6.9173   -7.7388 C   0  0  0  0  0  0  0  0  0  0  0  0
   10.8861    7.6540   -6.5233 C   0  0  0  0  0  0  0  0  0  0  0  0
   10.9083    9.0662   -6.4648 C   0  0  0  0  0  0  0  0  0  0  0  0
   11.2972    9.7221   -5.2817 C   0  0  0  0  0  0  0  0  0  0  0  0
   11.6824    8.9705   -4.1554 C   0  0  0  0  0  0  0  0  0  0  0  0
   12.0860    9.7723   -2.6920 Cl  0  0  0  0  0  0  0  0  0  0  0  0
   11.6860    7.5644   -4.2098 C   0  0  0  0  0  0  0  0  0  0  0  0
   12.1105    6.6290   -2.8215 Cl  0  0  0  0  0  0  0  0  0  0  0  0
   11.2860    6.9157   -5.3903 C   0  0  0  0  0  0  0  0  0  0  0  0
   10.4865    7.0790  -11.2495 N   0  0  0  0  0  0  0  0  0  0  0  0
   10.4997    6.3496  -12.5113 C   0  0  0  0  0  0  0  0  0  0  0  0
   11.7645    6.6879  -13.3328 C   0  0  0  0  0  0  0  0  0  0  0  0
   11.7779    6.2219  -14.8084 C   0  0  0  0  0  0  0  0  0  0  0  0
   11.9530    4.7163  -15.0911 C   0  0  0  0  0  0  0  0  0  0  0  0
   10.8469    3.8358  -14.4922 C   0  0  0  0  0  0  0  0  0  0  0  0
   10.5022    2.6625  -15.3352 N   0  0  2  0  0  0  0  0  0  0  0  0
    9.3238    2.9540  -16.2023 C   0  0  0  0  0  0  0  0  0  0  0  0
    8.8638    1.7374  -17.0223 C   0  0  0  0  0  0  0  0  0  0  0  0
    8.5971    0.5030  -16.1450 C   0  0  2  0  0  0  0  0  0  0  0  0
    7.3153    0.5865  -15.3381 C   0  0  0  0  0  0  0  0  0  0  0  0
    7.0262    1.3981  -14.2656 C   0  0  0  0  0  0  0  0  0  0  0  0
    5.7586    1.1203  -13.7938 N   0  0  0  0  0  0  0  0  0  0  0  0
    5.1492    0.1723  -14.5821 C   0  0  0  0  0  0  0  0  0  0  0  0
    3.8537   -0.3691  -14.5635 C   0  0  0  0  0  0  0  0  0  0  0  0
    3.4930   -1.2918  -15.5562 C   0  0  0  0  0  0  0  0  0  0  0  0
    4.4261   -1.6839  -16.5293 C   0  0  0  0  0  0  0  0  0  0  0  0
    4.0860   -2.6277  -17.4469 O   0  0  0  0  0  0  0  0  0  0  0  0
    5.7121   -1.1185  -16.5495 C   0  0  0  0  0  0  0  0  0  0  0  0
    6.1108   -0.1715  -15.5786 C   0  0  0  0  0  0  0  0  0  0  0  0
    9.8581    0.2207  -15.3085 C   0  0  0  0  0  0  0  0  0  0  0  0
   10.3333    1.4432  -14.5041 C   0  0  0  0  0  0  0  0  0  0  0  0
   10.5871    8.4840   -9.1554 H   0  0  0  0  0  0  0  0  0  0  0  0
   10.3207    5.8624   -7.5963 H   0  0  0  0  0  0  0  0  0  0  0  0
   10.6109    9.6616   -7.3141 H   0  0  0  0  0  0  0  0  0  0  0  0
   11.2861   10.8012   -5.2360 H   0  0  0  0  0  0  0  0  0  0  0  0
   11.2857    5.8361   -5.4186 H   0  0  0  0  0  0  0  0  0  0  0  0
   10.9202    7.9896  -11.2351 H   0  0  0  0  0  0  0  0  0  0  0  0
    9.5794    6.5725  -13.0469 H   0  0  0  0  0  0  0  0  0  0  0  0
   10.4802    5.2824  -12.3000 H   0  0  0  0  0  0  0  0  0  0  0  0
   12.6463    6.3029  -12.8213 H   0  0  0  0  0  0  0  0  0  0  0  0
   11.8826    7.7722  -13.3412 H   0  0  0  0  0  0  0  0  0  0  0  0
   12.6018    6.7382  -15.3032 H   0  0  0  0  0  0  0  0  0  0  0  0
   10.8860    6.5723  -15.3208 H   0  0  0  0  0  0  0  0  0  0  0  0
   12.9269    4.3776  -14.7346 H   0  0  0  0  0  0  0  0  0  0  0  0
   11.9752    4.5907  -16.1744 H   0  0  0  0  0  0  0  0  0  0  0  0
    9.9422    4.4198  -14.3230 H   0  0  0  0  0  0  0  0  0  0  0  0
   11.1799    3.5127  -13.5046 H   0  0  0  0  0  0  0  0  0  0  0  0
    9.5731    3.7740  -16.8775 H   0  0  0  0  0  0  0  0  0  0  0  0
    8.4917    3.3066  -15.5935 H   0  0  0  0  0  0  0  0  0  0  0  0
    9.6407    1.4952  -17.7490 H   0  0  0  0  0  0  0  0  0  0  0  0
    7.9748    1.9848  -17.6036 H   0  0  0  0  0  0  0  0  0  0  0  0
    8.4913   -0.3427  -16.8254 H   0  0  0  0  0  0  0  0  0  0  0  0
    7.6072    2.1658  -13.7833 H   0  0  0  0  0  0  0  0  0  0  0  0
    5.3392    1.6039  -13.0124 H   0  0  0  0  0  0  0  0  0  0  0  0
    3.1274   -0.0559  -13.8280 H   0  0  0  0  0  0  0  0  0  0  0  0
    2.4947   -1.6910  -15.5885 H   0  0  0  0  0  0  0  0  0  0  0  0
    3.4755   -3.2768  -17.0778 H   0  0  0  0  0  0  0  0  0  0  0  0
    6.4126   -1.4307  -17.3087 H   0  0  0  0  0  0  0  0  0  0  0  0
    9.6891   -0.6277  -14.6469 H   0  0  0  0  0  0  0  0  0  0  0  0
   10.6643   -0.0825  -15.9780 H   0  0  0  0  0  0  0  0  0  0  0  0
   11.2859    1.2150  -14.0268 H   0  0  0  0  0  0  0  0  0  0  0  0
    9.6420    1.6590  -13.6955 H   0  0  0  0  0  0  0  0  0  0  0  0
   11.2888    2.4801  -15.9425 H   0  0  0  0  0  0  0  0  0  0  0  0
  2  1  2  0
  3  2  1  0
  4  3  2  0
  5  4  1  0
  6  5  1  0
  7  6  2  0
  8  7  1  0
  9  8  1  0
 10  8  2  0
 11 10  1  0
 12  5  2  0
 12 10  1  0
 13  2  1  0
 14 13  1  0
 15 14  1  0
 16 15  1  0
 17 16  1  0
 18 17  1  0
 19 18  1  0
 20 19  1  0
 21 20  1  0
 22 21  1  0
 23 22  1  0
 24 23  2  0
 25 24  1  0
 26 25  1  0
 27 26  2  0
 28 27  1  0
 29 28  2  0
 30 29  1  0
 31 29  1  0
 32 23  1  0
 32 26  1  0
 32 31  2  0
 33 22  1  0
 34 19  1  0
 34 33  1  0
 35  3  1  0
 36  4  1  0
 37  6  1  0
 38  7  1  0
 39 12  1  0
 40 13  1  0
 41 14  1  0
 42 14  1  0
 43 15  1  0
 44 15  1  0
 45 16  1  0
 46 16  1  0
 47 17  1  0
 48 17  1  0
 49 18  1  0
 50 18  1  0
 51 20  1  0
 52 20  1  0
 53 21  1  0
 54 21  1  0
 22 55  1  6
 56 24  1  0
 57 25  1  0
 58 27  1  0
 59 28  1  0
 60 30  1  0
 61 31  1  0
 62 33  1  0
 63 33  1  0
 64 34  1  0
 65 34  1  0
 19 66  1  6
M  CHG  1  19   1
M  END
>  <b_m_subgroup_collapsed>  (315) 
0

>  <r_i_docking_score>  (315) 
-8.2654794472285893

>  <s_m_subgroup_title>  (315) 
glide-dock_SP_D22_pv

>  <s_m_subgroupid>  (315) 
glide-dock_SP_D22_pv

>  <Molecule ChEMBL ID>  (315) 
CHEMBL432713

>  <Standard Type>  (315) 
Ki

>  <Standard Value>  (315) 
15.85

>  <label>  (315) 
1

$$$$
CHEMBL2112912
     RDKit          3D

 45 48  0  0  1  0  0  0  0  0999 V2000
    9.2999    7.0889  -11.3569 C   0  0  0  0  0  0  0  0  0  0  0  0
    9.0685    5.7686  -11.4641 C   0  0  0  0  0  0  0  0  0  0  0  0
    9.1288    5.0780  -12.7550 C   0  0  0  0  0  0  0  0  0  0  0  0
    8.1101    4.1606  -13.0744 C   0  0  0  0  0  0  0  0  0  0  0  0
    8.1992    3.3934  -14.2483 C   0  0  0  0  0  0  0  0  0  0  0  0
    9.2871    3.5734  -15.1256 C   0  0  0  0  0  0  0  0  0  0  0  0
   10.2884    4.5175  -14.8246 C   0  0  0  0  0  0  0  0  0  0  0  0
   10.2141    5.2688  -13.6361 C   0  0  0  0  0  0  0  0  0  0  0  0
    8.8745    4.9245  -10.2203 C   0  0  0  0  0  0  0  0  0  0  0  0
    9.3562    5.6124   -8.9453 C   0  0  0  0  0  0  0  0  0  0  0  0
    8.8860    7.0155   -8.8807 N   0  0  1  0  0  0  0  0  0  0  0  0
    9.1456    7.6677   -7.5723 C   0  0  0  0  0  0  0  0  0  0  0  0
   10.6189    7.5409   -7.1190 C   0  0  0  0  0  0  0  0  0  0  0  0
   10.9470    8.3831   -5.9347 C   0  0  0  0  0  0  0  0  0  0  0  0
   10.8860    9.7517   -5.8877 C   0  0  0  0  0  0  0  0  0  0  0  0
   11.2861   10.1726   -4.6375 N   0  0  0  0  0  0  0  0  0  0  0  0
   11.6848    9.1106   -3.8673 C   0  0  0  0  0  0  0  0  0  0  0  0
   12.1726    9.1698   -2.6018 N   0  0  0  0  0  0  0  0  0  0  0  0
   12.4287    7.9678   -2.0508 C   0  0  0  0  0  0  0  0  0  0  0  0
   12.1932    6.7318   -2.6884 C   0  0  0  0  0  0  0  0  0  0  0  0
   11.6897    6.7244   -4.0048 C   0  0  0  0  0  0  0  0  0  0  0  0
   11.4271    7.9525   -4.6479 C   0  0  0  0  0  0  0  0  0  0  0  0
    9.3309    7.8451  -10.0381 C   0  0  0  0  0  0  0  0  0  0  0  0
    9.4885    7.6767  -12.2442 H   0  0  0  0  0  0  0  0  0  0  0  0
    7.2747    4.0117  -12.4057 H   0  0  0  0  0  0  0  0  0  0  0  0
    7.4311    2.6704  -14.4806 H   0  0  0  0  0  0  0  0  0  0  0  0
    9.3532    2.9899  -16.0317 H   0  0  0  0  0  0  0  0  0  0  0  0
   11.1223    4.6540  -15.4970 H   0  0  0  0  0  0  0  0  0  0  0  0
   11.0033    5.9662  -13.3954 H   0  0  0  0  0  0  0  0  0  0  0  0
    7.8326    4.6129  -10.1486 H   0  0  0  0  0  0  0  0  0  0  0  0
    9.4831    4.0307  -10.3479 H   0  0  0  0  0  0  0  0  0  0  0  0
    9.0101    5.0563   -8.0730 H   0  0  0  0  0  0  0  0  0  0  0  0
   10.4469    5.5867   -8.9342 H   0  0  0  0  0  0  0  0  0  0  0  0
    8.8492    8.7155   -7.6441 H   0  0  0  0  0  0  0  0  0  0  0  0
    8.4912    7.2228   -6.8198 H   0  0  0  0  0  0  0  0  0  0  0  0
   10.8446    6.5012   -6.8820 H   0  0  0  0  0  0  0  0  0  0  0  0
   11.2946    7.8113   -7.9299 H   0  0  0  0  0  0  0  0  0  0  0  0
   10.5851   10.4623   -6.6425 H   0  0  0  0  0  0  0  0  0  0  0  0
   11.3159   11.1393   -4.3501 H   0  0  0  0  0  0  0  0  0  0  0  0
   12.8306    7.9923   -1.0479 H   0  0  0  0  0  0  0  0  0  0  0  0
   12.4011    5.8012   -2.1795 H   0  0  0  0  0  0  0  0  0  0  0  0
   11.5074    5.7906   -4.5157 H   0  0  0  0  0  0  0  0  0  0  0  0
   10.3484    8.2064   -9.8974 H   0  0  0  0  0  0  0  0  0  0  0  0
    8.6899    8.7238  -10.1170 H   0  0  0  0  0  0  0  0  0  0  0  0
    7.8716    6.9751   -8.9716 H   0  0  0  0  0  0  0  0  0  0  0  0
  2  1  2  0
  3  2  1  0
  4  3  2  0
  5  4  1  0
  6  5  2  0
  7  6  1  0
  8  3  1  0
  8  7  2  0
  9  2  1  0
 10  9  1  0
 11 10  1  0
 12 11  1  0
 13 12  1  0
 14 13  1  0
 15 14  2  0
 16 15  1  0
 17 16  1  0
 18 17  1  0
 19 18  2  0
 20 19  1  0
 21 20  2  0
 22 14  1  0
 22 17  2  0
 22 21  1  0
 23  1  1  0
 23 11  1  0
 24  1  1  0
 25  4  1  0
 26  5  1  0
 27  6  1  0
 28  7  1  0
 29  8  1  0
 30  9  1  0
 31  9  1  0
 32 10  1  0
 33 10  1  0
 34 12  1  0
 35 12  1  0
 36 13  1  0
 37 13  1  0
 38 15  1  0
 39 16  1  0
 40 19  1  0
 41 20  1  0
 42 21  1  0
 43 23  1  0
 44 23  1  0
 11 45  1  6
M  CHG  1  11   1
M  END
>  <b_m_subgroup_collapsed>  (316) 
0

>  <r_i_docking_score>  (316) 
-8.2636234578797794

>  <s_m_subgroup_title>  (316) 
glide-dock_SP_D22_pv

>  <s_m_subgroupid>  (316) 
glide-dock_SP_D22_pv

>  <Molecule ChEMBL ID>  (316) 
CHEMBL2112912

>  <Standard Type>  (316) 
Ki

>  <Standard Value>  (316) 
21.0

>  <label>  (316) 
1

$$$$
CHEMBL345357
     RDKit          3D

 47 50  0  0  1  0  0  0  0  0999 V2000
    7.1506   -0.2278  -14.6913 O   0  0  0  0  0  0  0  0  0  0  0  0
    7.9427    0.7143  -15.3805 C   0  0  0  0  0  0  0  0  0  0  0  0
    8.0273    2.0390  -14.6465 C   0  0  0  0  0  0  0  0  0  0  0  0
    9.2851    2.6699  -14.4612 C   0  0  0  0  0  0  0  0  0  0  0  0
    9.3880    3.8455  -13.7513 C   0  0  0  0  0  0  0  0  0  0  0  0
    8.2183    4.4204  -13.1865 C   0  0  0  0  0  0  0  0  0  0  0  0
    7.9404    5.5402  -12.4460 C   0  0  0  0  0  0  0  0  0  0  0  0
    8.8811    6.6368  -12.0367 C   0  0  0  0  0  0  0  0  0  0  0  0
    8.8861    6.9987  -10.5947 N   0  0  0  0  0  0  0  0  0  0  0  0
    9.2101    5.8822   -9.6676 C   0  0  0  0  0  0  0  0  0  0  0  0
    9.2735    6.3507   -8.1941 C   0  0  0  0  0  0  0  0  0  0  0  0
   10.1365    7.5263   -8.0313 N   0  0  0  0  0  0  0  0  0  0  0  0
   10.6616    7.8247   -6.7483 C   0  0  0  0  0  0  0  0  0  0  0  0
   10.7406    9.1510   -6.2469 C   0  0  0  0  0  0  0  0  0  0  0  0
   11.2854    9.4237   -4.9758 C   0  0  0  0  0  0  0  0  0  0  0  0
   11.7537    8.3725   -4.1693 C   0  0  0  0  0  0  0  0  0  0  0  0
   12.4073    8.6951   -2.6056 Cl  0  0  0  0  0  0  0  0  0  0  0  0
   11.6860    7.0523   -4.6446 C   0  0  0  0  0  0  0  0  0  0  0  0
   11.1615    6.7898   -5.9250 C   0  0  0  0  0  0  0  0  0  0  0  0
    9.8014    8.6317   -8.9208 C   0  0  0  0  0  0  0  0  0  0  0  0
    9.7680    8.1719  -10.3814 C   0  0  0  0  0  0  0  0  0  0  0  0
    6.5339    5.4669  -12.2468 C   0  0  0  0  0  0  0  0  0  0  0  0
    5.9568    4.4279  -12.8085 N   0  0  0  0  0  0  0  0  0  0  0  0
    6.9913    3.7634  -13.4072 N   0  0  0  0  0  0  0  0  0  0  0  0
    6.8863    2.6127  -14.1260 C   0  0  0  0  0  0  0  0  0  0  0  0
    7.2852   -1.0864  -15.0805 H   0  0  0  0  0  0  0  0  0  0  0  0
    8.9405    0.2944  -15.5126 H   0  0  0  0  0  0  0  0  0  0  0  0
    7.5261    0.8755  -16.3753 H   0  0  0  0  0  0  0  0  0  0  0  0
   10.1850    2.2184  -14.8679 H   0  0  0  0  0  0  0  0  0  0  0  0
   10.3506    4.3232  -13.6076 H   0  0  0  0  0  0  0  0  0  0  0  0
    9.8997    6.3784  -12.3303 H   0  0  0  0  0  0  0  0  0  0  0  0
    8.6254    7.5293  -12.6101 H   0  0  0  0  0  0  0  0  0  0  0  0
    8.4636    5.0933   -9.7661 H   0  0  0  0  0  0  0  0  0  0  0  0
   10.1678    5.4473   -9.9523 H   0  0  0  0  0  0  0  0  0  0  0  0
    8.2714    6.6131   -7.8523 H   0  0  0  0  0  0  0  0  0  0  0  0
    9.5884    5.5112   -7.5784 H   0  0  0  0  0  0  0  0  0  0  0  0
   10.3815    9.9915   -6.8164 H   0  0  0  0  0  0  0  0  0  0  0  0
   11.3267   10.4408   -4.6148 H   0  0  0  0  0  0  0  0  0  0  0  0
   12.0510    6.2380   -4.0353 H   0  0  0  0  0  0  0  0  0  0  0  0
   11.1724    5.7725   -6.2722 H   0  0  0  0  0  0  0  0  0  0  0  0
    8.8375    9.0525   -8.6287 H   0  0  0  0  0  0  0  0  0  0  0  0
   10.5467    9.4228   -8.8491 H   0  0  0  0  0  0  0  0  0  0  0  0
   10.7818    7.9241  -10.7010 H   0  0  0  0  0  0  0  0  0  0  0  0
    9.4292    8.9926  -11.0122 H   0  0  0  0  0  0  0  0  0  0  0  0
    5.9178    6.1722  -11.7074 H   0  0  0  0  0  0  0  0  0  0  0  0
    5.8973    2.1785  -14.2258 H   0  0  0  0  0  0  0  0  0  0  0  0
    7.9332    7.3097  -10.3623 H   0  0  0  0  0  0  0  0  0  0  0  0
  2  1  1  0
  3  2  1  0
  4  3  1  0
  5  4  2  0
  6  5  1  0
  7  6  2  0
  8  7  1  0
  9  8  1  0
 10  9  1  0
 11 10  1  0
 12 11  1  0
 13 12  1  0
 14 13  1  0
 15 14  2  0
 16 15  1  0
 17 16  1  0
 18 16  2  0
 19 13  2  0
 19 18  1  0
 20 12  1  0
 21  9  1  0
 21 20  1  0
 22  7  1  0
 23 22  2  0
 24  6  1  0
 24 23  1  0
 25  3  2  0
 25 24  1  0
 26  1  1  0
 27  2  1  0
 28  2  1  0
 29  4  1  0
 30  5  1  0
 31  8  1  0
 32  8  1  0
 33 10  1  0
 34 10  1  0
 35 11  1  0
 36 11  1  0
 37 14  1  0
 38 15  1  0
 39 18  1  0
 40 19  1  0
 41 20  1  0
 42 20  1  0
 43 21  1  0
 44 21  1  0
 45 22  1  0
 46 25  1  0
 47  9  1  0
M  CHG  1   9   1
M  END
>  <b_m_subgroup_collapsed>  (317) 
0

>  <r_i_docking_score>  (317) 
-8.2622380331816903

>  <s_m_subgroup_title>  (317) 
glide-dock_SP_D22_pv

>  <s_m_subgroupid>  (317) 
glide-dock_SP_D22_pv

>  <Molecule ChEMBL ID>  (317) 
CHEMBL345357

>  <Standard Type>  (317) 
Ki

>  <Standard Value>  (317) 
22000.0

>  <label>  (317) 
0

$$$$
CHEMBL104273
     RDKit          3D

 58 61  0  0  1  0  0  0  0  0999 V2000
   12.1782    9.5676   -2.8597 C   0  0  0  0  0  0  0  0  0  0  0  0
   11.6857    8.8961   -4.1225 C   0  0  0  0  0  0  0  0  0  0  0  0
   11.0518    9.6337   -5.1469 C   0  0  0  0  0  0  0  0  0  0  0  0
   10.5024    8.9675   -6.2644 C   0  0  0  0  0  0  0  0  0  0  0  0
   10.6032    7.5618   -6.3756 C   0  0  0  0  0  0  0  0  0  0  0  0
    9.9126    6.7862   -7.4931 C   0  0  0  0  0  0  0  0  0  0  0  0
    9.9435    7.4304   -8.8315 N   0  0  2  0  0  0  0  0  0  0  0  0
    9.0423    6.7494   -9.7865 C   0  0  0  0  0  0  0  0  0  0  0  0
    8.8861    7.6070  -11.0512 C   0  0  0  0  0  0  0  0  0  0  0  0
   10.2198    7.8038  -11.7782 C   0  0  2  0  0  0  0  0  0  0  0  0
   10.6063    6.5287  -12.5629 C   0  0  0  0  0  0  0  0  0  0  0  0
   11.6863    6.6846  -13.6528 C   0  0  0  0  0  0  0  0  0  0  0  0
   12.4101    7.6807  -13.6151 O   0  0  0  0  0  0  0  0  0  0  0  0
   11.7566    5.7948  -14.6812 N   0  0  0  0  0  0  0  0  0  0  0  0
   11.1020    4.5350  -14.8141 C   0  0  0  0  0  0  0  0  0  0  0  0
   10.4861    3.7085  -13.8459 C   0  0  0  0  0  0  0  0  0  0  0  0
    9.9055    2.4890  -14.2546 C   0  0  0  0  0  0  0  0  0  0  0  0
    9.9630    2.0797  -15.6047 C   0  0  0  0  0  0  0  0  0  0  0  0
   10.6088    2.8892  -16.5618 C   0  0  0  0  0  0  0  0  0  0  0  0
   11.1693    4.1067  -16.1371 C   0  0  0  0  0  0  0  0  0  0  0  0
   11.9244    5.0785  -16.9891 C   0  0  0  0  0  0  0  0  0  0  0  0
   12.3379    6.1831  -15.9890 C   0  0  2  0  0  0  0  0  0  0  0  0
   13.8612    6.3865  -15.9526 C   0  0  0  0  0  0  0  0  0  0  0  0
   11.2631    8.3393  -10.7578 C   0  0  0  0  0  0  0  0  0  0  0  0
   11.2969    7.5650   -9.4250 C   0  0  0  0  0  0  0  0  0  0  0  0
   11.2855    6.8450   -5.3714 C   0  0  0  0  0  0  0  0  0  0  0  0
   11.8107    7.5009   -4.2453 C   0  0  0  0  0  0  0  0  0  0  0  0
   12.4131    6.7838   -3.2664 F   0  0  0  0  0  0  0  0  0  0  0  0
   11.9621   10.6327   -2.8608 H   0  0  0  0  0  0  0  0  0  0  0  0
   11.6870    9.1330   -1.9884 H   0  0  0  0  0  0  0  0  0  0  0  0
   13.2508    9.4153   -2.7448 H   0  0  0  0  0  0  0  0  0  0  0  0
   10.9452   10.7053   -5.0597 H   0  0  0  0  0  0  0  0  0  0  0  0
    9.9797    9.5399   -7.0156 H   0  0  0  0  0  0  0  0  0  0  0  0
    8.8744    6.6547   -7.1819 H   0  0  0  0  0  0  0  0  0  0  0  0
   10.3406    5.7852   -7.5693 H   0  0  0  0  0  0  0  0  0  0  0  0
    8.0813    6.5733   -9.3180 H   0  0  0  0  0  0  0  0  0  0  0  0
    9.4284    5.7590  -10.0309 H   0  0  0  0  0  0  0  0  0  0  0  0
    8.4859    8.5837  -10.7757 H   0  0  0  0  0  0  0  0  0  0  0  0
    8.1436    7.1625  -11.7162 H   0  0  0  0  0  0  0  0  0  0  0  0
   10.0414    8.5722  -12.5266 H   0  0  0  0  0  0  0  0  0  0  0  0
    9.7055    6.1710  -13.0620 H   0  0  0  0  0  0  0  0  0  0  0  0
   10.8856    5.7726  -11.8500 H   0  0  0  0  0  0  0  0  0  0  0  0
   10.4461    3.9555  -12.8003 H   0  0  0  0  0  0  0  0  0  0  0  0
    9.4230    1.8571  -13.5224 H   0  0  0  0  0  0  0  0  0  0  0  0
    9.5216    1.1395  -15.9016 H   0  0  0  0  0  0  0  0  0  0  0  0
   10.6760    2.5776  -17.5938 H   0  0  0  0  0  0  0  0  0  0  0  0
   12.7810    4.5836  -17.4478 H   0  0  0  0  0  0  0  0  0  0  0  0
   11.2821    5.4673  -17.7801 H   0  0  0  0  0  0  0  0  0  0  0  0
   11.8713    7.1172  -16.3081 H   0  0  0  0  0  0  0  0  0  0  0  0
   14.2684    6.4793  -16.9599 H   0  0  0  0  0  0  0  0  0  0  0  0
   14.1056    7.3092  -15.4307 H   0  0  0  0  0  0  0  0  0  0  0  0
   14.3691    5.5584  -15.4576 H   0  0  0  0  0  0  0  0  0  0  0  0
   12.2639    8.3708  -11.1871 H   0  0  0  0  0  0  0  0  0  0  0  0
   11.0171    9.3725  -10.5263 H   0  0  0  0  0  0  0  0  0  0  0  0
   11.9773    8.0579   -8.7297 H   0  0  0  0  0  0  0  0  0  0  0  0
   11.6861    6.5722   -9.6098 H   0  0  0  0  0  0  0  0  0  0  0  0
   11.3702    5.7727   -5.4301 H   0  0  0  0  0  0  0  0  0  0  0  0
    9.5644    8.3579   -8.7091 H   0  0  0  0  0  0  0  0  0  0  0  0
  2  1  1  0
  3  2  1  0
  4  3  2  0
  5  4  1  0
  6  5  1  0
  7  6  1  0
  8  7  1  0
  9  8  1  0
 10  9  1  0
 11 10  1  0
 12 11  1  0
 13 12  2  0
 14 12  1  0
 15 14  1  0
 16 15  2  0
 17 16  1  0
 18 17  2  0
 19 18  1  0
 20 15  1  0
 20 19  2  0
 21 20  1  0
 22 14  1  0
 22 21  1  0
 23 22  1  0
 24 10  1  0
 25  7  1  0
 25 24  1  0
 26  5  2  0
 27  2  2  0
 27 26  1  0
 28 27  1  0
 29  1  1  0
 30  1  1  0
 31  1  1  0
 32  3  1  0
 33  4  1  0
 34  6  1  0
 35  6  1  0
 36  8  1  0
 37  8  1  0
 38  9  1  0
 39  9  1  0
 10 40  1  6
 41 11  1  0
 42 11  1  0
 43 16  1  0
 44 17  1  0
 45 18  1  0
 46 19  1  0
 47 21  1  0
 48 21  1  0
 22 49  1  6
 50 23  1  0
 51 23  1  0
 52 23  1  0
 53 24  1  0
 54 24  1  0
 55 25  1  0
 56 25  1  0
 57 26  1  0
  7 58  1  1
M  CHG  1   7   1
M  END
>  <b_m_subgroup_collapsed>  (318) 
0

>  <r_i_docking_score>  (318) 
-8.2587209525516396

>  <s_m_subgroup_title>  (318) 
glide-dock_SP_D22_pv

>  <s_m_subgroupid>  (318) 
glide-dock_SP_D22_pv

>  <Molecule ChEMBL ID>  (318) 
CHEMBL104273

>  <Standard Type>  (318) 
Ki

>  <Standard Value>  (318) 
23.0

>  <label>  (318) 
1

$$$$
CHEMBL425208
     RDKit          3D

 56 60  0  0  1  0  0  0  0  0999 V2000
    9.4015    0.7516  -15.9022 C   0  0  0  0  0  0  0  0  0  0  0  0
    8.7084    1.4434  -14.7148 C   0  0  2  0  0  0  0  0  0  0  0  0
    7.1909    1.5646  -14.9711 C   0  0  0  0  0  0  0  0  0  0  0  0
    6.4861    2.3733  -13.8795 C   0  0  0  0  0  0  0  0  0  0  0  0
    5.3896    2.0267  -13.4453 O   0  0  0  0  0  0  0  0  0  0  0  0
    7.1292    3.4524  -13.4162 N   0  0  0  0  0  0  0  0  0  0  0  0
    8.5001    3.7419  -13.6534 C   0  0  0  0  0  0  0  0  0  0  0  0
    9.0578    4.9495  -13.1647 C   0  0  0  0  0  0  0  0  0  0  0  0
    8.2148    5.9425  -12.3782 C   0  0  0  0  0  0  0  0  0  0  0  0
    8.1131    5.6101  -10.8705 C   0  0  0  0  0  0  0  0  0  0  0  0
    9.3002    5.8740  -10.0483 N   0  0  0  0  0  0  0  0  0  0  0  0
    9.7086    7.2812  -10.1021 C   0  0  0  0  0  0  0  0  0  0  0  0
   10.9861    7.4452   -9.2658 C   0  0  0  0  0  0  0  0  0  0  0  0
   10.7482    7.1374   -7.8548 N   0  0  0  0  0  0  0  0  0  0  0  0
   10.8499    8.1187   -6.8679 C   0  0  0  0  0  0  0  0  0  0  0  0
   10.6613    9.3738   -7.0888 N   0  0  0  0  0  0  0  0  0  0  0  0
   11.0479   10.3775   -5.8472 S   0  0  0  0  0  0  0  0  0  0  0  0
   12.3943   10.9734   -6.2467 O   0  0  0  0  0  0  0  0  0  0  0  0
   11.4306    9.0282   -4.7744 C   0  0  0  0  0  0  0  0  0  0  0  0
   11.8324    9.1202   -3.4337 C   0  0  0  0  0  0  0  0  0  0  0  0
   12.0918    7.9146   -2.7553 C   0  0  0  0  0  0  0  0  0  0  0  0
   11.9658    6.6830   -3.4369 C   0  0  0  0  0  0  0  0  0  0  0  0
   11.5740    6.6374   -4.7971 C   0  0  0  0  0  0  0  0  0  0  0  0
   11.2860    7.8381   -5.4653 C   0  0  0  0  0  0  0  0  0  0  0  0
   10.1242    5.8336   -7.6884 C   0  0  0  0  0  0  0  0  0  0  0  0
    8.9302    5.6199   -8.6484 C   0  0  0  0  0  0  0  0  0  0  0  0
   10.4197    5.2281  -13.3965 C   0  0  0  0  0  0  0  0  0  0  0  0
   11.2275    4.3037  -14.0823 C   0  0  0  0  0  0  0  0  0  0  0  0
   12.5392    4.5720  -14.2822 F   0  0  0  0  0  0  0  0  0  0  0  0
   10.6830    3.0887  -14.5368 C   0  0  0  0  0  0  0  0  0  0  0  0
    9.3174    2.7946  -14.3239 C   0  0  0  0  0  0  0  0  0  0  0  0
   10.4334    0.4876  -15.6740 H   0  0  0  0  0  0  0  0  0  0  0  0
    8.8926   -0.1780  -16.1591 H   0  0  0  0  0  0  0  0  0  0  0  0
    9.3983    1.3853  -16.7887 H   0  0  0  0  0  0  0  0  0  0  0  0
    8.8417    0.7946  -13.8477 H   0  0  0  0  0  0  0  0  0  0  0  0
    6.7355    0.5767  -15.0536 H   0  0  0  0  0  0  0  0  0  0  0  0
    7.0116    2.0741  -15.9186 H   0  0  0  0  0  0  0  0  0  0  0  0
    6.6401    4.0387  -12.7561 H   0  0  0  0  0  0  0  0  0  0  0  0
    7.2079    5.9576  -12.7953 H   0  0  0  0  0  0  0  0  0  0  0  0
    8.5741    6.9541  -12.5544 H   0  0  0  0  0  0  0  0  0  0  0  0
    7.8307    4.5630  -10.7560 H   0  0  0  0  0  0  0  0  0  0  0  0
    7.2862    6.1722  -10.4612 H   0  0  0  0  0  0  0  0  0  0  0  0
    8.9122    7.9405   -9.7500 H   0  0  0  0  0  0  0  0  0  0  0  0
    9.9464    7.5758  -11.1213 H   0  0  0  0  0  0  0  0  0  0  0  0
   11.3808    8.4544   -9.3903 H   0  0  0  0  0  0  0  0  0  0  0  0
   11.7438    6.7761   -9.6603 H   0  0  0  0  0  0  0  0  0  0  0  0
   11.9322   10.0767   -2.9404 H   0  0  0  0  0  0  0  0  0  0  0  0
   12.3970    7.9336   -1.7193 H   0  0  0  0  0  0  0  0  0  0  0  0
   12.1837    5.7716   -2.9055 H   0  0  0  0  0  0  0  0  0  0  0  0
   11.5131    5.7058   -5.3210 H   0  0  0  0  0  0  0  0  0  0  0  0
   10.8769    5.0636   -7.8475 H   0  0  0  0  0  0  0  0  0  0  0  0
    9.7551    5.7658   -6.6665 H   0  0  0  0  0  0  0  0  0  0  0  0
    8.1086    6.2748   -8.3525 H   0  0  0  0  0  0  0  0  0  0  0  0
    8.5647    4.5977   -8.5445 H   0  0  0  0  0  0  0  0  0  0  0  0
   10.8560    6.1461  -13.0312 H   0  0  0  0  0  0  0  0  0  0  0  0
   11.3385    2.3858  -15.0274 H   0  0  0  0  0  0  0  0  0  0  0  0
  2  1  1  0
  3  2  1  0
  4  3  1  0
  5  4  2  0
  6  4  1  0
  7  6  1  0
  8  7  2  0
  9  8  1  0
 10  9  1  0
 11 10  1  0
 12 11  1  0
 13 12  1  0
 14 13  1  0
 15 14  1  0
 16 15  2  0
 17 16  1  6
 18 17  2  0
 19 17  1  0
 20 19  2  0
 21 20  1  0
 22 21  2  0
 23 22  1  0
 24 15  1  0
 24 19  1  0
 24 23  2  0
 25 14  1  0
 26 11  1  0
 26 25  1  0
 27  8  1  0
 28 27  2  0
 29 28  1  0
 30 28  1  0
 31  2  1  0
 31  7  1  0
 31 30  2  0
 32  1  1  0
 33  1  1  0
 34  1  1  0
  2 35  1  1
 36  3  1  0
 37  3  1  0
 38  6  1  0
 39  9  1  0
 40  9  1  0
 41 10  1  0
 42 10  1  0
 43 12  1  0
 44 12  1  0
 45 13  1  0
 46 13  1  0
 47 20  1  0
 48 21  1  0
 49 22  1  0
 50 23  1  0
 51 25  1  0
 52 25  1  0
 53 26  1  0
 54 26  1  0
 55 27  1  0
 56 30  1  0
M  END
>  <b_m_subgroup_collapsed>  (319) 
0

>  <r_i_docking_score>  (319) 
-8.2581883897284705

>  <s_m_subgroup_title>  (319) 
glide-dock_SP_D22_pv

>  <s_m_subgroupid>  (319) 
glide-dock_SP_D22_pv

>  <Molecule ChEMBL ID>  (319) 
CHEMBL425208

>  <Standard Type>  (319) 
Ki

>  <Standard Value>  (319) 
92.0

>  <label>  (319) 
1

$$$$
CHEMBL334472
     RDKit          3D

 35 36  0  0  1  0  0  0  0  0999 V2000
    7.8664    5.6543  -12.3099 C   0  0  0  0  0  0  0  0  0  0  0  0
    8.3552    4.6533  -11.2538 C   0  0  0  0  0  0  0  0  0  0  0  0
    9.2610    5.2923  -10.1906 C   0  0  0  0  0  0  0  0  0  0  0  0
    8.4865    6.1726   -9.2886 N   0  0  0  0  0  0  0  0  0  0  0  0
    9.2459    7.0606   -8.3694 C   0  0  2  0  0  0  0  0  0  0  0  0
   10.2499    7.9812   -9.0778 C   0  0  0  0  0  0  0  0  0  0  0  0
   10.8065    9.0288   -8.1060 C   0  0  0  0  0  0  0  0  0  0  0  0
   11.1882    8.4946   -6.7299 C   0  0  0  0  0  0  0  0  0  0  0  0
   11.9622    9.2931   -5.8484 C   0  0  0  0  0  0  0  0  0  0  0  0
   12.4726   10.4922   -6.2468 O   0  0  0  0  0  0  0  0  0  0  0  0
   12.2545    8.8416   -4.5483 C   0  0  0  0  0  0  0  0  0  0  0  0
   11.8261    7.5683   -4.1362 C   0  0  0  0  0  0  0  0  0  0  0  0
   11.0986    6.7534   -5.0225 C   0  0  0  0  0  0  0  0  0  0  0  0
   10.7541    7.2111   -6.3111 C   0  0  0  0  0  0  0  0  0  0  0  0
    9.9410    6.3021   -7.2295 C   0  0  0  0  0  0  0  0  0  0  0  0
    7.2394    5.1561  -13.0495 H   0  0  0  0  0  0  0  0  0  0  0  0
    7.2731    6.4517  -11.8618 H   0  0  0  0  0  0  0  0  0  0  0  0
    8.7010    6.1157  -12.8384 H   0  0  0  0  0  0  0  0  0  0  0  0
    8.9071    3.8592  -11.7598 H   0  0  0  0  0  0  0  0  0  0  0  0
    7.4988    4.1733  -10.7783 H   0  0  0  0  0  0  0  0  0  0  0  0
   10.0575    5.8383  -10.6939 H   0  0  0  0  0  0  0  0  0  0  0  0
    9.7340    4.5109   -9.5958 H   0  0  0  0  0  0  0  0  0  0  0  0
    7.8566    5.6079   -8.7370 H   0  0  0  0  0  0  0  0  0  0  0  0
    8.4864    7.6987   -7.9140 H   0  0  0  0  0  0  0  0  0  0  0  0
    9.7938    8.4758   -9.9359 H   0  0  0  0  0  0  0  0  0  0  0  0
   11.0859    7.3942   -9.4585 H   0  0  0  0  0  0  0  0  0  0  0  0
   10.0332    9.7723   -7.9334 H   0  0  0  0  0  0  0  0  0  0  0  0
   11.6567    9.5325   -8.5648 H   0  0  0  0  0  0  0  0  0  0  0  0
   13.4272   10.5220   -6.2465 H   0  0  0  0  0  0  0  0  0  0  0  0
   12.8314    9.4582   -3.8741 H   0  0  0  0  0  0  0  0  0  0  0  0
   12.0669    7.2070   -3.1465 H   0  0  0  0  0  0  0  0  0  0  0  0
   10.7915    5.7727   -4.6938 H   0  0  0  0  0  0  0  0  0  0  0  0
   10.6241    5.5535   -7.6310 H   0  0  0  0  0  0  0  0  0  0  0  0
    9.1910    5.7726   -6.6470 H   0  0  0  0  0  0  0  0  0  0  0  0
    7.8864    6.7808   -9.8463 H   0  0  0  0  0  0  0  0  0  0  0  0
  2  1  1  0
  3  2  1  0
  4  3  1  0
  5  4  1  0
  6  5  1  0
  7  6  1  0
  8  7  1  0
  9  8  2  0
 10  9  1  0
 11  9  1  0
 12 11  2  0
 13 12  1  0
 14  8  1  0
 14 13  2  0
 15  5  1  0
 15 14  1  0
 16  1  1  0
 17  1  1  0
 18  1  1  0
 19  2  1  0
 20  2  1  0
 21  3  1  0
 22  3  1  0
 23  4  1  0
  5 24  1  1
 25  6  1  0
 26  6  1  0
 27  7  1  0
 28  7  1  0
 29 10  1  0
 30 11  1  0
 31 12  1  0
 32 13  1  0
 33 15  1  0
 34 15  1  0
 35  4  1  0
M  CHG  1   4   1
M  END
>  <b_m_subgroup_collapsed>  (320) 
0

>  <r_i_docking_score>  (320) 
-8.2535326062857397

>  <s_m_subgroup_title>  (320) 
glide-dock_SP_D22_pv

>  <s_m_subgroupid>  (320) 
glide-dock_SP_D22_pv

>  <Molecule ChEMBL ID>  (320) 
CHEMBL334472

>  <Standard Type>  (320) 
Ki

>  <Standard Value>  (320) 
0.5

>  <label>  (320) 
1

$$$$
CHEMBL3759441
     RDKit          3D

 64 68  0  0  1  0  0  0  0  0999 V2000
    3.2857   -1.0277  -13.8466 O   0  0  0  0  0  0  0  0  0  0  0  0
    4.2007   -0.7266  -14.6043 C   0  0  0  0  0  0  0  0  0  0  0  0
    5.2743    0.3002  -14.2339 C   0  0  0  0  0  0  0  0  0  0  0  0
    6.0899    0.2821  -15.5062 C   0  0  0  0  0  0  0  0  0  0  0  0
    5.5462   -0.6435  -16.3947 C   0  0  0  0  0  0  0  0  0  0  0  0
    6.1097   -0.8965  -17.6548 C   0  0  0  0  0  0  0  0  0  0  0  0
    7.2723   -0.1761  -18.0031 C   0  0  0  0  0  0  0  0  0  0  0  0
    7.8317    0.7671  -17.1075 C   0  0  0  0  0  0  0  0  0  0  0  0
    7.2442    1.0281  -15.8439 C   0  0  0  0  0  0  0  0  0  0  0  0
    7.8307    2.0017  -15.0129 N   0  0  0  0  0  0  0  0  0  0  0  0
    9.0943    1.6238  -14.4001 C   0  0  0  0  0  0  0  0  0  0  0  0
    9.9004    2.8820  -14.0359 C   0  0  0  0  0  0  0  0  0  0  0  0
    9.1130    3.8356  -13.2055 N   0  0  0  0  0  0  0  0  0  0  0  0
    9.9028    5.0559  -12.8877 C   0  0  0  0  0  0  0  0  0  0  0  0
    9.2262    5.9477  -11.8310 C   0  0  0  0  0  0  0  0  0  0  0  0
   10.1352    7.0458  -11.2554 C   0  0  0  0  0  0  0  0  0  0  0  0
    9.3619    7.9344  -10.2618 C   0  0  0  0  0  0  0  0  0  0  0  0
   10.1386    8.3079   -9.0863 N   0  0  0  0  0  0  0  0  0  0  0  0
   10.3402    7.4605   -8.0643 C   0  0  0  0  0  0  0  0  0  0  0  0
   10.1082    6.2525   -8.1500 O   0  0  0  0  0  0  0  0  0  0  0  0
   10.8657    8.0404   -6.7790 C   0  0  0  0  0  0  0  0  0  0  0  0
   10.8858    9.4352   -6.5253 C   0  0  0  0  0  0  0  0  0  0  0  0
   11.2905    9.9334   -5.2735 C   0  0  0  0  0  0  0  0  0  0  0  0
   11.6893    9.0459   -4.2587 C   0  0  0  0  0  0  0  0  0  0  0  0
   12.0858    9.5242   -2.9962 C   0  0  0  0  0  0  0  0  0  0  0  0
   12.4861    8.6242   -1.9930 C   0  0  0  0  0  0  0  0  0  0  0  0
   12.4855    7.2413   -2.2469 C   0  0  0  0  0  0  0  0  0  0  0  0
   12.0829    6.7618   -3.5001 C   0  0  0  0  0  0  0  0  0  0  0  0
   11.6860    7.6554   -4.5078 C   0  0  0  0  0  0  0  0  0  0  0  0
   11.2816    7.1611   -5.7585 C   0  0  0  0  0  0  0  0  0  0  0  0
    7.7807    4.1495  -13.7949 C   0  0  0  0  0  0  0  0  0  0  0  0
    6.9972    2.8903  -14.2142 C   0  0  0  0  0  0  0  0  0  0  0  0
    4.4144   -1.2318  -15.8238 N   0  0  0  0  0  0  0  0  0  0  0  0
    5.8598   -0.0309  -13.3768 H   0  0  0  0  0  0  0  0  0  0  0  0
    4.8136    1.2654  -14.0292 H   0  0  0  0  0  0  0  0  0  0  0  0
    5.6779   -1.6220  -18.3296 H   0  0  0  0  0  0  0  0  0  0  0  0
    7.7408   -0.3487  -18.9606 H   0  0  0  0  0  0  0  0  0  0  0  0
    8.7158    1.3089  -17.4077 H   0  0  0  0  0  0  0  0  0  0  0  0
    8.8863    1.0347  -13.5055 H   0  0  0  0  0  0  0  0  0  0  0  0
    9.6783    0.9888  -15.0677 H   0  0  0  0  0  0  0  0  0  0  0  0
   10.8041    2.5870  -13.5021 H   0  0  0  0  0  0  0  0  0  0  0  0
   10.2217    3.3840  -14.9506 H   0  0  0  0  0  0  0  0  0  0  0  0
   10.8832    4.7428  -12.5335 H   0  0  0  0  0  0  0  0  0  0  0  0
   10.0816    5.6310  -13.7974 H   0  0  0  0  0  0  0  0  0  0  0  0
    8.3382    6.4217  -12.2504 H   0  0  0  0  0  0  0  0  0  0  0  0
    8.8774    5.3218  -11.0065 H   0  0  0  0  0  0  0  0  0  0  0  0
   10.9826    6.5741  -10.7610 H   0  0  0  0  0  0  0  0  0  0  0  0
   10.5506    7.6614  -12.0527 H   0  0  0  0  0  0  0  0  0  0  0  0
    8.9797    8.8279  -10.7559 H   0  0  0  0  0  0  0  0  0  0  0  0
    8.4861    7.3966   -9.9033 H   0  0  0  0  0  0  0  0  0  0  0  0
   10.3807    9.2798   -8.9708 H   0  0  0  0  0  0  0  0  0  0  0  0
   10.5786   10.1603   -7.2607 H   0  0  0  0  0  0  0  0  0  0  0  0
   11.2856   10.9989   -5.0981 H   0  0  0  0  0  0  0  0  0  0  0  0
   12.0817   10.5793   -2.7789 H   0  0  0  0  0  0  0  0  0  0  0  0
   12.8025    9.0052   -1.0357 H   0  0  0  0  0  0  0  0  0  0  0  0
   12.7988    6.5450   -1.4842 H   0  0  0  0  0  0  0  0  0  0  0  0
   12.0861    5.7035   -3.6897 H   0  0  0  0  0  0  0  0  0  0  0  0
   11.2679    6.0933   -5.9214 H   0  0  0  0  0  0  0  0  0  0  0  0
    7.1702    4.7039  -13.0829 H   0  0  0  0  0  0  0  0  0  0  0  0
    7.9321    4.8062  -14.6469 H   0  0  0  0  0  0  0  0  0  0  0  0
    6.1006    3.1751  -14.7684 H   0  0  0  0  0  0  0  0  0  0  0  0
    6.6663    2.3658  -13.3202 H   0  0  0  0  0  0  0  0  0  0  0  0
    3.8640   -1.9546  -16.2709 H   0  0  0  0  0  0  0  0  0  0  0  0
    8.9369    3.3598  -12.3311 H   0  0  0  0  0  0  0  0  0  0  0  0
  2  1  2  0
  3  2  1  0
  4  3  1  0
  5  4  2  0
  6  5  1  0
  7  6  2  0
  8  7  1  0
  9  4  1  0
  9  8  2  0
 10  9  1  0
 11 10  1  0
 12 11  1  0
 13 12  1  0
 14 13  1  0
 15 14  1  0
 16 15  1  0
 17 16  1  0
 18 17  1  0
 19 18  1  0
 20 19  2  0
 21 19  1  0
 22 21  1  0
 23 22  2  0
 24 23  1  0
 25 24  2  0
 26 25  1  0
 27 26  2  0
 28 27  1  0
 29 24  1  0
 29 28  2  0
 30 21  2  0
 30 29  1  0
 31 13  1  0
 32 10  1  0
 32 31  1  0
 33  2  1  0
 33  5  1  0
 34  3  1  0
 35  3  1  0
 36  6  1  0
 37  7  1  0
 38  8  1  0
 39 11  1  0
 40 11  1  0
 41 12  1  0
 42 12  1  0
 43 14  1  0
 44 14  1  0
 45 15  1  0
 46 15  1  0
 47 16  1  0
 48 16  1  0
 49 17  1  0
 50 17  1  0
 51 18  1  0
 52 22  1  0
 53 23  1  0
 54 25  1  0
 55 26  1  0
 56 27  1  0
 57 28  1  0
 58 30  1  0
 59 31  1  0
 60 31  1  0
 61 32  1  0
 62 32  1  0
 63 33  1  0
 64 13  1  0
M  CHG  1  13   1
M  END
>  <b_m_subgroup_collapsed>  (321) 
0

>  <r_i_docking_score>  (321) 
-8.2496210979177995

>  <s_m_subgroup_title>  (321) 
glide-dock_SP_D22_pv

>  <s_m_subgroupid>  (321) 
glide-dock_SP_D22_pv

>  <Molecule ChEMBL ID>  (321) 
CHEMBL3759441

>  <Standard Type>  (321) 
Ki

>  <Standard Value>  (321) 
52.0

>  <label>  (321) 
1

$$$$
CHEMBL1108
     RDKit          3D

 50 53  0  0  1  0  0  0  0  0999 V2000
   10.7667    9.3722   -7.1035 O   0  0  0  0  0  0  0  0  0  0  0  0
   10.6457    8.3831   -6.3823 C   0  0  0  0  0  0  0  0  0  0  0  0
    9.7454    7.2260   -6.8328 C   0  0  0  0  0  0  0  0  0  0  0  0
   10.1825    6.6516   -8.1860 C   0  0  0  0  0  0  0  0  0  0  0  0
    9.6065    7.4297   -9.3822 C   0  0  0  0  0  0  0  0  0  0  0  0
   10.2713    6.9588  -10.5889 N   0  0  0  0  0  0  0  0  0  0  0  0
   11.4445    7.7713  -10.9333 C   0  0  0  0  0  0  0  0  0  0  0  0
   12.0549    7.3723  -12.2690 C   0  0  0  0  0  0  0  0  0  0  0  0
   11.4627    6.4956  -13.1096 C   0  0  0  0  0  0  0  0  0  0  0  0
   11.9846    6.1549  -14.3765 N   0  0  0  0  0  0  0  0  0  0  0  0
   12.6280    7.0097  -15.2163 C   0  0  0  0  0  0  0  0  0  0  0  0
   12.8858    8.1948  -15.0200 O   0  0  0  0  0  0  0  0  0  0  0  0
   12.9054    6.3536  -16.3546 N   0  0  0  0  0  0  0  0  0  0  0  0
   12.4126    5.0550  -16.2860 C   0  0  0  0  0  0  0  0  0  0  0  0
   12.4585    4.0205  -17.2338 C   0  0  0  0  0  0  0  0  0  0  0  0
   11.8757    2.7864  -16.8680 C   0  0  0  0  0  0  0  0  0  0  0  0
   11.2853    2.6184  -15.5903 C   0  0  0  0  0  0  0  0  0  0  0  0
   11.2651    3.6780  -14.6534 C   0  0  0  0  0  0  0  0  0  0  0  0
   11.8287    4.9115  -15.0418 C   0  0  0  0  0  0  0  0  0  0  0  0
   10.0919    5.9261  -12.7567 C   0  0  0  0  0  0  0  0  0  0  0  0
    9.3665    6.8061  -11.7236 C   0  0  0  0  0  0  0  0  0  0  0  0
   11.2860    8.2866   -5.0456 C   0  0  0  0  0  0  0  0  0  0  0  0
   11.6461    7.0481   -4.4608 C   0  0  0  0  0  0  0  0  0  0  0  0
   12.1790    7.0077   -3.1576 C   0  0  0  0  0  0  0  0  0  0  0  0
   12.3911    8.2045   -2.4498 C   0  0  0  0  0  0  0  0  0  0  0  0
   12.8861    8.1748   -1.1940 F   0  0  0  0  0  0  0  0  0  0  0  0
   12.0858    9.4378   -3.0471 C   0  0  0  0  0  0  0  0  0  0  0  0
   11.5413    9.4815   -4.3408 C   0  0  0  0  0  0  0  0  0  0  0  0
    8.7163    7.5826   -6.8940 H   0  0  0  0  0  0  0  0  0  0  0  0
    9.7353    6.4361   -6.0853 H   0  0  0  0  0  0  0  0  0  0  0  0
    9.8576    5.6135   -8.2547 H   0  0  0  0  0  0  0  0  0  0  0  0
   11.2721    6.6207   -8.2344 H   0  0  0  0  0  0  0  0  0  0  0  0
    9.7196    8.5090   -9.2758 H   0  0  0  0  0  0  0  0  0  0  0  0
    8.5332    7.2364   -9.4282 H   0  0  0  0  0  0  0  0  0  0  0  0
   12.1986    7.6811  -10.1507 H   0  0  0  0  0  0  0  0  0  0  0  0
   11.1653    8.8237  -10.9953 H   0  0  0  0  0  0  0  0  0  0  0  0
   13.0033    7.8291  -12.5126 H   0  0  0  0  0  0  0  0  0  0  0  0
   13.3609    6.7441  -17.1656 H   0  0  0  0  0  0  0  0  0  0  0  0
   12.9203    4.1592  -18.2003 H   0  0  0  0  0  0  0  0  0  0  0  0
   11.8898    1.9603  -17.5638 H   0  0  0  0  0  0  0  0  0  0  0  0
   10.8573    1.6631  -15.3216 H   0  0  0  0  0  0  0  0  0  0  0  0
   10.8353    3.5104  -13.6810 H   0  0  0  0  0  0  0  0  0  0  0  0
    9.4776    5.7789  -13.6456 H   0  0  0  0  0  0  0  0  0  0  0  0
   10.2323    4.9516  -12.2919 H   0  0  0  0  0  0  0  0  0  0  0  0
    9.0944    7.7795  -12.1350 H   0  0  0  0  0  0  0  0  0  0  0  0
    8.4439    6.3133  -11.4137 H   0  0  0  0  0  0  0  0  0  0  0  0
   11.4989    6.1165   -4.9869 H   0  0  0  0  0  0  0  0  0  0  0  0
   12.4225    6.0586   -2.7023 H   0  0  0  0  0  0  0  0  0  0  0  0
   12.2452   10.3550   -2.5030 H   0  0  0  0  0  0  0  0  0  0  0  0
   11.2870   10.4394   -4.7726 H   0  0  0  0  0  0  0  0  0  0  0  0
  2  1  2  0
  3  2  1  0
  4  3  1  0
  5  4  1  0
  6  5  1  0
  7  6  1  0
  8  7  1  0
  9  8  2  0
 10  9  1  0
 11 10  1  0
 12 11  2  0
 13 11  1  0
 14 13  1  0
 15 14  2  0
 16 15  1  0
 17 16  2  0
 18 17  1  0
 19 10  1  0
 19 14  1  0
 19 18  2  0
 20  9  1  0
 21  6  1  0
 21 20  1  0
 22  2  1  0
 23 22  1  0
 24 23  2  0
 25 24  1  0
 26 25  1  0
 27 25  2  0
 28 22  2  0
 28 27  1  0
 29  3  1  0
 30  3  1  0
 31  4  1  0
 32  4  1  0
 33  5  1  0
 34  5  1  0
 35  7  1  0
 36  7  1  0
 37  8  1  0
 38 13  1  0
 39 15  1  0
 40 16  1  0
 41 17  1  0
 42 18  1  0
 43 20  1  0
 44 20  1  0
 45 21  1  0
 46 21  1  0
 47 23  1  0
 48 24  1  0
 49 27  1  0
 50 28  1  0
M  END
>  <b_m_subgroup_collapsed>  (322) 
0

>  <r_i_docking_score>  (322) 
-8.2481732558729597

>  <s_m_subgroup_title>  (322) 
glide-dock_SP_D22_pv

>  <s_m_subgroupid>  (322) 
glide-dock_SP_D22_pv

>  <Molecule ChEMBL ID>  (322) 
CHEMBL1108

>  <Standard Type>  (322) 
Ki

>  <Standard Value>  (322) 
0.802

>  <label>  (322) 
1

$$$$
CHEMBL5398100
     RDKit          3D

 71 75  0  0  1  0  0  0  0  0999 V2000
   10.8860    5.7724   -7.9691 O   0  0  0  0  0  0  0  0  0  0  0  0
   10.0490    6.6310   -7.7588 C   0  0  0  0  0  0  0  0  0  0  0  0
    9.0784    6.9022   -8.6369 N   0  0  0  0  0  0  0  0  0  0  0  0
    9.0545    6.4394  -10.0213 C   0  0  1  0  0  0  0  0  0  0  0  0
   10.0843    7.1856  -10.8820 C   0  0  0  0  0  0  0  0  0  0  0  0
    9.8591    6.8432  -12.3568 C   0  0  0  0  0  0  0  0  0  0  0  0
    9.9294    5.3229  -12.5830 C   0  0  2  0  0  0  0  0  0  0  0  0
   10.0354    4.8784  -14.0463 C   0  0  0  0  0  0  0  0  0  0  0  0
    8.7012    4.6433  -14.7278 C   0  0  0  0  0  0  0  0  0  0  0  0
    8.0630    3.3865  -14.2547 N   0  0  0  0  0  0  0  0  0  0  0  0
    6.5801    3.4779  -14.1041 C   0  0  0  0  0  0  0  0  0  0  0  0
    5.9624    2.1749  -13.5767 C   0  0  0  0  0  0  0  0  0  0  0  0
    6.5050    1.0200  -14.2896 N   0  0  0  0  0  0  0  0  0  0  0  0
    5.6093    0.1723  -14.9681 C   0  0  0  0  0  0  0  0  0  0  0  0
    4.4674   -0.2376  -14.2462 C   0  0  0  0  0  0  0  0  0  0  0  0
    3.4794   -1.0272  -14.8439 C   0  0  0  0  0  0  0  0  0  0  0  0
    3.6294   -1.4285  -16.1785 C   0  0  0  0  0  0  0  0  0  0  0  0
    4.7489   -1.0348  -16.9235 C   0  0  0  0  0  0  0  0  0  0  0  0
    4.8561   -1.5252  -18.5773 Cl  0  0  0  0  0  0  0  0  0  0  0  0
    5.7443   -0.2270  -16.3326 C   0  0  0  0  0  0  0  0  0  0  0  0
    7.0364    0.3202  -17.3490 Cl  0  0  0  0  0  0  0  0  0  0  0  0
    7.9480    0.8998  -14.4279 C   0  0  0  0  0  0  0  0  0  0  0  0
    8.5252    2.1964  -15.0135 C   0  0  0  0  0  0  0  0  0  0  0  0
    8.9411    4.5579  -11.6822 C   0  0  0  0  0  0  0  0  0  0  0  0
    9.1314    4.9104  -10.2046 C   0  0  0  0  0  0  0  0  0  0  0  0
    9.9748    7.2707   -6.5823 N   0  0  0  0  0  0  0  0  0  0  0  0
    9.6477    8.6980   -6.4728 C   0  0  0  0  0  0  0  0  0  0  0  0
   10.8098    9.5123   -5.8683 C   0  0  0  0  0  0  0  0  0  0  0  0
   11.3906    8.8661   -4.6261 C   0  0  0  0  0  0  0  0  0  0  0  0
   11.9559    9.6812   -3.7130 N   0  0  0  0  0  0  0  0  0  0  0  0
   12.4659    9.1164   -2.5965 C   0  0  0  0  0  0  0  0  0  0  0  0
   12.4611    7.7363   -2.3458 C   0  0  0  0  0  0  0  0  0  0  0  0
   11.8600    6.8965   -3.2909 C   0  0  0  0  0  0  0  0  0  0  0  0
   11.2948    7.4742   -4.4423 C   0  0  0  0  0  0  0  0  0  0  0  0
   10.5173    6.6012   -5.3903 C   0  0  0  0  0  0  0  0  0  0  0  0
    8.3068    7.4898   -8.3478 H   0  0  0  0  0  0  0  0  0  0  0  0
    8.0860    6.7081  -10.4103 H   0  0  0  0  0  0  0  0  0  0  0  0
    9.9805    8.2627  -10.7418 H   0  0  0  0  0  0  0  0  0  0  0  0
   11.1006    6.9288  -10.5812 H   0  0  0  0  0  0  0  0  0  0  0  0
    8.8806    7.2232  -12.6480 H   0  0  0  0  0  0  0  0  0  0  0  0
   10.6132    7.3542  -12.9571 H   0  0  0  0  0  0  0  0  0  0  0  0
   10.8861    5.0170  -12.2469 H   0  0  0  0  0  0  0  0  0  0  0  0
   10.5955    5.6293  -14.6060 H   0  0  0  0  0  0  0  0  0  0  0  0
   10.6416    3.9740  -14.1098 H   0  0  0  0  0  0  0  0  0  0  0  0
    8.0860    5.5172  -14.5377 H   0  0  0  0  0  0  0  0  0  0  0  0
    8.8860    4.6037  -15.8031 H   0  0  0  0  0  0  0  0  0  0  0  0
    6.3155    4.2968  -13.4354 H   0  0  0  0  0  0  0  0  0  0  0  0
    6.0952    3.7111  -15.0469 H   0  0  0  0  0  0  0  0  0  0  0  0
    6.0866    2.0595  -12.5010 H   0  0  0  0  0  0  0  0  0  0  0  0
    4.8866    2.2467  -13.7196 H   0  0  0  0  0  0  0  0  0  0  0  0
    4.3349    0.0658  -13.2189 H   0  0  0  0  0  0  0  0  0  0  0  0
    2.6101   -1.3106  -14.2730 H   0  0  0  0  0  0  0  0  0  0  0  0
    2.8862   -2.0573  -16.6398 H   0  0  0  0  0  0  0  0  0  0  0  0
    8.3799    0.7143  -13.4468 H   0  0  0  0  0  0  0  0  0  0  0  0
    8.2264    0.0343  -15.0287 H   0  0  0  0  0  0  0  0  0  0  0  0
    8.2299    2.3194  -16.0541 H   0  0  0  0  0  0  0  0  0  0  0  0
    9.6139    2.1364  -15.0053 H   0  0  0  0  0  0  0  0  0  0  0  0
    7.9151    4.8005  -11.9518 H   0  0  0  0  0  0  0  0  0  0  0  0
    9.0881    3.4879  -11.8197 H   0  0  0  0  0  0  0  0  0  0  0  0
   10.0859    4.5047   -9.8756 H   0  0  0  0  0  0  0  0  0  0  0  0
    8.3616    4.4237   -9.6035 H   0  0  0  0  0  0  0  0  0  0  0  0
    9.3706    9.1428   -7.4303 H   0  0  0  0  0  0  0  0  0  0  0  0
    8.7605    8.7671   -5.8526 H   0  0  0  0  0  0  0  0  0  0  0  0
   10.4861   10.5282   -5.6387 H   0  0  0  0  0  0  0  0  0  0  0  0
   11.6134    9.6018   -6.6003 H   0  0  0  0  0  0  0  0  0  0  0  0
   12.8856    9.7722   -1.8571 H   0  0  0  0  0  0  0  0  0  0  0  0
   12.8856    7.3338   -1.4411 H   0  0  0  0  0  0  0  0  0  0  0  0
   11.8008    5.8322   -3.1161 H   0  0  0  0  0  0  0  0  0  0  0  0
   11.1847    5.7724   -5.6244 H   0  0  0  0  0  0  0  0  0  0  0  0
    9.6843    6.1724   -4.8380 H   0  0  0  0  0  0  0  0  0  0  0  0
    8.4018    3.2525  -13.3127 H   0  0  0  0  0  0  0  0  0  0  0  0
  2  1  2  0
  3  2  1  0
  4  3  1  0
  5  4  1  0
  6  5  1  0
  7  6  1  0
  8  7  1  0
  9  8  1  0
 10  9  1  0
 11 10  1  0
 12 11  1  0
 13 12  1  0
 14 13  1  0
 15 14  2  0
 16 15  1  0
 17 16  2  0
 18 17  1  0
 19 18  1  0
 20 14  1  0
 20 18  2  0
 21 20  1  0
 22 13  1  0
 23 10  1  0
 23 22  1  0
 24  7  1  0
 25  4  1  0
 25 24  1  0
 26  2  1  0
 27 26  1  0
 28 27  1  0
 29 28  1  0
 30 29  1  0
 31 30  2  0
 32 31  1  0
 33 32  2  0
 34 29  2  0
 34 33  1  0
 35 26  1  0
 35 34  1  0
 36  3  1  0
  4 37  1  6
 38  5  1  0
 39  5  1  0
 40  6  1  0
 41  6  1  0
  7 42  1  1
 43  8  1  0
 44  8  1  0
 45  9  1  0
 46  9  1  0
 47 11  1  0
 48 11  1  0
 49 12  1  0
 50 12  1  0
 51 15  1  0
 52 16  1  0
 53 17  1  0
 54 22  1  0
 55 22  1  0
 56 23  1  0
 57 23  1  0
 58 24  1  0
 59 24  1  0
 60 25  1  0
 61 25  1  0
 62 27  1  0
 63 27  1  0
 64 28  1  0
 65 28  1  0
 66 31  1  0
 67 32  1  0
 68 33  1  0
 69 35  1  0
 70 35  1  0
 71 10  1  0
M  CHG  1  10   1
M  END
>  <b_m_subgroup_collapsed>  (323) 
0

>  <r_i_docking_score>  (323) 
-8.2474864433699597

>  <s_m_subgroup_title>  (323) 
glide-dock_SP_D22_pv

>  <s_m_subgroupid>  (323) 
glide-dock_SP_D22_pv

>  <Molecule ChEMBL ID>  (323) 
CHEMBL5398100

>  <Standard Type>  (323) 
Ki

>  <Standard Value>  (323) 
1.86

>  <label>  (323) 
1

$$$$
CHEMBL4071185
     RDKit          3D

 63 66  0  0  1  0  0  0  0  0999 V2000
    9.4199    4.7186   -9.4560 C   0  0  0  0  0  0  0  0  0  0  0  0
    8.6650    6.0398   -9.5807 C   0  0  0  0  0  0  0  0  0  0  0  0
    8.9975    7.0759   -8.5102 C   0  0  0  0  0  0  0  0  0  0  0  0
   10.4459    7.4014   -8.4905 N   0  0  1  0  0  0  0  0  0  0  0  0
   10.8952    8.2610   -9.6203 C   0  0  0  0  0  0  0  0  0  0  0  0
   12.3798    8.0097   -9.9435 C   0  0  0  0  0  0  0  0  0  0  0  0
   12.8116    8.3827  -11.3493 C   0  0  0  0  0  0  0  0  0  0  0  0
   12.3777    7.3727  -12.4542 C   0  0  0  0  0  0  0  0  0  0  0  0
   10.9689    7.1465  -12.5141 O   0  0  0  0  0  0  0  0  0  0  0  0
   10.4766    5.9642  -13.0470 C   0  0  0  0  0  0  0  0  0  0  0  0
    9.0678    5.7729  -12.9944 C   0  0  0  0  0  0  0  0  0  0  0  0
    8.4616    4.6270  -13.4468 C   0  0  0  0  0  0  0  0  0  0  0  0
    9.2578    3.6129  -14.0309 C   0  0  0  0  0  0  0  0  0  0  0  0
    9.0550    2.3720  -14.5776 C   0  0  0  0  0  0  0  0  0  0  0  0
    7.7799    1.6839  -14.6634 C   0  0  0  0  0  0  0  0  0  0  0  0
    6.7008    2.1020  -14.2469 O   0  0  0  0  0  0  0  0  0  0  0  0
   10.3351    1.9437  -14.9954 C   0  0  0  0  0  0  0  0  0  0  0  0
   11.2860    2.8156  -14.7461 N   0  0  0  0  0  0  0  0  0  0  0  0
   10.6437    3.8568  -14.1277 N   0  0  0  0  0  0  0  0  0  0  0  0
   11.2463    4.9881  -13.6578 C   0  0  0  0  0  0  0  0  0  0  0  0
   10.9150    7.9178   -7.1874 C   0  0  1  0  0  0  0  0  0  0  0  0
   10.0419    9.0586   -6.6565 C   0  0  0  0  0  0  0  0  0  0  0  0
   10.7710    9.7585   -5.5201 C   0  0  0  0  0  0  0  0  0  0  0  0
   11.3749    8.7779   -4.5223 C   0  0  0  0  0  0  0  0  0  0  0  0
   11.8236    9.2591   -3.2868 C   0  0  0  0  0  0  0  0  0  0  0  0
   11.6860   10.5723   -3.0468 O   0  0  0  0  0  0  0  0  0  0  0  0
   12.3869    8.4158   -2.3144 C   0  0  0  0  0  0  0  0  0  0  0  0
   12.4858    7.0439   -2.5840 C   0  0  0  0  0  0  0  0  0  0  0  0
   12.0419    6.5538   -3.8202 C   0  0  0  0  0  0  0  0  0  0  0  0
   11.5014    7.4004   -4.7991 C   0  0  0  0  0  0  0  0  0  0  0  0
   11.0669    6.8172   -6.1290 C   0  0  0  0  0  0  0  0  0  0  0  0
    9.3011    4.1722  -10.3884 H   0  0  0  0  0  0  0  0  0  0  0  0
   10.4861    4.8621   -9.3037 H   0  0  0  0  0  0  0  0  0  0  0  0
    9.0346    4.1093   -8.6377 H   0  0  0  0  0  0  0  0  0  0  0  0
    7.6030    5.8210   -9.5717 H   0  0  0  0  0  0  0  0  0  0  0  0
    8.8556    6.4823  -10.5460 H   0  0  0  0  0  0  0  0  0  0  0  0
    8.6541    6.6884   -7.5512 H   0  0  0  0  0  0  0  0  0  0  0  0
    8.4534    8.0007   -8.6869 H   0  0  0  0  0  0  0  0  0  0  0  0
   10.2803    8.0711  -10.4919 H   0  0  0  0  0  0  0  0  0  0  0  0
   10.7353    9.3180   -9.4072 H   0  0  0  0  0  0  0  0  0  0  0  0
   13.0134    8.5371   -9.2296 H   0  0  0  0  0  0  0  0  0  0  0  0
   12.6034    6.9724   -9.8469 H   0  0  0  0  0  0  0  0  0  0  0  0
   12.4861    9.4042  -11.4468 H   0  0  0  0  0  0  0  0  0  0  0  0
   13.8991    8.4529  -11.3771 H   0  0  0  0  0  0  0  0  0  0  0  0
   12.7245    7.7136  -13.4303 H   0  0  0  0  0  0  0  0  0  0  0  0
   12.8860    6.4378  -12.2467 H   0  0  0  0  0  0  0  0  0  0  0  0
    8.4354    6.5583  -12.5928 H   0  0  0  0  0  0  0  0  0  0  0  0
    7.3873    4.4956  -13.3699 H   0  0  0  0  0  0  0  0  0  0  0  0
    7.8530    0.7105  -15.1484 H   0  0  0  0  0  0  0  0  0  0  0  0
   10.5882    1.0070  -15.4714 H   0  0  0  0  0  0  0  0  0  0  0  0
   12.3198    5.0442  -13.7998 H   0  0  0  0  0  0  0  0  0  0  0  0
   11.9180    8.3195   -7.3338 H   0  0  0  0  0  0  0  0  0  0  0  0
    9.0946    8.6661   -6.2821 H   0  0  0  0  0  0  0  0  0  0  0  0
    9.7914    9.7723   -7.4378 H   0  0  0  0  0  0  0  0  0  0  0  0
   10.0861   10.4398   -5.0154 H   0  0  0  0  0  0  0  0  0  0  0  0
   11.5801   10.3716   -5.9202 H   0  0  0  0  0  0  0  0  0  0  0  0
   12.2206   10.8791   -2.3253 H   0  0  0  0  0  0  0  0  0  0  0  0
   12.7186    8.8109   -1.3651 H   0  0  0  0  0  0  0  0  0  0  0  0
   12.8861    6.3642   -1.8463 H   0  0  0  0  0  0  0  0  0  0  0  0
   12.1223    5.5014   -4.0265 H   0  0  0  0  0  0  0  0  0  0  0  0
   11.7977    6.0761   -6.4565 H   0  0  0  0  0  0  0  0  0  0  0  0
   10.1304    6.2855   -5.9607 H   0  0  0  0  0  0  0  0  0  0  0  0
   10.9076    6.5136   -8.6243 H   0  0  0  0  0  0  0  0  0  0  0  0
  2  1  1  0
  3  2  1  0
  4  3  1  0
  5  4  1  0
  6  5  1  0
  7  6  1  0
  8  7  1  0
  9  8  1  0
 10  9  1  0
 11 10  1  0
 12 11  2  0
 13 12  1  0
 14 13  2  0
 15 14  1  0
 16 15  2  0
 17 14  1  0
 18 17  2  0
 19 13  1  0
 19 18  1  0
 20 10  2  0
 20 19  1  0
 21  4  1  0
 22 21  1  0
 23 22  1  0
 24 23  1  0
 25 24  2  0
 26 25  1  0
 27 25  1  0
 28 27  2  0
 29 28  1  0
 30 24  1  0
 30 29  2  0
 31 21  1  0
 31 30  1  0
 32  1  1  0
 33  1  1  0
 34  1  1  0
 35  2  1  0
 36  2  1  0
 37  3  1  0
 38  3  1  0
 39  5  1  0
 40  5  1  0
 41  6  1  0
 42  6  1  0
 43  7  1  0
 44  7  1  0
 45  8  1  0
 46  8  1  0
 47 11  1  0
 48 12  1  0
 49 15  1  0
 50 17  1  0
 51 20  1  0
 21 52  1  6
 53 22  1  0
 54 22  1  0
 55 23  1  0
 56 23  1  0
 57 26  1  0
 58 27  1  0
 59 28  1  0
 60 29  1  0
 61 31  1  0
 62 31  1  0
  4 63  1  6
M  CHG  1   4   1
M  END
>  <b_m_subgroup_collapsed>  (324) 
0

>  <r_i_docking_score>  (324) 
-8.2467289910350505

>  <s_m_subgroup_title>  (324) 
glide-dock_SP_D22_pv

>  <s_m_subgroupid>  (324) 
glide-dock_SP_D22_pv

>  <Molecule ChEMBL ID>  (324) 
CHEMBL4071185

>  <Standard Type>  (324) 
Ki

>  <Standard Value>  (324) 
0.94

>  <label>  (324) 
1

$$$$
CHEMBL281195
     RDKit          3D

 51 54  0  0  1  0  0  0  0  0999 V2000
    9.2095    6.7891   -6.4328 C   0  0  0  0  0  0  0  0  0  0  0  0
   10.3468    7.5744   -7.0172 C   0  0  0  0  0  0  0  0  0  0  0  0
   10.7438    7.7515   -8.3830 C   0  0  0  0  0  0  0  0  0  0  0  0
   10.2135    7.1416   -9.6595 C   0  0  1  0  0  0  0  0  0  0  0  0
    9.1995    5.9983   -9.4447 C   0  0  0  0  0  0  0  0  0  0  0  0
    8.6615    5.4478  -10.7665 C   0  0  0  0  0  0  0  0  0  0  0  0
    8.0861    6.5498  -11.5727 N   0  0  2  0  0  0  0  0  0  0  0  0
    7.2835    6.1305  -12.7428 C   0  0  0  0  0  0  0  0  0  0  0  0
    7.7762    4.8834  -13.4689 C   0  0  0  0  0  0  0  0  0  0  0  0
    9.0086    4.8882  -14.1598 C   0  0  0  0  0  0  0  0  0  0  0  0
    9.4341    3.7448  -14.8649 C   0  0  0  0  0  0  0  0  0  0  0  0
    8.6180    2.5981  -14.9097 C   0  0  0  0  0  0  0  0  0  0  0  0
    7.3764    2.5966  -14.2467 C   0  0  0  0  0  0  0  0  0  0  0  0
    6.9635    3.7296  -13.5154 C   0  0  0  0  0  0  0  0  0  0  0  0
    9.0724    7.6177  -11.8649 C   0  0  0  0  0  0  0  0  0  0  0  0
    9.5996    8.2225  -10.5607 C   0  0  0  0  0  0  0  0  0  0  0  0
   11.7833    8.5700   -8.4967 N   0  0  0  0  0  0  0  0  0  0  0  0
   12.0859    8.9145   -7.2366 N   0  0  0  0  0  0  0  0  0  0  0  0
   11.2859    8.2782   -6.3214 C   0  0  0  0  0  0  0  0  0  0  0  0
   11.5663    8.3439   -4.8994 C   0  0  0  0  0  0  0  0  0  0  0  0
   11.6862    9.5826   -4.2469 C   0  0  0  0  0  0  0  0  0  0  0  0
   12.0174    9.6274   -2.8815 C   0  0  0  0  0  0  0  0  0  0  0  0
   12.2254    8.4391   -2.1576 C   0  0  0  0  0  0  0  0  0  0  0  0
   12.0860    7.1946   -2.7987 C   0  0  0  0  0  0  0  0  0  0  0  0
   11.7528    7.1516   -4.1653 C   0  0  0  0  0  0  0  0  0  0  0  0
    9.1779    5.7723   -6.8028 H   0  0  0  0  0  0  0  0  0  0  0  0
    9.2859    6.7007   -5.3539 H   0  0  0  0  0  0  0  0  0  0  0  0
    8.2461    7.2522   -6.6475 H   0  0  0  0  0  0  0  0  0  0  0  0
   11.0612    6.7115  -10.1954 H   0  0  0  0  0  0  0  0  0  0  0  0
    9.6609    5.1844   -8.8846 H   0  0  0  0  0  0  0  0  0  0  0  0
    8.3439    6.3558   -8.8720 H   0  0  0  0  0  0  0  0  0  0  0  0
    7.8945    4.6992  -10.5623 H   0  0  0  0  0  0  0  0  0  0  0  0
    9.4629    4.9499  -11.3143 H   0  0  0  0  0  0  0  0  0  0  0  0
    6.2649    5.9619  -12.3908 H   0  0  0  0  0  0  0  0  0  0  0  0
    7.2329    6.9582  -13.4468 H   0  0  0  0  0  0  0  0  0  0  0  0
    9.6330    5.7691  -14.1641 H   0  0  0  0  0  0  0  0  0  0  0  0
   10.3810    3.7531  -15.3852 H   0  0  0  0  0  0  0  0  0  0  0  0
    8.9420    1.7235  -15.4565 H   0  0  0  0  0  0  0  0  0  0  0  0
    6.7441    1.7214  -14.2849 H   0  0  0  0  0  0  0  0  0  0  0  0
    6.0105    3.7111  -13.0061 H   0  0  0  0  0  0  0  0  0  0  0  0
    8.6113    8.4126  -12.4530 H   0  0  0  0  0  0  0  0  0  0  0  0
    9.8987    7.2183  -12.4526 H   0  0  0  0  0  0  0  0  0  0  0  0
    8.7977    8.7412  -10.0323 H   0  0  0  0  0  0  0  0  0  0  0  0
   10.3511    8.9728  -10.7993 H   0  0  0  0  0  0  0  0  0  0  0  0
   12.8939    9.4838   -7.0185 H   0  0  0  0  0  0  0  0  0  0  0  0
   11.5274   10.5009   -4.7934 H   0  0  0  0  0  0  0  0  0  0  0  0
   12.0856   10.5795   -2.3794 H   0  0  0  0  0  0  0  0  0  0  0  0
   12.4677    8.4876   -1.1052 H   0  0  0  0  0  0  0  0  0  0  0  0
   12.2297    6.2750   -2.2497 H   0  0  0  0  0  0  0  0  0  0  0  0
   11.6603    6.1932   -4.6563 H   0  0  0  0  0  0  0  0  0  0  0  0
    7.4020    7.0175  -10.9588 H   0  0  0  0  0  0  0  0  0  0  0  0
  2  1  1  0
  3  2  1  0
  4  3  1  0
  5  4  1  0
  6  5  1  0
  7  6  1  0
  8  7  1  0
  9  8  1  0
 10  9  2  0
 11 10  1  0
 12 11  2  0
 13 12  1  0
 14  9  1  0
 14 13  2  0
 15  7  1  0
 16  4  1  0
 16 15  1  0
 17  3  2  0
 18 17  1  0
 19  2  2  0
 19 18  1  0
 20 19  1  0
 21 20  2  0
 22 21  1  0
 23 22  2  0
 24 23  1  0
 25 20  1  0
 25 24  2  0
 26  1  1  0
 27  1  1  0
 28  1  1  0
  4 29  1  6
 30  5  1  0
 31  5  1  0
 32  6  1  0
 33  6  1  0
 34  8  1  0
 35  8  1  0
 36 10  1  0
 37 11  1  0
 38 12  1  0
 39 13  1  0
 40 14  1  0
 41 15  1  0
 42 15  1  0
 43 16  1  0
 44 16  1  0
 45 18  1  0
 46 21  1  0
 47 22  1  0
 48 23  1  0
 49 24  1  0
 50 25  1  0
  7 51  1  1
M  CHG  1   7   1
M  END
>  <b_m_subgroup_collapsed>  (325) 
0

>  <r_i_docking_score>  (325) 
-8.2426383977279496

>  <s_m_subgroup_title>  (325) 
glide-dock_SP_D22_pv

>  <s_m_subgroupid>  (325) 
glide-dock_SP_D22_pv

>  <Molecule ChEMBL ID>  (325) 
CHEMBL281195

>  <Standard Type>  (325) 
Ki

>  <Standard Value>  (325) 
90.0

>  <label>  (325) 
1

$$$$
CHEMBL127234
     RDKit          3D

 65 68  0  0  1  0  0  0  0  0999 V2000
   11.7639   11.0581   -6.1441 C   0  0  0  0  0  0  0  0  0  0  0  0
   11.1494    9.7960   -6.2720 O   0  0  0  0  0  0  0  0  0  0  0  0
   11.3951    8.8812   -5.2712 C   0  0  0  0  0  0  0  0  0  0  0  0
   12.1239    9.1852   -4.0894 C   0  0  0  0  0  0  0  0  0  0  0  0
   12.4253    8.1986   -3.1373 C   0  0  0  0  0  0  0  0  0  0  0  0
   12.0184    6.8780   -3.3632 C   0  0  0  0  0  0  0  0  0  0  0  0
   11.2844    6.5723   -4.5205 C   0  0  0  0  0  0  0  0  0  0  0  0
   10.9299    7.5607   -5.4619 C   0  0  0  0  0  0  0  0  0  0  0  0
   10.1356    7.2084   -6.5698 N   0  0  0  0  0  0  0  0  0  0  0  0
   10.6533    6.2450   -7.5242 C   0  0  0  0  0  0  0  0  0  0  0  0
   10.7890    6.9100   -8.9018 C   0  0  0  0  0  0  0  0  0  0  0  0
    9.4956    7.5014   -9.3382 N   0  0  0  0  0  0  0  0  0  0  0  0
    9.4969    8.0132  -10.7342 C   0  0  0  0  0  0  0  0  0  0  0  0
   10.1343    7.0939  -11.7767 C   0  0  0  0  0  0  0  0  0  0  0  0
   11.4656    7.3723  -12.1616 C   0  0  0  0  0  0  0  0  0  0  0  0
   12.0862    6.6656  -13.2038 C   0  0  0  0  0  0  0  0  0  0  0  0
   11.3951    5.6298  -13.8457 C   0  0  0  0  0  0  0  0  0  0  0  0
   10.0862    5.3102  -13.4447 C   0  0  0  0  0  0  0  0  0  0  0  0
    9.4355    6.0261  -12.4043 C   0  0  0  0  0  0  0  0  0  0  0  0
    8.0012    5.6594  -12.0015 C   0  0  0  0  0  0  0  0  0  0  0  0
    7.5977    4.3640  -12.5394 N   0  0  0  0  0  0  0  0  0  0  0  0
    6.3568    3.8865  -12.6785 C   0  0  0  0  0  0  0  0  0  0  0  0
    5.3574    4.4508  -12.2476 O   0  0  0  0  0  0  0  0  0  0  0  0
    6.3698    2.6630  -13.4565 C   0  0  0  0  0  0  0  0  0  0  0  0
    5.3413    1.7901  -13.4209 C   0  0  0  0  0  0  0  0  0  0  0  0
    5.2285    0.5714  -14.2448 C   0  0  0  0  0  0  0  0  0  0  0  0
    4.0131   -0.1493  -14.2357 C   0  0  0  0  0  0  0  0  0  0  0  0
    3.8141   -1.2278  -15.1163 C   0  0  0  0  0  0  0  0  0  0  0  0
    4.8191   -1.5994  -16.0235 C   0  0  0  0  0  0  0  0  0  0  0  0
    6.0300   -0.8880  -16.0433 C   0  0  0  0  0  0  0  0  0  0  0  0
    6.2438    0.1738  -15.1470 C   0  0  0  0  0  0  0  0  0  0  0  0
    9.0428    8.5331   -8.3684 C   0  0  0  0  0  0  0  0  0  0  0  0
    8.9389    7.9626   -6.9405 C   0  0  0  0  0  0  0  0  0  0  0  0
   11.6698   11.6569   -7.0458 H   0  0  0  0  0  0  0  0  0  0  0  0
   11.2864   11.5859   -5.3177 H   0  0  0  0  0  0  0  0  0  0  0  0
   12.8340   10.9595   -5.9670 H   0  0  0  0  0  0  0  0  0  0  0  0
   12.4862   10.1722   -3.8793 H   0  0  0  0  0  0  0  0  0  0  0  0
   12.9785    8.4566   -2.2470 H   0  0  0  0  0  0  0  0  0  0  0  0
   12.2433    6.1047   -2.6428 H   0  0  0  0  0  0  0  0  0  0  0  0
   10.9273    5.5686   -4.6473 H   0  0  0  0  0  0  0  0  0  0  0  0
    9.9592    5.4083   -7.5775 H   0  0  0  0  0  0  0  0  0  0  0  0
   11.6152    5.8478   -7.1959 H   0  0  0  0  0  0  0  0  0  0  0  0
   11.1318    6.1714   -9.6147 H   0  0  0  0  0  0  0  0  0  0  0  0
   11.5539    7.6874   -8.8712 H   0  0  0  0  0  0  0  0  0  0  0  0
   10.0330    8.9612  -10.7485 H   0  0  0  0  0  0  0  0  0  0  0  0
    8.4858    8.2554  -11.0466 H   0  0  0  0  0  0  0  0  0  0  0  0
   12.0139    8.1723  -11.6851 H   0  0  0  0  0  0  0  0  0  0  0  0
   13.0869    6.9282  -13.5155 H   0  0  0  0  0  0  0  0  0  0  0  0
   11.8660    5.0823  -14.6503 H   0  0  0  0  0  0  0  0  0  0  0  0
    9.5935    4.5124  -13.9801 H   0  0  0  0  0  0  0  0  0  0  0  0
    7.3220    6.4374  -12.3584 H   0  0  0  0  0  0  0  0  0  0  0  0
    7.9108    5.6293  -10.9128 H   0  0  0  0  0  0  0  0  0  0  0  0
    8.3452    3.7926  -12.9046 H   0  0  0  0  0  0  0  0  0  0  0  0
    7.2204    2.4758  -14.0953 H   0  0  0  0  0  0  0  0  0  0  0  0
    4.5108    1.9900  -12.7544 H   0  0  0  0  0  0  0  0  0  0  0  0
    3.2066    0.1453  -13.5803 H   0  0  0  0  0  0  0  0  0  0  0  0
    2.8873   -1.7752  -15.1139 H   0  0  0  0  0  0  0  0  0  0  0  0
    4.6572   -2.4271  -16.7003 H   0  0  0  0  0  0  0  0  0  0  0  0
    6.8066   -1.1677  -16.7397 H   0  0  0  0  0  0  0  0  0  0  0  0
    7.1858    0.6951  -15.2007 H   0  0  0  0  0  0  0  0  0  0  0  0
    9.7549    9.3581   -8.3792 H   0  0  0  0  0  0  0  0  0  0  0  0
    8.0864    8.9653   -8.6657 H   0  0  0  0  0  0  0  0  0  0  0  0
    8.0862    7.2861   -6.8748 H   0  0  0  0  0  0  0  0  0  0  0  0
    8.7400    8.7765   -6.2468 H   0  0  0  0  0  0  0  0  0  0  0  0
    8.7991    6.7686   -9.3062 H   0  0  0  0  0  0  0  0  0  0  0  0
  2  1  1  0
  3  2  1  0
  4  3  2  0
  5  4  1  0
  6  5  2  0
  7  6  1  0
  8  3  1  0
  8  7  2  0
  9  8  1  0
 10  9  1  0
 11 10  1  0
 12 11  1  0
 13 12  1  0
 14 13  1  0
 15 14  2  0
 16 15  1  0
 17 16  2  0
 18 17  1  0
 19 14  1  0
 19 18  2  0
 20 19  1  0
 21 20  1  0
 22 21  1  0
 23 22  2  0
 24 22  1  0
 25 24  2  0
 26 25  1  0
 27 26  2  0
 28 27  1  0
 29 28  2  0
 30 29  1  0
 31 26  1  0
 31 30  2  0
 32 12  1  0
 33  9  1  0
 33 32  1  0
 34  1  1  0
 35  1  1  0
 36  1  1  0
 37  4  1  0
 38  5  1  0
 39  6  1  0
 40  7  1  0
 41 10  1  0
 42 10  1  0
 43 11  1  0
 44 11  1  0
 45 13  1  0
 46 13  1  0
 47 15  1  0
 48 16  1  0
 49 17  1  0
 50 18  1  0
 51 20  1  0
 52 20  1  0
 53 21  1  0
 54 24  1  0
 55 25  1  0
 56 27  1  0
 57 28  1  0
 58 29  1  0
 59 30  1  0
 60 31  1  0
 61 32  1  0
 62 32  1  0
 63 33  1  0
 64 33  1  0
 65 12  1  0
M  CHG  1  12   1
M  END
>  <b_m_subgroup_collapsed>  (326) 
0

>  <r_i_docking_score>  (326) 
-8.2374722837627505

>  <s_m_subgroup_title>  (326) 
glide-dock_SP_D22_pv

>  <s_m_subgroupid>  (326) 
glide-dock_SP_D22_pv

>  <Molecule ChEMBL ID>  (326) 
CHEMBL127234

>  <Standard Type>  (326) 
Ki

>  <Standard Value>  (326) 
18.0

>  <label>  (326) 
1

$$$$
CHEMBL3676910
     RDKit          3D

 79 84  0  0  1  0  0  0  0  0999 V2000
    9.3973    8.7042  -11.0805 O   0  0  0  0  0  0  0  0  0  0  0  0
    9.7988    7.7372  -10.4399 C   0  0  0  0  0  0  0  0  0  0  0  0
   10.0860    6.5526  -10.9958 N   0  0  0  0  0  0  0  0  0  0  0  0
   10.1993    6.3285  -12.4347 C   0  0  1  0  0  0  0  0  0  0  0  0
   11.6218    6.7025  -12.9238 C   0  0  0  0  0  0  0  0  0  0  0  0
   11.8771    6.3244  -14.3887 C   0  0  0  0  0  0  0  0  0  0  0  0
   11.5716    4.8406  -14.6728 C   0  0  2  0  0  0  0  0  0  0  0  0
   11.8620    4.5316  -16.1597 C   0  0  0  0  0  0  0  0  0  0  0  0
   11.9752    3.0384  -16.5443 C   0  0  0  0  0  0  0  0  0  0  0  0
   10.6926    2.2900  -16.4924 N   0  0  2  0  0  0  0  0  0  0  0  0
   10.8886    0.8174  -16.5362 C   0  0  0  0  0  0  0  0  0  0  0  0
    9.5612    0.0817  -16.2638 C   0  0  0  0  0  0  0  0  0  0  0  0
    8.4901    0.5056  -17.2879 C   0  0  1  0  0  0  0  0  0  0  0  0
    7.1604   -0.1694  -17.0838 C   0  0  0  0  0  0  0  0  0  0  0  0
    6.5326   -0.9831  -18.0004 C   0  0  0  0  0  0  0  0  0  0  0  0
    5.3121   -1.4205  -17.5667 O   0  0  0  0  0  0  0  0  0  0  0  0
    5.1240   -0.8815  -16.3151 C   0  0  0  0  0  0  0  0  0  0  0  0
    3.9949   -1.0277  -15.4910 C   0  0  0  0  0  0  0  0  0  0  0  0
    3.9786   -0.3710  -14.2470 C   0  0  0  0  0  0  0  0  0  0  0  0
    5.0983    0.3928  -13.8452 C   0  0  0  0  0  0  0  0  0  0  0  0
    6.2255    0.5232  -14.6889 C   0  0  0  0  0  0  0  0  0  0  0  0
    6.2576   -0.1021  -15.9601 C   0  0  0  0  0  0  0  0  0  0  0  0
    8.3472    2.0360  -17.2815 C   0  0  0  0  0  0  0  0  0  0  0  0
    9.6983    2.7300  -17.5030 C   0  0  0  0  0  0  0  0  0  0  0  0
   10.1207    4.5258  -14.2396 C   0  0  0  0  0  0  0  0  0  0  0  0
    9.8766    4.8615  -12.7600 C   0  0  0  0  0  0  0  0  0  0  0  0
   10.1499    7.8665   -8.9902 C   0  0  0  0  0  0  0  0  0  0  0  0
   10.8963    8.9719   -8.5443 C   0  0  0  0  0  0  0  0  0  0  0  0
   11.2773    9.0412   -7.1919 C   0  0  0  0  0  0  0  0  0  0  0  0
   10.8858    8.0030   -6.3089 C   0  0  0  0  0  0  0  0  0  0  0  0
   11.2859    7.9824   -4.9530 N   0  0  0  0  0  0  0  0  0  0  0  0
   12.1243    9.0711   -4.4584 C   0  0  0  0  0  0  0  0  0  0  0  0
   12.2399    9.0186   -2.9279 C   0  0  0  0  0  0  0  0  0  0  0  0
   12.7295    7.7488   -2.5358 O   0  0  0  0  0  0  0  0  0  0  0  0
   11.8242    6.7106   -2.8745 C   0  0  0  0  0  0  0  0  0  0  0  0
   11.6010    6.6615   -4.3976 C   0  0  0  0  0  0  0  0  0  0  0  0
   10.1223    6.9712   -6.7381 N   0  0  0  0  0  0  0  0  0  0  0  0
    9.7590    6.9063   -8.0372 C   0  0  0  0  0  0  0  0  0  0  0  0
   10.3955    5.8092  -10.3862 H   0  0  0  0  0  0  0  0  0  0  0  0
    9.4717    6.9655  -12.9377 H   0  0  0  0  0  0  0  0  0  0  0  0
   11.7971    7.7697  -12.7879 H   0  0  0  0  0  0  0  0  0  0  0  0
   12.3809    6.2056  -12.3250 H   0  0  0  0  0  0  0  0  0  0  0  0
   11.2900    6.9626  -15.0450 H   0  0  0  0  0  0  0  0  0  0  0  0
   12.9203    6.5374  -14.6243 H   0  0  0  0  0  0  0  0  0  0  0  0
   12.2477    4.2382  -14.0644 H   0  0  0  0  0  0  0  0  0  0  0  0
   11.1621    5.0672  -16.8001 H   0  0  0  0  0  0  0  0  0  0  0  0
   12.8326    4.9715  -16.3989 H   0  0  0  0  0  0  0  0  0  0  0  0
   12.3907    2.9487  -17.5483 H   0  0  0  0  0  0  0  0  0  0  0  0
   12.6945    2.5698  -15.8762 H   0  0  0  0  0  0  0  0  0  0  0  0
   11.2816    0.5342  -17.5136 H   0  0  0  0  0  0  0  0  0  0  0  0
   11.6477    0.5202  -15.8081 H   0  0  0  0  0  0  0  0  0  0  0  0
    9.7214   -0.9960  -16.3176 H   0  0  0  0  0  0  0  0  0  0  0  0
    9.2235    0.2901  -15.2485 H   0  0  0  0  0  0  0  0  0  0  0  0
    8.8619    0.2225  -18.2737 H   0  0  0  0  0  0  0  0  0  0  0  0
    6.8084   -1.3280  -18.9858 H   0  0  0  0  0  0  0  0  0  0  0  0
    3.1599   -1.6340  -15.8175 H   0  0  0  0  0  0  0  0  0  0  0  0
    3.1098   -0.4502  -13.6098 H   0  0  0  0  0  0  0  0  0  0  0  0
    5.0853    0.8977  -12.8909 H   0  0  0  0  0  0  0  0  0  0  0  0
    7.0609    1.1226  -14.3647 H   0  0  0  0  0  0  0  0  0  0  0  0
    7.6578    2.3432  -18.0651 H   0  0  0  0  0  0  0  0  0  0  0  0
    7.9141    2.3728  -16.3369 H   0  0  0  0  0  0  0  0  0  0  0  0
    9.5372    3.8067  -17.4547 H   0  0  0  0  0  0  0  0  0  0  0  0
   10.0759    2.5112  -18.5039 H   0  0  0  0  0  0  0  0  0  0  0  0
    9.4153    5.0820  -14.8611 H   0  0  0  0  0  0  0  0  0  0  0  0
    9.8874    3.4711  -14.3680 H   0  0  0  0  0  0  0  0  0  0  0  0
   10.4853    4.1949  -12.1486 H   0  0  0  0  0  0  0  0  0  0  0  0
    8.8374    4.6491  -12.5010 H   0  0  0  0  0  0  0  0  0  0  0  0
   11.2107    9.7431   -9.2354 H   0  0  0  0  0  0  0  0  0  0  0  0
   11.8841    9.8754   -6.8769 H   0  0  0  0  0  0  0  0  0  0  0  0
   13.1147    9.0117   -4.9124 H   0  0  0  0  0  0  0  0  0  0  0  0
   11.6924   10.0343   -4.7302 H   0  0  0  0  0  0  0  0  0  0  0  0
   12.9408    9.7723   -2.5829 H   0  0  0  0  0  0  0  0  0  0  0  0
   11.2862    9.2255   -2.4452 H   0  0  0  0  0  0  0  0  0  0  0  0
   12.2458    5.7718   -2.5244 H   0  0  0  0  0  0  0  0  0  0  0  0
   10.8873    6.8460   -2.3383 H   0  0  0  0  0  0  0  0  0  0  0  0
   10.7983    5.9534   -4.5964 H   0  0  0  0  0  0  0  0  0  0  0  0
   12.4858    6.2781   -4.9014 H   0  0  0  0  0  0  0  0  0  0  0  0
    9.1681    6.0488   -8.3226 H   0  0  0  0  0  0  0  0  0  0  0  0
   10.2984    2.4916  -15.5844 H   0  0  0  0  0  0  0  0  0  0  0  0
  2  1  2  0
  3  2  1  0
  4  3  1  0
  5  4  1  0
  6  5  1  0
  7  6  1  0
  8  7  1  0
  9  8  1  0
 10  9  1  0
 11 10  1  0
 12 11  1  0
 13 12  1  0
 14 13  1  0
 15 14  2  0
 16 15  1  0
 17 16  1  0
 18 17  2  0
 19 18  1  0
 20 19  2  0
 21 20  1  0
 22 14  1  0
 22 17  1  0
 22 21  2  0
 23 13  1  0
 24 10  1  0
 24 23  1  0
 25  7  1  0
 26  4  1  0
 26 25  1  0
 27  2  1  0
 28 27  2  0
 29 28  1  0
 30 29  2  0
 31 30  1  0
 32 31  1  0
 33 32  1  0
 34 33  1  0
 35 34  1  0
 36 31  1  0
 36 35  1  0
 37 30  1  0
 38 27  1  0
 38 37  2  0
 39  3  1  0
  4 40  1  6
 41  5  1  0
 42  5  1  0
 43  6  1  0
 44  6  1  0
  7 45  1  1
 46  8  1  0
 47  8  1  0
 48  9  1  0
 49  9  1  0
 50 11  1  0
 51 11  1  0
 52 12  1  0
 53 12  1  0
 13 54  1  6
 55 15  1  0
 56 18  1  0
 57 19  1  0
 58 20  1  0
 59 21  1  0
 60 23  1  0
 61 23  1  0
 62 24  1  0
 63 24  1  0
 64 25  1  0
 65 25  1  0
 66 26  1  0
 67 26  1  0
 68 28  1  0
 69 29  1  0
 70 32  1  0
 71 32  1  0
 72 33  1  0
 73 33  1  0
 74 35  1  0
 75 35  1  0
 76 36  1  0
 77 36  1  0
 78 38  1  0
 10 79  1  1
M  CHG  1  10   1
M  END
>  <b_m_subgroup_collapsed>  (327) 
0

>  <r_i_docking_score>  (327) 
-8.2359862597631608

>  <s_m_subgroup_title>  (327) 
glide-dock_SP_D22_pv

>  <s_m_subgroupid>  (327) 
glide-dock_SP_D22_pv

>  <Molecule ChEMBL ID>  (327) 
CHEMBL3676910

>  <Standard Type>  (327) 
Ki

>  <Standard Value>  (327) 
51.8

>  <label>  (327) 
1

$$$$
CHEMBL357807
     RDKit          3D

 58 61  0  0  1  0  0  0  0  0999 V2000
   10.1971   -0.5615  -16.5257 C   0  0  0  0  0  0  0  0  0  0  0  0
    8.8521   -0.2012  -16.2596 O   0  0  0  0  0  0  0  0  0  0  0  0
    8.6265    0.9684  -15.5673 C   0  0  0  0  0  0  0  0  0  0  0  0
    7.2857    1.3312  -15.3299 C   0  0  0  0  0  0  0  0  0  0  0  0
    6.9731    2.5218  -14.6451 C   0  0  0  0  0  0  0  0  0  0  0  0
    7.9929    3.3697  -14.1757 C   0  0  0  0  0  0  0  0  0  0  0  0
    9.3395    3.0056  -14.4053 C   0  0  0  0  0  0  0  0  0  0  0  0
    9.6540    1.8177  -15.0921 C   0  0  0  0  0  0  0  0  0  0  0  0
   10.4569    3.8916  -13.9174 C   0  0  0  0  0  0  0  0  0  0  0  0
    9.9411    5.2824  -13.5624 C   0  0  0  0  0  0  0  0  0  0  0  0
    8.6111    5.2383  -12.7686 C   0  0  2  0  0  0  0  0  0  0  0  0
    8.0472    6.6532  -12.5227 C   0  0  0  0  0  0  0  0  0  0  0  0
    8.8862    7.4510  -11.5086 C   0  0  0  0  0  0  0  0  0  0  0  0
    8.8860    6.7469  -10.2069 N   0  0  2  0  0  0  0  0  0  0  0  0
    9.5157    7.5178   -9.1154 C   0  0  0  0  0  0  0  0  0  0  0  0
    8.9455    7.1161   -7.7388 C   0  0  0  0  0  0  0  0  0  0  0  0
   10.0096    6.9517   -6.6425 C   0  0  0  0  0  0  0  0  0  0  0  0
   10.7142    8.2533   -6.2468 C   0  0  0  0  0  0  0  0  0  0  0  0
   10.7161    9.2207   -7.0083 O   0  0  0  0  0  0  0  0  0  0  0  0
   11.3252    8.2904   -4.8990 C   0  0  0  0  0  0  0  0  0  0  0  0
   11.5503    9.5449   -4.2991 C   0  0  0  0  0  0  0  0  0  0  0  0
   12.0859    9.6194   -3.0045 C   0  0  0  0  0  0  0  0  0  0  0  0
   12.4208    8.4543   -2.2998 C   0  0  0  0  0  0  0  0  0  0  0  0
   12.9216    8.5586   -1.0469 F   0  0  0  0  0  0  0  0  0  0  0  0
   12.2266    7.1958   -2.8991 C   0  0  0  0  0  0  0  0  0  0  0  0
   11.6860    7.1126   -4.1988 C   0  0  0  0  0  0  0  0  0  0  0  0
    9.4332    5.3728  -10.3238 C   0  0  0  0  0  0  0  0  0  0  0  0
    8.7114    4.5401  -11.3939 C   0  0  0  0  0  0  0  0  0  0  0  0
    7.6299    4.5428  -13.5434 O   0  0  0  0  0  0  0  0  0  0  0  0
   10.2219   -1.5369  -17.0101 H   0  0  0  0  0  0  0  0  0  0  0  0
   10.6707    0.1559  -17.1975 H   0  0  0  0  0  0  0  0  0  0  0  0
   10.7773   -0.6275  -15.6044 H   0  0  0  0  0  0  0  0  0  0  0  0
    6.4901    0.6914  -15.6838 H   0  0  0  0  0  0  0  0  0  0  0  0
    5.9438    2.7922  -14.4706 H   0  0  0  0  0  0  0  0  0  0  0  0
   10.6969    1.5845  -15.2470 H   0  0  0  0  0  0  0  0  0  0  0  0
   10.8861    3.4106  -13.0468 H   0  0  0  0  0  0  0  0  0  0  0  0
   11.2446    3.9580  -14.6691 H   0  0  0  0  0  0  0  0  0  0  0  0
    9.7511    5.7724  -14.5137 H   0  0  0  0  0  0  0  0  0  0  0  0
   10.7186    5.8516  -13.0543 H   0  0  0  0  0  0  0  0  0  0  0  0
    7.0249    6.5718  -12.1469 H   0  0  0  0  0  0  0  0  0  0  0  0
    7.9618    7.2101  -13.4468 H   0  0  0  0  0  0  0  0  0  0  0  0
    8.4541    8.4447  -11.3916 H   0  0  0  0  0  0  0  0  0  0  0  0
    9.9064    7.6014  -11.8617 H   0  0  0  0  0  0  0  0  0  0  0  0
    9.3345    8.5847   -9.2609 H   0  0  0  0  0  0  0  0  0  0  0  0
   10.5986    7.3861   -9.1568 H   0  0  0  0  0  0  0  0  0  0  0  0
    8.3898    6.1803   -7.8023 H   0  0  0  0  0  0  0  0  0  0  0  0
    8.2080    7.8557   -7.4232 H   0  0  0  0  0  0  0  0  0  0  0  0
   10.7570    6.2203   -6.9495 H   0  0  0  0  0  0  0  0  0  0  0  0
    9.5220    6.5486   -5.7548 H   0  0  0  0  0  0  0  0  0  0  0  0
   11.2863   10.4595   -4.8113 H   0  0  0  0  0  0  0  0  0  0  0  0
   12.2166   10.5776   -2.5362 H   0  0  0  0  0  0  0  0  0  0  0  0
   12.4827    6.2941   -2.3608 H   0  0  0  0  0  0  0  0  0  0  0  0
   11.5407    6.1357   -4.6362 H   0  0  0  0  0  0  0  0  0  0  0  0
   10.4858    5.4570  -10.5701 H   0  0  0  0  0  0  0  0  0  0  0  0
    9.3799    4.8526   -9.3677 H   0  0  0  0  0  0  0  0  0  0  0  0
    7.7064    4.3100  -11.0353 H   0  0  0  0  0  0  0  0  0  0  0  0
    9.2275    3.5888  -11.4970 H   0  0  0  0  0  0  0  0  0  0  0  0
    7.8953    6.7076   -9.9691 H   0  0  0  0  0  0  0  0  0  0  0  0
  2  1  1  0
  3  2  1  0
  4  3  1  0
  5  4  2  0
  6  5  1  0
  7  6  2  0
  8  3  2  0
  8  7  1  0
  9  7  1  0
 10  9  1  0
 11 10  1  0
 12 11  1  0
 13 12  1  0
 14 13  1  0
 15 14  1  0
 16 15  1  0
 17 16  1  0
 18 17  1  0
 19 18  2  0
 20 18  1  0
 21 20  1  0
 22 21  2  0
 23 22  1  0
 24 23  1  0
 25 23  2  0
 26 20  2  0
 26 25  1  0
 27 14  1  0
 28 11  1  0
 28 27  1  0
 29  6  1  0
 11 29  1  6
 30  1  1  0
 31  1  1  0
 32  1  1  0
 33  4  1  0
 34  5  1  0
 35  8  1  0
 36  9  1  0
 37  9  1  0
 38 10  1  0
 39 10  1  0
 40 12  1  0
 41 12  1  0
 42 13  1  0
 43 13  1  0
 44 15  1  0
 45 15  1  0
 46 16  1  0
 47 16  1  0
 48 17  1  0
 49 17  1  0
 50 21  1  0
 51 22  1  0
 52 25  1  0
 53 26  1  0
 54 27  1  0
 55 27  1  0
 56 28  1  0
 57 28  1  0
 14 58  1  1
M  CHG  1  14   1
M  END
>  <b_m_subgroup_collapsed>  (328) 
0

>  <r_i_docking_score>  (328) 
-8.2321755738028592

>  <s_m_subgroup_title>  (328) 
glide-dock_SP_D22_pv

>  <s_m_subgroupid>  (328) 
glide-dock_SP_D22_pv

>  <Molecule ChEMBL ID>  (328) 
CHEMBL357807

>  <Standard Type>  (328) 
Ki

>  <Standard Value>  (328) 
2.0

>  <label>  (328) 
1

$$$$
CHEMBL2165138
     RDKit          3D

 50 53  0  0  1  0  0  0  0  0999 V2000
    8.0482    0.1803  -15.7502 Cl  0  0  0  0  0  0  0  0  0  0  0  0
    7.2401    1.2358  -14.6495 C   0  0  0  0  0  0  0  0  0  0  0  0
    6.0553    0.8023  -14.0288 C   0  0  0  0  0  0  0  0  0  0  0  0
    5.3803    1.6515  -13.1346 C   0  0  0  0  0  0  0  0  0  0  0  0
    5.8774    2.9388  -12.8620 C   0  0  0  0  0  0  0  0  0  0  0  0
    7.0874    3.3718  -13.4519 C   0  0  0  0  0  0  0  0  0  0  0  0
    7.7055    4.7050  -13.0564 C   0  0  1  0  0  0  0  0  0  0  0  0
    6.7007    5.8005  -12.6812 C   0  0  0  0  0  0  0  0  0  0  0  0
    7.4746    7.1154  -12.5279 C   0  0  0  0  0  0  0  0  0  0  0  0
    8.4861    7.0106  -11.4470 N   0  0  2  0  0  0  0  0  0  0  0  0
    9.1664    8.2983  -11.1706 C   0  0  0  0  0  0  0  0  0  0  0  0
    9.5204    8.4702   -9.6781 C   0  0  0  0  0  0  0  0  0  0  0  0
   11.0267    8.6291   -9.4153 C   0  0  0  0  0  0  0  0  0  0  0  0
   11.2472    9.3722   -8.2244 O   0  0  0  0  0  0  0  0  0  0  0  0
   11.3036    8.7533   -6.9981 C   0  0  0  0  0  0  0  0  0  0  0  0
   11.0993    7.3710   -6.7839 C   0  0  0  0  0  0  0  0  0  0  0  0
   11.2862    6.8269   -5.4997 C   0  0  0  0  0  0  0  0  0  0  0  0
   11.6847    7.6497   -4.4333 C   0  0  0  0  0  0  0  0  0  0  0  0
   12.0855    7.2061   -2.7723 S   0  0  0  0  0  0  0  0  0  0  0  0
   12.2790    8.9240   -2.4305 C   0  0  0  0  0  0  0  0  0  0  0  0
   12.0954    9.7723   -3.4458 N   0  0  0  0  0  0  0  0  0  0  0  0
   11.8011    9.0582   -4.6010 C   0  0  0  0  0  0  0  0  0  0  0  0
   11.6129    9.5803   -5.8991 C   0  0  0  0  0  0  0  0  0  0  0  0
    9.4313    5.8759  -11.6190 C   0  0  0  0  0  0  0  0  0  0  0  0
    8.6995    4.5520  -11.8921 C   0  0  0  0  0  0  0  0  0  0  0  0
    7.7685    2.5116  -14.3550 C   0  0  0  0  0  0  0  0  0  0  0  0
    9.2729    2.9829  -15.0767 Cl  0  0  0  0  0  0  0  0  0  0  0  0
    5.6651   -0.1830  -14.2393 H   0  0  0  0  0  0  0  0  0  0  0  0
    4.4857    1.3093  -12.6476 H   0  0  0  0  0  0  0  0  0  0  0  0
    5.3484    3.5557  -12.1512 H   0  0  0  0  0  0  0  0  0  0  0  0
    8.2425    5.0767  -13.9290 H   0  0  0  0  0  0  0  0  0  0  0  0
    5.9273    5.8860  -13.4456 H   0  0  0  0  0  0  0  0  0  0  0  0
    6.1848    5.5721  -11.7470 H   0  0  0  0  0  0  0  0  0  0  0  0
    6.7756    7.9245  -12.3135 H   0  0  0  0  0  0  0  0  0  0  0  0
    7.9799    7.3732  -13.4469 H   0  0  0  0  0  0  0  0  0  0  0  0
    8.4955    9.1176  -11.4372 H   0  0  0  0  0  0  0  0  0  0  0  0
   10.0351    8.4127  -11.8201 H   0  0  0  0  0  0  0  0  0  0  0  0
    9.1096    7.6641   -9.0691 H   0  0  0  0  0  0  0  0  0  0  0  0
    9.0175    9.3709   -9.3229 H   0  0  0  0  0  0  0  0  0  0  0  0
   11.4714    9.2276  -10.2110 H   0  0  0  0  0  0  0  0  0  0  0  0
   11.5562    7.6759   -9.4327 H   0  0  0  0  0  0  0  0  0  0  0  0
   10.8261    6.7061   -7.5885 H   0  0  0  0  0  0  0  0  0  0  0  0
   11.1614    5.7724   -5.3314 H   0  0  0  0  0  0  0  0  0  0  0  0
   12.5359    9.3201   -1.4581 H   0  0  0  0  0  0  0  0  0  0  0  0
   11.7400   10.6404   -6.0569 H   0  0  0  0  0  0  0  0  0  0  0  0
   10.1046    6.0937  -12.4497 H   0  0  0  0  0  0  0  0  0  0  0  0
   10.0522    5.7763  -10.7275 H   0  0  0  0  0  0  0  0  0  0  0  0
    9.4330    3.7767  -12.1170 H   0  0  0  0  0  0  0  0  0  0  0  0
    8.1714    4.2246  -10.9952 H   0  0  0  0  0  0  0  0  0  0  0  0
    7.8943    6.8575  -10.6335 H   0  0  0  0  0  0  0  0  0  0  0  0
  2  1  1  0
  3  2  1  0
  4  3  2  0
  5  4  1  0
  6  5  2  0
  7  6  1  0
  8  7  1  0
  9  8  1  0
 10  9  1  0
 11 10  1  0
 12 11  1  0
 13 12  1  0
 14 13  1  0
 15 14  1  0
 16 15  2  0
 17 16  1  0
 18 17  2  0
 19 18  1  0
 20 19  1  0
 21 20  2  0
 22 18  1  0
 22 21  1  0
 23 15  1  0
 23 22  2  0
 24 10  1  0
 25  7  1  0
 25 24  1  0
 26  2  2  0
 26  6  1  0
 27 26  1  0
 28  3  1  0
 29  4  1  0
 30  5  1  0
  7 31  1  6
 32  8  1  0
 33  8  1  0
 34  9  1  0
 35  9  1  0
 36 11  1  0
 37 11  1  0
 38 12  1  0
 39 12  1  0
 40 13  1  0
 41 13  1  0
 42 16  1  0
 43 17  1  0
 44 20  1  0
 45 23  1  0
 46 24  1  0
 47 24  1  0
 48 25  1  0
 49 25  1  0
 10 50  1  1
M  CHG  1  10   1
M  END
>  <b_m_subgroup_collapsed>  (329) 
0

>  <r_i_docking_score>  (329) 
-8.2256687016333601

>  <s_m_subgroup_title>  (329) 
glide-dock_SP_D22_pv

>  <s_m_subgroupid>  (329) 
glide-dock_SP_D22_pv

>  <Molecule ChEMBL ID>  (329) 
CHEMBL2165138

>  <Standard Type>  (329) 
Ki

>  <Standard Value>  (329) 
75.0

>  <label>  (329) 
1

$$$$
CHEMBL164471
     RDKit          3D

 52 56  0  0  1  0  0  0  0  0999 V2000
    6.2718    4.0638  -12.7469 O   0  0  0  0  0  0  0  0  0  0  0  0
    7.3096    3.9668  -13.4008 C   0  0  0  0  0  0  0  0  0  0  0  0
    7.5964    2.7885  -14.2470 C   0  0  0  0  0  0  0  0  0  0  0  0
    6.8862    1.5989  -14.5712 C   0  0  0  0  0  0  0  0  0  0  0  0
    7.7085    0.8844  -15.4000 C   0  0  0  0  0  0  0  0  0  0  0  0
    8.8815    1.5481  -15.6166 O   0  0  0  0  0  0  0  0  0  0  0  0
    8.7936    2.6940  -14.8896 C   0  0  0  0  0  0  0  0  0  0  0  0
    9.9391    3.6391  -14.8916 C   0  0  0  0  0  0  0  0  0  0  0  0
    9.8181    4.5937  -13.6888 C   0  0  0  0  0  0  0  0  0  0  0  0
    8.3668    5.1013  -13.4197 C   0  0  2  0  0  0  0  0  0  0  0  0
    8.2917    6.0563  -12.1999 C   0  0  0  0  0  0  0  0  0  0  0  0
    8.5696    5.4093  -10.8184 C   0  0  0  0  0  0  0  0  0  0  0  0
    8.8861    6.4033   -9.7558 N   0  0  1  0  0  0  0  0  0  0  0  0
    8.6969    5.8296   -8.3941 C   0  0  0  0  0  0  0  0  0  0  0  0
    8.9691    6.8659   -7.2891 C   0  0  0  0  0  0  0  0  0  0  0  0
   10.3979    7.4042   -7.4151 C   0  0  2  0  0  0  0  0  0  0  0  0
   10.7504    8.3743   -6.3193 C   0  0  0  0  0  0  0  0  0  0  0  0
   10.4913    9.6708   -6.4455 N   0  0  0  0  0  0  0  0  0  0  0  0
   10.9368   10.3227   -5.2640 O   0  0  0  0  0  0  0  0  0  0  0  0
   11.4448    9.3807   -4.3882 C   0  0  0  0  0  0  0  0  0  0  0  0
   11.9850    9.5007   -3.1025 C   0  0  0  0  0  0  0  0  0  0  0  0
   12.3695    8.3181   -2.4401 C   0  0  0  0  0  0  0  0  0  0  0  0
   12.8860    8.3902   -1.1944 F   0  0  0  0  0  0  0  0  0  0  0  0
   12.2127    7.0604   -3.0708 C   0  0  0  0  0  0  0  0  0  0  0  0
   11.6860    6.9690   -4.3807 C   0  0  0  0  0  0  0  0  0  0  0  0
   11.3040    8.1554   -5.0428 C   0  0  0  0  0  0  0  0  0  0  0  0
   10.5807    8.0097   -8.8195 C   0  0  0  0  0  0  0  0  0  0  0  0
   10.2486    6.9831   -9.9099 C   0  0  0  0  0  0  0  0  0  0  0  0
    5.9014    1.3050  -14.2401 H   0  0  0  0  0  0  0  0  0  0  0  0
    7.6209   -0.0693  -15.8983 H   0  0  0  0  0  0  0  0  0  0  0  0
   10.8863    3.0991  -14.8639 H   0  0  0  0  0  0  0  0  0  0  0  0
    9.9272    4.2112  -15.8188 H   0  0  0  0  0  0  0  0  0  0  0  0
   10.5020    5.4340  -13.8165 H   0  0  0  0  0  0  0  0  0  0  0  0
   10.1732    4.0509  -12.8138 H   0  0  0  0  0  0  0  0  0  0  0  0
    8.0907    5.7006  -14.2864 H   0  0  0  0  0  0  0  0  0  0  0  0
    8.9843    6.8711  -12.3986 H   0  0  0  0  0  0  0  0  0  0  0  0
    7.3089    6.5323  -12.1713 H   0  0  0  0  0  0  0  0  0  0  0  0
    7.6858    4.8401  -10.5255 H   0  0  0  0  0  0  0  0  0  0  0  0
    9.3858    4.6881  -10.8666 H   0  0  0  0  0  0  0  0  0  0  0  0
    7.6861    5.4520   -8.2802 H   0  0  0  0  0  0  0  0  0  0  0  0
    9.3592    4.9711   -8.2664 H   0  0  0  0  0  0  0  0  0  0  0  0
    8.8356    6.4003   -6.3125 H   0  0  0  0  0  0  0  0  0  0  0  0
    8.2488    7.6843   -7.3423 H   0  0  0  0  0  0  0  0  0  0  0  0
   11.0808    6.5566   -7.3335 H   0  0  0  0  0  0  0  0  0  0  0  0
   12.0853   10.4670   -2.6318 H   0  0  0  0  0  0  0  0  0  0  0  0
   12.5040    6.1609   -2.5476 H   0  0  0  0  0  0  0  0  0  0  0  0
   11.5729    6.0071   -4.8584 H   0  0  0  0  0  0  0  0  0  0  0  0
   11.6067    8.3613   -8.9459 H   0  0  0  0  0  0  0  0  0  0  0  0
    9.9368    8.8825   -8.9446 H   0  0  0  0  0  0  0  0  0  0  0  0
   10.9685    6.1723   -9.8537 H   0  0  0  0  0  0  0  0  0  0  0  0
   10.3720    7.4565  -10.8819 H   0  0  0  0  0  0  0  0  0  0  0  0
    8.1911    7.1440   -9.8468 H   0  0  0  0  0  0  0  0  0  0  0  0
  2  1  2  0
  3  2  1  0
  4  3  1  0
  5  4  2  0
  6  5  1  0
  7  3  2  0
  7  6  1  0
  8  7  1  0
  9  8  1  0
 10  2  1  0
 10  9  1  0
 11 10  1  0
 12 11  1  0
 13 12  1  0
 14 13  1  0
 15 14  1  0
 16 15  1  0
 17 16  1  0
 18 17  2  0
 19 18  1  0
 20 19  1  0
 21 20  2  0
 22 21  1  0
 23 22  1  0
 24 22  2  0
 25 24  1  0
 26 17  1  0
 26 20  1  0
 26 25  2  0
 27 16  1  0
 28 13  1  0
 28 27  1  0
 29  4  1  0
 30  5  1  0
 31  8  1  0
 32  8  1  0
 33  9  1  0
 34  9  1  0
 10 35  1  6
 36 11  1  0
 37 11  1  0
 38 12  1  0
 39 12  1  0
 40 14  1  0
 41 14  1  0
 42 15  1  0
 43 15  1  0
 16 44  1  6
 45 21  1  0
 46 24  1  0
 47 25  1  0
 48 27  1  0
 49 27  1  0
 50 28  1  0
 51 28  1  0
 13 52  1  6
M  CHG  1  13   1
M  END
>  <b_m_subgroup_collapsed>  (330) 
0

>  <r_i_docking_score>  (330) 
-8.2249874825667195

>  <s_m_subgroup_title>  (330) 
glide-dock_SP_D22_pv

>  <s_m_subgroupid>  (330) 
glide-dock_SP_D22_pv

>  <Molecule ChEMBL ID>  (330) 
CHEMBL164471

>  <Standard Type>  (330) 
Ki

>  <Standard Value>  (330) 
45.71

>  <label>  (330) 
1

$$$$
CHEMBL3290004
     RDKit          3D

 57 61  0  0  1  0  0  0  0  0999 V2000
    9.6559    3.5652  -14.7691 O   0  0  0  0  0  0  0  0  0  0  0  0
    8.6204    4.0091  -13.8246 S   0  0  0  0  0  0  0  0  0  0  0  0
    8.0860    5.3726  -13.8802 O   0  0  0  0  0  0  0  0  0  0  0  0
    9.2350    3.7724  -12.2468 N   0  0  0  0  0  0  0  0  0  0  0  0
    9.6664    4.8574  -11.3740 C   0  0  0  0  0  0  0  0  0  0  0  0
    8.5166    5.7782  -10.9028 C   0  0  0  0  0  0  0  0  0  0  0  0
    8.8860    6.6400   -9.7479 N   0  0  1  0  0  0  0  0  0  0  0  0
    8.7217    5.9780   -8.4250 C   0  0  0  0  0  0  0  0  0  0  0  0
    8.9940    6.9545   -7.2639 C   0  0  0  0  0  0  0  0  0  0  0  0
   10.3951    7.5668   -7.3979 C   0  0  2  0  0  0  0  0  0  0  0  0
   10.7526    8.4702   -6.2468 C   0  0  0  0  0  0  0  0  0  0  0  0
   10.4914    9.7722   -6.2944 N   0  0  0  0  0  0  0  0  0  0  0  0
   10.9386   10.3550   -5.0788 O   0  0  0  0  0  0  0  0  0  0  0  0
   11.4527    9.3651   -4.2629 C   0  0  0  0  0  0  0  0  0  0  0  0
   11.9950    9.4102   -2.9742 C   0  0  0  0  0  0  0  0  0  0  0  0
   12.3746    8.1917   -2.3801 C   0  0  0  0  0  0  0  0  0  0  0  0
   12.8860    8.1908   -1.1301 F   0  0  0  0  0  0  0  0  0  0  0  0
   12.2124    6.9723   -3.0794 C   0  0  0  0  0  0  0  0  0  0  0  0
   11.6860    6.9569   -4.3921 C   0  0  0  0  0  0  0  0  0  0  0  0
   11.3079    8.1793   -4.9860 C   0  0  0  0  0  0  0  0  0  0  0  0
   10.4993    8.2850   -8.7578 C   0  0  0  0  0  0  0  0  0  0  0  0
   10.2024    7.3197   -9.9083 C   0  0  0  0  0  0  0  0  0  0  0  0
    7.2530    2.8518  -13.8484 C   0  0  0  0  0  0  0  0  0  0  0  0
    6.1061    3.0848  -13.0588 C   0  0  0  0  0  0  0  0  0  0  0  0
    5.0683    2.1312  -13.0469 C   0  0  0  0  0  0  0  0  0  0  0  0
    5.1524    0.9723  -13.8469 C   0  0  0  0  0  0  0  0  0  0  0  0
    4.0549    0.0898  -13.9543 C   0  0  0  0  0  0  0  0  0  0  0  0
    4.1218   -1.0277  -14.8062 C   0  0  0  0  0  0  0  0  0  0  0  0
    5.2859   -1.2722  -15.5543 C   0  0  0  0  0  0  0  0  0  0  0  0
    6.3742   -0.3822  -15.4746 C   0  0  0  0  0  0  0  0  0  0  0  0
    6.3082    0.7472  -14.6365 C   0  0  0  0  0  0  0  0  0  0  0  0
    7.3633    1.6806  -14.6251 C   0  0  0  0  0  0  0  0  0  0  0  0
    9.7500    2.8939  -12.1409 H   0  0  0  0  0  0  0  0  0  0  0  0
   10.0860    4.3798  -10.4920 H   0  0  0  0  0  0  0  0  0  0  0  0
   10.4519    5.4206  -11.8789 H   0  0  0  0  0  0  0  0  0  0  0  0
    8.2125    6.4491  -11.7046 H   0  0  0  0  0  0  0  0  0  0  0  0
    7.6332    5.1917  -10.6476 H   0  0  0  0  0  0  0  0  0  0  0  0
    7.7061    5.5923   -8.3323 H   0  0  0  0  0  0  0  0  0  0  0  0
    9.3924    5.1209   -8.3535 H   0  0  0  0  0  0  0  0  0  0  0  0
    8.9061    6.4246   -6.3147 H   0  0  0  0  0  0  0  0  0  0  0  0
    8.2393    7.7428   -7.2437 H   0  0  0  0  0  0  0  0  0  0  0  0
   11.1157    6.7473   -7.4026 H   0  0  0  0  0  0  0  0  0  0  0  0
   12.0860   10.3457   -2.4432 H   0  0  0  0  0  0  0  0  0  0  0  0
   12.4982    6.0435   -2.6070 H   0  0  0  0  0  0  0  0  0  0  0  0
   11.5674    6.0238   -4.9233 H   0  0  0  0  0  0  0  0  0  0  0  0
   11.4963    8.7101   -8.8850 H   0  0  0  0  0  0  0  0  0  0  0  0
    9.7978    9.1201   -8.8021 H   0  0  0  0  0  0  0  0  0  0  0  0
   11.0061    6.5840   -9.9389 H   0  0  0  0  0  0  0  0  0  0  0  0
   10.2228    7.8588  -10.8568 H   0  0  0  0  0  0  0  0  0  0  0  0
    6.0328    3.9793  -12.4571 H   0  0  0  0  0  0  0  0  0  0  0  0
    4.1818    2.3126  -12.4619 H   0  0  0  0  0  0  0  0  0  0  0  0
    3.1254    0.2893  -13.4469 H   0  0  0  0  0  0  0  0  0  0  0  0
    3.2782   -1.6957  -14.9005 H   0  0  0  0  0  0  0  0  0  0  0  0
    5.3402   -2.1350  -16.2030 H   0  0  0  0  0  0  0  0  0  0  0  0
    7.2541   -0.5705  -16.0730 H   0  0  0  0  0  0  0  0  0  0  0  0
    8.2453    1.5076  -15.2243 H   0  0  0  0  0  0  0  0  0  0  0  0
    8.1668    7.3624   -9.7647 H   0  0  0  0  0  0  0  0  0  0  0  0
  2  1  2  0
  3  2  2  0
  4  2  1  0
  5  4  1  0
  6  5  1  0
  7  6  1  0
  8  7  1  0
  9  8  1  0
 10  9  1  0
 11 10  1  0
 12 11  2  0
 13 12  1  0
 14 13  1  0
 15 14  2  0
 16 15  1  0
 17 16  1  0
 18 16  2  0
 19 18  1  0
 20 11  1  0
 20 14  1  0
 20 19  2  0
 21 10  1  0
 22  7  1  0
 22 21  1  0
 23  2  1  0
 24 23  1  0
 25 24  2  0
 26 25  1  0
 27 26  2  0
 28 27  1  0
 29 28  2  0
 30 29  1  0
 31 26  1  0
 31 30  2  0
 32 23  2  0
 32 31  1  0
 33  4  1  0
 34  5  1  0
 35  5  1  0
 36  6  1  0
 37  6  1  0
 38  8  1  0
 39  8  1  0
 40  9  1  0
 41  9  1  0
 10 42  1  6
 43 15  1  0
 44 18  1  0
 45 19  1  0
 46 21  1  0
 47 21  1  0
 48 22  1  0
 49 22  1  0
 50 24  1  0
 51 25  1  0
 52 27  1  0
 53 28  1  0
 54 29  1  0
 55 30  1  0
 56 32  1  0
  7 57  1  1
M  CHG  1   7   1
M  END
>  <b_m_subgroup_collapsed>  (331) 
0

>  <r_i_docking_score>  (331) 
-8.2214484636822895

>  <s_m_subgroup_title>  (331) 
glide-dock_SP_D22_pv

>  <s_m_subgroupid>  (331) 
glide-dock_SP_D22_pv

>  <Molecule ChEMBL ID>  (331) 
CHEMBL3290004

>  <Standard Type>  (331) 
Ki

>  <Standard Value>  (331) 
5.2

>  <label>  (331) 
1

$$$$
CHEMBL296953
     RDKit          3D

 43 45  0  0  1  0  0  0  0  0999 V2000
   10.4484    6.0569  -12.6465 O   0  0  0  0  0  0  0  0  0  0  0  0
    9.2874    6.1727  -12.2471 C   0  0  0  0  0  0  0  0  0  0  0  0
    8.8850    7.1720  -11.4520 N   0  0  0  0  0  0  0  0  0  0  0  0
    9.7515    8.1171  -10.7821 C   0  0  0  0  0  0  0  0  0  0  0  0
   10.4138    7.6318   -9.5783 N   0  0  0  0  0  0  0  0  0  0  0  0
   11.2825    8.6923   -9.0634 C   0  0  0  0  0  0  0  0  0  0  0  0
   12.0061    8.2021   -7.8040 C   0  0  0  0  0  0  0  0  0  0  0  0
   11.0239    7.7789   -6.8064 N   0  0  0  0  0  0  0  0  0  0  0  0
   11.3382    7.8947   -5.4427 C   0  0  0  0  0  0  0  0  0  0  0  0
   11.5043    6.7569   -4.6258 C   0  0  0  0  0  0  0  0  0  0  0  0
   11.8851    6.8939   -3.2750 C   0  0  0  0  0  0  0  0  0  0  0  0
   12.0863    8.1728   -2.7228 C   0  0  0  0  0  0  0  0  0  0  0  0
   11.9037    9.3141   -3.5241 C   0  0  0  0  0  0  0  0  0  0  0  0
   11.5348    9.1726   -4.8769 C   0  0  0  0  0  0  0  0  0  0  0  0
   11.2862   10.5727   -5.8429 Cl  0  0  0  0  0  0  0  0  0  0  0  0
   10.1036    6.7581   -7.2787 C   0  0  0  0  0  0  0  0  0  0  0  0
    9.4142    7.2686   -8.5585 C   0  0  0  0  0  0  0  0  0  0  0  0
    8.2313    5.1766  -12.6478 C   0  0  0  0  0  0  0  0  0  0  0  0
    8.4875    4.2506  -13.6862 C   0  0  0  0  0  0  0  0  0  0  0  0
    7.5647    3.2269  -13.9788 C   0  0  0  0  0  0  0  0  0  0  0  0
    6.3731    3.1188  -13.2377 C   0  0  0  0  0  0  0  0  0  0  0  0
    5.3386    1.7533  -13.4464 Cl  0  0  0  0  0  0  0  0  0  0  0  0
    6.0803    4.0715  -12.2477 C   0  0  0  0  0  0  0  0  0  0  0  0
    7.0036    5.0907  -11.9488 C   0  0  0  0  0  0  0  0  0  0  0  0
    7.9041    7.2256  -11.1821 H   0  0  0  0  0  0  0  0  0  0  0  0
    9.1417    8.9904  -10.5402 H   0  0  0  0  0  0  0  0  0  0  0  0
   10.5035    8.4623  -11.4917 H   0  0  0  0  0  0  0  0  0  0  0  0
   10.6993    9.5858   -8.8376 H   0  0  0  0  0  0  0  0  0  0  0  0
   12.0205    8.9710   -9.8184 H   0  0  0  0  0  0  0  0  0  0  0  0
   12.6648    8.9815   -7.4222 H   0  0  0  0  0  0  0  0  0  0  0  0
   12.6610    7.3723   -8.0528 H   0  0  0  0  0  0  0  0  0  0  0  0
   11.3635    5.7724   -5.0384 H   0  0  0  0  0  0  0  0  0  0  0  0
   12.0199    6.0149   -2.6604 H   0  0  0  0  0  0  0  0  0  0  0  0
   12.3652    8.2822   -1.6854 H   0  0  0  0  0  0  0  0  0  0  0  0
   12.0432   10.2959   -3.0952 H   0  0  0  0  0  0  0  0  0  0  0  0
   10.6498    5.8351   -7.4788 H   0  0  0  0  0  0  0  0  0  0  0  0
    9.3547    6.5396   -6.5169 H   0  0  0  0  0  0  0  0  0  0  0  0
    8.7829    8.1283   -8.3253 H   0  0  0  0  0  0  0  0  0  0  0  0
    8.7501    6.4907   -8.9392 H   0  0  0  0  0  0  0  0  0  0  0  0
    9.4175    4.2911  -14.2341 H   0  0  0  0  0  0  0  0  0  0  0  0
    7.7973    2.4934  -14.7370 H   0  0  0  0  0  0  0  0  0  0  0  0
    5.1760    3.9883  -11.6640 H   0  0  0  0  0  0  0  0  0  0  0  0
    6.7645    5.7712  -11.1424 H   0  0  0  0  0  0  0  0  0  0  0  0
  2  1  2  0
  3  2  1  0
  4  3  1  0
  5  4  1  0
  6  5  1  0
  7  6  1  0
  8  7  1  0
  9  8  1  0
 10  9  2  0
 11 10  1  0
 12 11  2  0
 13 12  1  0
 14  9  1  0
 14 13  2  0
 15 14  1  0
 16  8  1  0
 17  5  1  0
 17 16  1  0
 18  2  1  0
 19 18  1  0
 20 19  2  0
 21 20  1  0
 22 21  1  0
 23 21  2  0
 24 18  2  0
 24 23  1  0
 25  3  1  0
 26  4  1  0
 27  4  1  0
 28  6  1  0
 29  6  1  0
 30  7  1  0
 31  7  1  0
 32 10  1  0
 33 11  1  0
 34 12  1  0
 35 13  1  0
 36 16  1  0
 37 16  1  0
 38 17  1  0
 39 17  1  0
 40 19  1  0
 41 20  1  0
 42 23  1  0
 43 24  1  0
M  END
>  <b_m_subgroup_collapsed>  (332) 
0

>  <r_i_docking_score>  (332) 
-8.2199084058301004

>  <s_m_subgroup_title>  (332) 
glide-dock_SP_D22_pv

>  <s_m_subgroupid>  (332) 
glide-dock_SP_D22_pv

>  <Molecule ChEMBL ID>  (332) 
CHEMBL296953

>  <Standard Type>  (332) 
Ki

>  <Standard Value>  (332) 
66.07

>  <label>  (332) 
1

$$$$
CHEMBL80315
     RDKit          3D

 63 66  0  0  1  0  0  0  0  0999 V2000
   11.5135    6.3540   -6.4873 C   0  0  0  0  0  0  0  0  0  0  0  0
   11.1829    7.7824   -6.5856 N   0  0  0  0  0  0  0  0  0  0  0  0
   11.2635    8.6623   -5.5543 C   0  0  0  0  0  0  0  0  0  0  0  0
   11.0095    9.8607   -5.7046 O   0  0  0  0  0  0  0  0  0  0  0  0
   11.6858    8.1924   -4.2061 C   0  0  0  0  0  0  0  0  0  0  0  0
   11.7265    6.9720   -3.5719 C   0  0  0  0  0  0  0  0  0  0  0  0
   12.2216    7.0382   -2.2469 C   0  0  0  0  0  0  0  0  0  0  0  0
   12.4859    8.3176   -1.8469 C   0  0  0  0  0  0  0  0  0  0  0  0
   12.0862    9.4615   -3.0814 S   0  0  0  0  0  0  0  0  0  0  0  0
   10.7601    8.2222   -7.9262 C   0  0  1  0  0  0  0  0  0  0  0  0
   11.9873    8.2739   -8.8644 C   0  0  0  0  0  0  0  0  0  0  0  0
   11.6086    8.4612  -10.3333 C   0  0  0  0  0  0  0  0  0  0  0  0
   10.5341    7.4427  -10.7675 C   0  0  2  0  0  0  0  0  0  0  0  0
   10.1741    7.5429  -12.2511 C   0  0  0  0  0  0  0  0  0  0  0  0
   11.2859    7.0987  -13.2359 C   0  0  0  0  0  0  0  0  0  0  0  0
   11.1893    5.6825  -13.6781 N   0  0  0  0  0  0  0  0  0  0  0  0
    9.9451    5.2738  -14.4029 C   0  0  0  0  0  0  0  0  0  0  0  0
    9.9208    3.7508  -14.6515 C   0  0  0  0  0  0  0  0  0  0  0  0
   11.1820    3.3164  -15.2349 N   0  0  0  0  0  0  0  0  0  0  0  0
   11.2298    2.5657  -16.4197 C   0  0  0  0  0  0  0  0  0  0  0  0
   11.9020    3.1022  -17.5405 C   0  0  0  0  0  0  0  0  0  0  0  0
   11.9966    2.3707  -18.7379 C   0  0  0  0  0  0  0  0  0  0  0  0
   11.4234    1.0899  -18.8219 C   0  0  0  0  0  0  0  0  0  0  0  0
   10.7580    0.5398  -17.7100 C   0  0  0  0  0  0  0  0  0  0  0  0
   10.0833   -1.0421  -17.8475 Cl  0  0  0  0  0  0  0  0  0  0  0  0
   10.6570    1.2705  -16.5038 C   0  0  0  0  0  0  0  0  0  0  0  0
    9.8844    0.5499  -15.1295 Cl  0  0  0  0  0  0  0  0  0  0  0  0
   12.4180    3.8029  -14.6552 C   0  0  0  0  0  0  0  0  0  0  0  0
   12.3785    5.3125  -14.4770 C   0  0  0  0  0  0  0  0  0  0  0  0
    9.2783    7.6481   -9.9128 C   0  0  0  0  0  0  0  0  0  0  0  0
    9.5687    7.3788   -8.4405 C   0  0  0  0  0  0  0  0  0  0  0  0
   12.4346    6.1678   -5.9413 H   0  0  0  0  0  0  0  0  0  0  0  0
   10.6899    5.8300   -6.0073 H   0  0  0  0  0  0  0  0  0  0  0  0
   11.6639    5.8713   -7.4469 H   0  0  0  0  0  0  0  0  0  0  0  0
   11.4408    6.0170   -3.9794 H   0  0  0  0  0  0  0  0  0  0  0  0
   12.3555    6.1513   -1.6447 H   0  0  0  0  0  0  0  0  0  0  0  0
   12.8609    8.6710   -0.9007 H   0  0  0  0  0  0  0  0  0  0  0  0
   10.3709    9.2415   -7.9054 H   0  0  0  0  0  0  0  0  0  0  0  0
   12.6585    9.0703   -8.5473 H   0  0  0  0  0  0  0  0  0  0  0  0
   12.5814    7.3723   -8.7872 H   0  0  0  0  0  0  0  0  0  0  0  0
   11.2424    9.4750  -10.4761 H   0  0  0  0  0  0  0  0  0  0  0  0
   12.5127    8.3818  -10.9347 H   0  0  0  0  0  0  0  0  0  0  0  0
   10.8861    6.4323  -10.5735 H   0  0  0  0  0  0  0  0  0  0  0  0
    9.2473    7.0030  -12.4231 H   0  0  0  0  0  0  0  0  0  0  0  0
    9.9018    8.5723  -12.4625 H   0  0  0  0  0  0  0  0  0  0  0  0
   11.2860    7.7366  -14.1179 H   0  0  0  0  0  0  0  0  0  0  0  0
   12.2633    7.2594  -12.7836 H   0  0  0  0  0  0  0  0  0  0  0  0
    9.0343    5.5415  -13.8734 H   0  0  0  0  0  0  0  0  0  0  0  0
    9.9092    5.7721  -15.3700 H   0  0  0  0  0  0  0  0  0  0  0  0
    9.7693    3.2166  -13.7119 H   0  0  0  0  0  0  0  0  0  0  0  0
    9.0864    3.4892  -15.3041 H   0  0  0  0  0  0  0  0  0  0  0  0
   12.3465    4.0855  -17.4895 H   0  0  0  0  0  0  0  0  0  0  0  0
   12.5102    2.7918  -19.5903 H   0  0  0  0  0  0  0  0  0  0  0  0
   11.4986    0.5244  -19.7396 H   0  0  0  0  0  0  0  0  0  0  0  0
   12.4860    3.3661  -13.6640 H   0  0  0  0  0  0  0  0  0  0  0  0
   13.2860    3.5098  -15.2452 H   0  0  0  0  0  0  0  0  0  0  0  0
   12.3592    5.8170  -15.4445 H   0  0  0  0  0  0  0  0  0  0  0  0
   13.2858    5.6308  -13.9751 H   0  0  0  0  0  0  0  0  0  0  0  0
    8.8881    8.6591  -10.0396 H   0  0  0  0  0  0  0  0  0  0  0  0
    8.4861    6.9712  -10.2353 H   0  0  0  0  0  0  0  0  0  0  0  0
    9.7375    6.3082   -8.3411 H   0  0  0  0  0  0  0  0  0  0  0  0
    8.6781    7.5924   -7.8464 H   0  0  0  0  0  0  0  0  0  0  0  0
   11.2178    5.1197  -12.8410 H   0  0  0  0  0  0  0  0  0  0  0  0
  2  1  1  0
  3  2  1  0
  4  3  2  0
  5  3  1  0
  6  5  2  0
  7  6  1  0
  8  7  2  0
  9  5  1  0
  9  8  1  0
 10  2  1  0
 11 10  1  0
 12 11  1  0
 13 12  1  0
 14 13  1  0
 15 14  1  0
 16 15  1  0
 17 16  1  0
 18 17  1  0
 19 18  1  0
 20 19  1  0
 21 20  2  0
 22 21  1  0
 23 22  2  0
 24 23  1  0
 25 24  1  0
 26 20  1  0
 26 24  2  0
 27 26  1  0
 28 19  1  0
 29 16  1  0
 29 28  1  0
 30 13  1  0
 31 10  1  0
 31 30  1  0
 32  1  1  0
 33  1  1  0
 34  1  1  0
 35  6  1  0
 36  7  1  0
 37  8  1  0
 10 38  1  1
 39 11  1  0
 40 11  1  0
 41 12  1  0
 42 12  1  0
 13 43  1  6
 44 14  1  0
 45 14  1  0
 46 15  1  0
 47 15  1  0
 48 17  1  0
 49 17  1  0
 50 18  1  0
 51 18  1  0
 52 21  1  0
 53 22  1  0
 54 23  1  0
 55 28  1  0
 56 28  1  0
 57 29  1  0
 58 29  1  0
 59 30  1  0
 60 30  1  0
 61 31  1  0
 62 31  1  0
 63 16  1  0
M  CHG  1  16   1
M  END
>  <b_m_subgroup_collapsed>  (333) 
0

>  <r_i_docking_score>  (333) 
-8.2198428130616694

>  <s_m_subgroup_title>  (333) 
glide-dock_SP_D22_pv

>  <s_m_subgroupid>  (333) 
glide-dock_SP_D22_pv

>  <Molecule ChEMBL ID>  (333) 
CHEMBL80315

>  <Standard Type>  (333) 
Ki

>  <Standard Value>  (333) 
16.5

>  <label>  (333) 
1

$$$$
CHEMBL185436
     RDKit          3D

 55 59  0  0  1  0  0  0  0  0999 V2000
   12.2859    8.2303   -2.1001 C   0  0  0  0  0  0  0  0  0  0  0  0
   12.0862    9.3985   -2.8590 C   0  0  0  0  0  0  0  0  0  0  0  0
   11.7050    9.3153   -4.2109 C   0  0  0  0  0  0  0  0  0  0  0  0
   11.5019    8.0539   -4.8087 C   0  0  0  0  0  0  0  0  0  0  0  0
   11.1060    7.9568   -6.2063 C   0  0  0  0  0  0  0  0  0  0  0  0
   10.1539    7.1139   -6.6527 N   0  0  0  0  0  0  0  0  0  0  0  0
   10.1062    7.2348   -8.0296 C   0  0  0  0  0  0  0  0  0  0  0  0
    9.3458    6.6256   -9.0387 C   0  0  0  0  0  0  0  0  0  0  0  0
    9.5844    6.9805  -10.3828 C   0  0  0  0  0  0  0  0  0  0  0  0
    8.7350    6.3789  -11.4847 C   0  0  0  0  0  0  0  0  0  0  0  0
    9.3533    5.0950  -12.0676 C   0  0  0  0  0  0  0  0  0  0  0  0
    8.5795    4.5121  -13.1710 N   0  0  0  0  0  0  0  0  0  0  0  0
    9.2924    3.2982  -13.6024 C   0  0  0  0  0  0  0  0  0  0  0  0
    8.5311    2.5332  -14.7060 C   0  0  0  0  0  0  0  0  0  0  0  0
    7.1876    2.2260  -14.2395 N   0  0  0  0  0  0  0  0  0  0  0  0
    6.4849    1.0827  -14.6528 C   0  0  0  0  0  0  0  0  0  0  0  0
    6.7552    0.4513  -15.8889 C   0  0  0  0  0  0  0  0  0  0  0  0
    5.9589   -0.6275  -16.3280 C   0  0  0  0  0  0  0  0  0  0  0  0
    4.8941   -1.0955  -15.5361 C   0  0  0  0  0  0  0  0  0  0  0  0
    4.6303   -0.4896  -14.2945 C   0  0  0  0  0  0  0  0  0  0  0  0
    5.4290    0.5819  -13.8482 C   0  0  0  0  0  0  0  0  0  0  0  0
    6.4374    3.3956  -13.7950 C   0  0  0  0  0  0  0  0  0  0  0  0
    7.2244    4.1610  -12.7161 C   0  0  0  0  0  0  0  0  0  0  0  0
   10.5879    7.9218  -10.6969 C   0  0  0  0  0  0  0  0  0  0  0  0
   11.3316    8.5487   -9.6743 C   0  0  0  0  0  0  0  0  0  0  0  0
   11.0939    8.2156   -8.3225 C   0  0  0  0  0  0  0  0  0  0  0  0
   11.6861    8.6838   -7.1638 N   0  0  0  0  0  0  0  0  0  0  0  0
   11.6878    6.8849   -4.0421 C   0  0  0  0  0  0  0  0  0  0  0  0
   12.0862    6.9704   -2.6944 C   0  0  0  0  0  0  0  0  0  0  0  0
   12.5748    8.3053   -1.0591 H   0  0  0  0  0  0  0  0  0  0  0  0
   12.2177   10.3675   -2.4020 H   0  0  0  0  0  0  0  0  0  0  0  0
   11.5629   10.2169   -4.7883 H   0  0  0  0  0  0  0  0  0  0  0  0
    8.5675    5.9188   -8.7866 H   0  0  0  0  0  0  0  0  0  0  0  0
    7.7579    6.1720  -11.0477 H   0  0  0  0  0  0  0  0  0  0  0  0
    8.5787    7.1195  -12.2702 H   0  0  0  0  0  0  0  0  0  0  0  0
   10.3566    5.3239  -12.4301 H   0  0  0  0  0  0  0  0  0  0  0  0
    9.4687    4.3637  -11.2665 H   0  0  0  0  0  0  0  0  0  0  0  0
   10.2824    3.5730  -13.9681 H   0  0  0  0  0  0  0  0  0  0  0  0
    9.4497    2.6351  -12.7490 H   0  0  0  0  0  0  0  0  0  0  0  0
    8.4737    3.1280  -15.6191 H   0  0  0  0  0  0  0  0  0  0  0  0
    9.0711    1.6163  -14.9453 H   0  0  0  0  0  0  0  0  0  0  0  0
    7.5497    0.8055  -16.5294 H   0  0  0  0  0  0  0  0  0  0  0  0
    6.1664   -1.0968  -17.2785 H   0  0  0  0  0  0  0  0  0  0  0  0
    4.2829   -1.9177  -15.8803 H   0  0  0  0  0  0  0  0  0  0  0  0
    3.8039   -0.8404  -13.6955 H   0  0  0  0  0  0  0  0  0  0  0  0
    5.2076    1.0352  -12.8928 H   0  0  0  0  0  0  0  0  0  0  0  0
    6.2548    4.0463  -14.6466 H   0  0  0  0  0  0  0  0  0  0  0  0
    5.4561    3.1316  -13.4039 H   0  0  0  0  0  0  0  0  0  0  0  0
    7.2651    3.5831  -11.7935 H   0  0  0  0  0  0  0  0  0  0  0  0
    6.6618    5.0652  -12.4887 H   0  0  0  0  0  0  0  0  0  0  0  0
   10.7716    8.1729  -11.7305 H   0  0  0  0  0  0  0  0  0  0  0  0
   12.0893    9.2820   -9.9183 H   0  0  0  0  0  0  0  0  0  0  0  0
   11.5347    5.9130   -4.4895 H   0  0  0  0  0  0  0  0  0  0  0  0
   12.2302    6.0704   -2.1157 H   0  0  0  0  0  0  0  0  0  0  0  0
    9.5938    6.5109   -6.0684 H   0  0  0  0  0  0  0  0  0  0  0  0
  2  1  2  0
  3  2  1  0
  4  3  2  0
  5  4  1  0
  6  5  1  0
  7  6  1  0
  8  7  2  0
  9  8  1  0
 10  9  1  0
 11 10  1  0
 12 11  1  0
 13 12  1  0
 14 13  1  0
 15 14  1  0
 16 15  1  0
 17 16  2  0
 18 17  1  0
 19 18  2  0
 20 19  1  0
 21 16  1  0
 21 20  2  0
 22 15  1  0
 23 12  1  0
 23 22  1  0
 24  9  2  0
 25 24  1  0
 26  7  1  0
 26 25  2  0
 27  5  2  0
 27 26  1  0
 28  4  1  0
 29  1  1  0
 29 28  2  0
 30  1  1  0
 31  2  1  0
 32  3  1  0
 33  8  1  0
 34 10  1  0
 35 10  1  0
 36 11  1  0
 37 11  1  0
 38 13  1  0
 39 13  1  0
 40 14  1  0
 41 14  1  0
 42 17  1  0
 43 18  1  0
 44 19  1  0
 45 20  1  0
 46 21  1  0
 47 22  1  0
 48 22  1  0
 49 23  1  0
 50 23  1  0
 51 24  1  0
 52 25  1  0
 53 28  1  0
 54 29  1  0
 55  6  1  0
M  END
>  <b_m_subgroup_collapsed>  (334) 
0

>  <r_i_docking_score>  (334) 
-8.2167597309745108

>  <s_m_subgroup_title>  (334) 
glide-dock_SP_D22_pv

>  <s_m_subgroupid>  (334) 
glide-dock_SP_D22_pv

>  <Molecule ChEMBL ID>  (334) 
CHEMBL185436

>  <Standard Type>  (334) 
Ki

>  <Standard Value>  (334) 
31.62

>  <label>  (334) 
1

$$$$
CHEMBL1087818
     RDKit          3D

 68 72  0  0  1  0  0  0  0  0999 V2000
    5.8178   -0.6403  -16.8758 C   0  0  0  0  0  0  0  0  0  0  0  0
    7.2956    0.4094  -17.1578 S   0  0  0  0  0  0  0  0  0  0  0  0
    6.8853    1.6962  -17.7414 O   0  0  0  0  0  0  0  0  0  0  0  0
    8.3577   -0.3942  -17.7801 O   0  0  0  0  0  0  0  0  0  0  0  0
    7.8617    0.7656  -15.5633 N   0  0  0  0  0  0  0  0  0  0  0  0
    7.2444    1.6139  -14.6437 C   0  0  0  0  0  0  0  0  0  0  0  0
    6.0860    1.2112  -13.9501 C   0  0  0  0  0  0  0  0  0  0  0  0
    5.4633    2.0942  -13.0463 C   0  0  0  0  0  0  0  0  0  0  0  0
    6.0085    3.3724  -12.8110 C   0  0  0  0  0  0  0  0  0  0  0  0
    7.1870    3.7730  -13.4859 C   0  0  0  0  0  0  0  0  0  0  0  0
    7.7841    4.9993  -13.3234 O   0  0  0  0  0  0  0  0  0  0  0  0
    7.6479    5.6306  -12.0612 C   0  0  0  0  0  0  0  0  0  0  0  0
    8.6488    6.7959  -12.0456 C   0  0  0  0  0  0  0  0  0  0  0  0
    8.8860    7.3025  -10.6720 N   0  0  1  0  0  0  0  0  0  0  0  0
    9.7351    6.3834   -9.8380 C   0  0  0  0  0  0  0  0  0  0  0  0
   11.0040    7.0076   -9.1863 C   0  0  1  0  0  0  0  0  0  0  0  0
   12.1511    7.3445  -10.1542 C   0  0  0  0  0  0  0  0  0  0  0  0
   11.6599    8.5553  -10.9037 C   0  0  0  0  0  0  0  0  0  0  0  0
   10.5389    9.1084  -10.0130 C   0  0  1  0  0  0  0  0  0  0  0  0
    9.1654    8.7698  -10.6036 C   0  0  0  0  0  0  0  0  0  0  0  0
   10.7500    8.4058   -8.6906 C   0  0  1  0  0  0  0  0  0  0  0  0
    9.6876    8.5433   -7.6079 C   0  0  0  0  0  0  0  0  0  0  0  0
   10.4167    8.6985   -6.3063 C   0  0  0  0  0  0  0  0  0  0  0  0
   10.7108    9.9891   -5.8491 C   0  0  0  0  0  0  0  0  0  0  0  0
   11.2623   10.1726   -4.5908 C   0  0  0  0  0  0  0  0  0  0  0  0
   11.7448    9.0834   -3.8707 C   0  0  0  0  0  0  0  0  0  0  0  0
   11.5792    7.7839   -4.3951 C   0  0  0  0  0  0  0  0  0  0  0  0
   10.8856    7.5784   -5.5985 C   0  0  0  0  0  0  0  0  0  0  0  0
   12.0424    6.6768   -3.6807 N   0  0  0  0  0  0  0  0  0  0  0  0
   12.4406    6.7484   -2.4133 C   0  0  0  0  0  0  0  0  0  0  0  0
   12.8860    5.7723   -1.8468 O   0  0  0  0  0  0  0  0  0  0  0  0
   12.2937    8.0705   -1.6548 C   0  0  0  0  0  0  0  0  0  0  0  0
   12.4507    9.2890   -2.5515 C   0  0  0  0  0  0  0  0  0  0  0  0
    7.7922    2.8877  -14.3998 C   0  0  0  0  0  0  0  0  0  0  0  0
    5.4467   -0.9990  -17.8350 H   0  0  0  0  0  0  0  0  0  0  0  0
    6.0892   -1.4943  -16.2545 H   0  0  0  0  0  0  0  0  0  0  0  0
    5.0388   -0.0572  -16.3892 H   0  0  0  0  0  0  0  0  0  0  0  0
    8.8668    0.8554  -15.5599 H   0  0  0  0  0  0  0  0  0  0  0  0
    5.6666    0.2297  -14.1129 H   0  0  0  0  0  0  0  0  0  0  0  0
    4.5651    1.7910  -12.5308 H   0  0  0  0  0  0  0  0  0  0  0  0
    5.5091    4.0291  -12.1134 H   0  0  0  0  0  0  0  0  0  0  0  0
    6.6333    6.0012  -11.9082 H   0  0  0  0  0  0  0  0  0  0  0  0
    7.8663    4.9121  -11.2694 H   0  0  0  0  0  0  0  0  0  0  0  0
    9.6003    6.5004  -12.4909 H   0  0  0  0  0  0  0  0  0  0  0  0
    8.2377    7.5789  -12.6826 H   0  0  0  0  0  0  0  0  0  0  0  0
    9.0857    5.9960   -9.0524 H   0  0  0  0  0  0  0  0  0  0  0  0
   10.0360    5.5040  -10.4091 H   0  0  0  0  0  0  0  0  0  0  0  0
   11.3148    6.3621   -8.3675 H   0  0  0  0  0  0  0  0  0  0  0  0
   12.4291    6.5724  -10.8492 H   0  0  0  0  0  0  0  0  0  0  0  0
   13.0539    7.6018   -9.5963 H   0  0  0  0  0  0  0  0  0  0  0  0
   11.2912    8.1725  -11.8571 H   0  0  0  0  0  0  0  0  0  0  0  0
   12.4682    9.2703  -11.0572 H   0  0  0  0  0  0  0  0  0  0  0  0
   10.6620   10.1724   -9.8469 H   0  0  0  0  0  0  0  0  0  0  0  0
    9.0543    9.2447  -11.5785 H   0  0  0  0  0  0  0  0  0  0  0  0
    8.3962    9.2290   -9.9846 H   0  0  0  0  0  0  0  0  0  0  0  0
   11.6802    8.8245   -8.2924 H   0  0  0  0  0  0  0  0  0  0  0  0
    9.0702    9.4244   -7.7765 H   0  0  0  0  0  0  0  0  0  0  0  0
    9.0024    7.6976   -7.5573 H   0  0  0  0  0  0  0  0  0  0  0  0
   10.4859   10.8639   -6.4324 H   0  0  0  0  0  0  0  0  0  0  0  0
   11.2860   11.1726   -4.2108 H   0  0  0  0  0  0  0  0  0  0  0  0
   10.7091    6.5792   -5.9710 H   0  0  0  0  0  0  0  0  0  0  0  0
   12.0420    5.7752   -4.1353 H   0  0  0  0  0  0  0  0  0  0  0  0
   11.2862    8.0680   -1.2543 H   0  0  0  0  0  0  0  0  0  0  0  0
   12.9863    8.1273   -0.8157 H   0  0  0  0  0  0  0  0  0  0  0  0
   13.4999    9.4874   -2.7214 H   0  0  0  0  0  0  0  0  0  0  0  0
   12.0699   10.1725   -2.0472 H   0  0  0  0  0  0  0  0  0  0  0  0
    8.6833    3.1990  -14.9255 H   0  0  0  0  0  0  0  0  0  0  0  0
    7.9437    7.2929  -10.2588 H   0  0  0  0  0  0  0  0  0  0  0  0
  2  1  1  0
  3  2  2  0
  4  2  2  0
  5  2  1  0
  6  5  1  0
  7  6  2  0
  8  7  1  0
  9  8  2  0
 10  9  1  0
 11 10  1  0
 12 11  1  0
 13 12  1  0
 14 13  1  0
 15 14  1  0
 16 15  1  0
 17 16  1  0
 18 17  1  0
 19 18  1  0
 20 14  1  0
 20 19  1  0
 21 16  1  0
 21 19  1  0
 22 21  1  0
 23 22  1  0
 24 23  1  0
 25 24  2  0
 26 25  1  0
 27 26  2  0
 28 23  2  0
 28 27  1  0
 29 27  1  0
 30 29  1  0
 31 30  2  0
 32 30  1  0
 33 26  1  0
 33 32  1  0
 34  6  1  0
 34 10  2  0
 35  1  1  0
 36  1  1  0
 37  1  1  0
 38  5  1  0
 39  7  1  0
 40  8  1  0
 41  9  1  0
 42 12  1  0
 43 12  1  0
 44 13  1  0
 45 13  1  0
 46 15  1  0
 47 15  1  0
 16 48  1  1
 49 17  1  0
 50 17  1  0
 51 18  1  0
 52 18  1  0
 19 53  1  1
 54 20  1  0
 55 20  1  0
 21 56  1  1
 57 22  1  0
 58 22  1  0
 59 24  1  0
 60 25  1  0
 61 28  1  0
 62 29  1  0
 63 32  1  0
 64 32  1  0
 65 33  1  0
 66 33  1  0
 67 34  1  0
 14 68  1  1
M  CHG  1  14   1
M  END
>  <b_m_subgroup_collapsed>  (335) 
0

>  <r_i_docking_score>  (335) 
-8.2150668971704892

>  <s_m_subgroup_title>  (335) 
glide-dock_SP_D22_pv

>  <s_m_subgroupid>  (335) 
glide-dock_SP_D22_pv

>  <Molecule ChEMBL ID>  (335) 
CHEMBL1087818

>  <Standard Type>  (335) 
Ki

>  <Standard Value>  (335) 
11.0

>  <label>  (335) 
1

$$$$
CHEMBL3739820
     RDKit          3D

 56 59  0  0  1  0  0  0  0  0999 V2000
   12.4859    8.5821   -1.9615 Cl  0  0  0  0  0  0  0  0  0  0  0  0
   11.8529    8.3488   -3.5468 C   0  0  0  0  0  0  0  0  0  0  0  0
   11.4628    9.4492   -4.3326 C   0  0  0  0  0  0  0  0  0  0  0  0
   10.8915    9.2459   -5.6065 C   0  0  0  0  0  0  0  0  0  0  0  0
   10.6970    7.9348   -6.1087 C   0  0  0  0  0  0  0  0  0  0  0  0
   10.0772    7.6830   -7.3516 N   0  0  0  0  0  0  0  0  0  0  0  0
    9.0440    6.6552   -7.4084 C   0  0  0  0  0  0  0  0  0  0  0  0
    9.0111    6.0067   -8.8008 C   0  0  0  0  0  0  0  0  0  0  0  0
    8.8860    7.0069   -9.8990 N   0  0  0  0  0  0  0  0  0  0  0  0
    9.0595    6.4090  -11.2481 C   0  0  0  0  0  0  0  0  0  0  0  0
    7.9867    5.3784  -11.6441 C   0  0  0  0  0  0  0  0  0  0  0  0
    8.2670    4.7483  -13.0197 C   0  0  0  0  0  0  0  0  0  0  0  0
    9.4512    3.7581  -12.9912 C   0  0  0  0  0  0  0  0  0  0  0  0
    9.7259    3.1364  -14.2783 N   0  0  0  0  0  0  0  0  0  0  0  0
    8.9777    2.0018  -14.6595 C   0  0  0  0  0  0  0  0  0  0  0  0
    9.4972    1.0526  -15.4253 N   0  0  0  0  0  0  0  0  0  0  0  0
    8.4229    0.1733  -15.6254 O   0  0  0  0  0  0  0  0  0  0  0  0
    7.3736    0.7013  -14.9461 C   0  0  0  0  0  0  0  0  0  0  0  0
    6.0658    0.0616  -15.0450 C   0  0  0  0  0  0  0  0  0  0  0  0
    5.0819    0.3057  -14.0603 C   0  0  0  0  0  0  0  0  0  0  0  0
    3.7857   -0.2276  -14.2059 C   0  0  0  0  0  0  0  0  0  0  0  0
    3.4789   -1.0278  -15.3211 C   0  0  0  0  0  0  0  0  0  0  0  0
    4.4648   -1.3156  -16.2801 C   0  0  0  0  0  0  0  0  0  0  0  0
    5.7542   -0.7690  -16.1445 C   0  0  0  0  0  0  0  0  0  0  0  0
    7.6754    1.8280  -14.3052 N   0  0  0  0  0  0  0  0  0  0  0  0
    9.8086    8.1708   -9.7458 C   0  0  0  0  0  0  0  0  0  0  0  0
    9.8725    8.7490   -8.3204 C   0  0  0  0  0  0  0  0  0  0  0  0
   11.1417    6.8476   -5.3225 C   0  0  0  0  0  0  0  0  0  0  0  0
   11.6980    7.0461   -4.0475 C   0  0  0  0  0  0  0  0  0  0  0  0
   11.5787   10.4501   -3.9452 H   0  0  0  0  0  0  0  0  0  0  0  0
   10.5732   10.1115   -6.1665 H   0  0  0  0  0  0  0  0  0  0  0  0
    8.0861    7.1285   -7.1966 H   0  0  0  0  0  0  0  0  0  0  0  0
    9.1682    5.8847   -6.6510 H   0  0  0  0  0  0  0  0  0  0  0  0
    8.1760    5.3073   -8.8364 H   0  0  0  0  0  0  0  0  0  0  0  0
    9.9229    5.4240   -8.9431 H   0  0  0  0  0  0  0  0  0  0  0  0
   10.0526    5.9630  -11.2999 H   0  0  0  0  0  0  0  0  0  0  0  0
    9.0447    7.2095  -11.9899 H   0  0  0  0  0  0  0  0  0  0  0  0
    7.0121    5.8685  -11.6635 H   0  0  0  0  0  0  0  0  0  0  0  0
    7.9070    4.5778  -10.9092 H   0  0  0  0  0  0  0  0  0  0  0  0
    8.4471    5.5292  -13.7596 H   0  0  0  0  0  0  0  0  0  0  0  0
    7.3620    4.2358  -13.3437 H   0  0  0  0  0  0  0  0  0  0  0  0
    9.2863    2.9812  -12.2468 H   0  0  0  0  0  0  0  0  0  0  0  0
   10.3625    4.2719  -12.6889 H   0  0  0  0  0  0  0  0  0  0  0  0
   10.6921    3.1147  -14.5688 H   0  0  0  0  0  0  0  0  0  0  0  0
    5.3074    0.9393  -13.2143 H   0  0  0  0  0  0  0  0  0  0  0  0
    3.0193   -0.0119  -13.4754 H   0  0  0  0  0  0  0  0  0  0  0  0
    2.4862   -1.4271  -15.4485 H   0  0  0  0  0  0  0  0  0  0  0  0
    4.2253   -1.9467  -17.1242 H   0  0  0  0  0  0  0  0  0  0  0  0
    6.4972   -0.9805  -16.8998 H   0  0  0  0  0  0  0  0  0  0  0  0
   10.8151    7.8558  -10.0265 H   0  0  0  0  0  0  0  0  0  0  0  0
    9.5224    8.9575  -10.4449 H   0  0  0  0  0  0  0  0  0  0  0  0
    8.9495    9.2803   -8.0820 H   0  0  0  0  0  0  0  0  0  0  0  0
   10.6894    9.4684   -8.2765 H   0  0  0  0  0  0  0  0  0  0  0  0
   11.0559    5.8351   -5.6838 H   0  0  0  0  0  0  0  0  0  0  0  0
   12.0024    6.1962   -3.4537 H   0  0  0  0  0  0  0  0  0  0  0  0
    7.9259    7.3724   -9.8552 H   0  0  0  0  0  0  0  0  0  0  0  0
  2  1  1  0
  3  2  1  0
  4  3  2  0
  5  4  1  0
  6  5  1  0
  7  6  1  0
  8  7  1  0
  9  8  1  0
 10  9  1  0
 11 10  1  0
 12 11  1  0
 13 12  1  0
 14 13  1  0
 15 14  1  0
 16 15  2  0
 17 16  1  0
 18 17  1  0
 19 18  1  0
 20 19  2  0
 21 20  1  0
 22 21  2  0
 23 22  1  0
 24 19  1  0
 24 23  2  0
 25 15  1  0
 25 18  2  0
 26  9  1  0
 27  6  1  0
 27 26  1  0
 28  5  2  0
 29  2  2  0
 29 28  1  0
 30  3  1  0
 31  4  1  0
 32  7  1  0
 33  7  1  0
 34  8  1  0
 35  8  1  0
 36 10  1  0
 37 10  1  0
 38 11  1  0
 39 11  1  0
 40 12  1  0
 41 12  1  0
 42 13  1  0
 43 13  1  0
 44 14  1  0
 45 20  1  0
 46 21  1  0
 47 22  1  0
 48 23  1  0
 49 24  1  0
 50 26  1  0
 51 26  1  0
 52 27  1  0
 53 27  1  0
 54 28  1  0
 55 29  1  0
 56  9  1  0
M  CHG  1   9   1
M  END
>  <b_m_subgroup_collapsed>  (336) 
0

>  <r_i_docking_score>  (336) 
-8.2109016137587396

>  <s_m_subgroup_title>  (336) 
glide-dock_SP_D22_pv

>  <s_m_subgroupid>  (336) 
glide-dock_SP_D22_pv

>  <Molecule ChEMBL ID>  (336) 
CHEMBL3739820

>  <Standard Type>  (336) 
Ki

>  <Standard Value>  (336) 
79630.0

>  <label>  (336) 
0

$$$$
CHEMBL4077251
     RDKit          3D

 61 65  0  0  1  0  0  0  0  0999 V2000
    5.5953   -0.3488  -14.3440 C   0  0  0  0  0  0  0  0  0  0  0  0
    6.4729    0.7598  -14.1973 O   0  0  0  0  0  0  0  0  0  0  0  0
    7.3047    1.0930  -15.2496 C   0  0  0  0  0  0  0  0  0  0  0  0
    7.3222    0.3505  -16.4602 C   0  0  0  0  0  0  0  0  0  0  0  0
    8.1919    0.6942  -17.5050 C   0  0  0  0  0  0  0  0  0  0  0  0
    9.0676    1.7748  -17.3426 C   0  0  0  0  0  0  0  0  0  0  0  0
    9.0588    2.5062  -16.1425 C   0  0  0  0  0  0  0  0  0  0  0  0
    8.1730    2.2113  -15.0747 C   0  0  0  0  0  0  0  0  0  0  0  0
    8.1901    2.9724  -13.8647 N   0  0  0  0  0  0  0  0  0  0  0  0
    8.7881    4.2994  -13.8733 C   0  0  0  0  0  0  0  0  0  0  0  0
    7.7392    4.6351  -12.8110 C   0  0  0  0  0  0  0  0  0  0  0  0
    7.1911    6.0444  -12.6375 C   0  0  0  0  0  0  0  0  0  0  0  0
    8.0306    6.1717  -11.4468 N   0  0  0  0  0  0  0  0  0  0  0  0
    9.2914    6.9068  -11.6563 C   0  0  0  0  0  0  0  0  0  0  0  0
    9.0353    8.4047  -11.4694 C   0  0  0  0  0  0  0  0  0  0  0  0
    9.1157    8.7947   -9.9941 C   0  0  0  0  0  0  0  0  0  0  0  0
   10.8444    8.8293   -9.4473 S   0  0  0  0  0  0  0  0  0  0  0  0
   10.6578    8.1589   -7.8319 C   0  0  0  0  0  0  0  0  0  0  0  0
    9.9013    7.1079   -7.5172 N   0  0  0  0  0  0  0  0  0  0  0  0
   10.0941    6.9203   -6.1685 N   0  0  0  0  0  0  0  0  0  0  0  0
   10.9617    7.8597   -5.7832 C   0  0  0  0  0  0  0  0  0  0  0  0
   11.4767    7.9695   -4.4295 C   0  0  0  0  0  0  0  0  0  0  0  0
   11.9338    6.8165   -3.7628 C   0  0  0  0  0  0  0  0  0  0  0  0
   12.4580    6.9160   -2.4640 C   0  0  0  0  0  0  0  0  0  0  0  0
   12.5195    8.1708   -1.8307 C   0  0  0  0  0  0  0  0  0  0  0  0
   12.0800    9.3243   -2.4949 C   0  0  0  0  0  0  0  0  0  0  0  0
   11.5331    9.2221   -3.7810 C   0  0  0  0  0  0  0  0  0  0  0  0
   11.3355    8.6634   -6.7905 N   0  0  0  0  0  0  0  0  0  0  0  0
   12.2567    9.7722   -6.7901 C   0  0  0  0  0  0  0  0  0  0  0  0
    8.1283    4.7160  -11.3359 C   0  0  0  0  0  0  0  0  0  0  0  0
    6.9127    3.4851  -13.3878 C   0  0  0  0  0  0  0  0  0  0  0  0
    4.9949   -0.4524  -13.4411 H   0  0  0  0  0  0  0  0  0  0  0  0
    4.9042   -0.2054  -15.1769 H   0  0  0  0  0  0  0  0  0  0  0  0
    6.1459   -1.2806  -14.4827 H   0  0  0  0  0  0  0  0  0  0  0  0
    6.6796   -0.5028  -16.6142 H   0  0  0  0  0  0  0  0  0  0  0  0
    8.1947    0.1203  -18.4199 H   0  0  0  0  0  0  0  0  0  0  0  0
    9.7543    2.0392  -18.1326 H   0  0  0  0  0  0  0  0  0  0  0  0
    9.7657    3.3162  -16.0536 H   0  0  0  0  0  0  0  0  0  0  0  0
    8.6370    4.8487  -14.8036 H   0  0  0  0  0  0  0  0  0  0  0  0
    9.8217    4.3214  -13.5282 H   0  0  0  0  0  0  0  0  0  0  0  0
    6.1294    6.0707  -12.3830 H   0  0  0  0  0  0  0  0  0  0  0  0
    7.4385    6.7438  -13.4366 H   0  0  0  0  0  0  0  0  0  0  0  0
    9.6962    6.7077  -12.6472 H   0  0  0  0  0  0  0  0  0  0  0  0
   10.0417    6.5513  -10.9493 H   0  0  0  0  0  0  0  0  0  0  0  0
    8.0623    8.6843  -11.8751 H   0  0  0  0  0  0  0  0  0  0  0  0
    9.7579    8.9726  -12.0440 H   0  0  0  0  0  0  0  0  0  0  0  0
    8.5158    8.1126   -9.3939 H   0  0  0  0  0  0  0  0  0  0  0  0
    8.6745    9.7723   -9.8435 H   0  0  0  0  0  0  0  0  0  0  0  0
   11.8857    5.8520   -4.2489 H   0  0  0  0  0  0  0  0  0  0  0  0
   12.8042    6.0298   -1.9520 H   0  0  0  0  0  0  0  0  0  0  0  0
   12.9197    8.2471   -0.8294 H   0  0  0  0  0  0  0  0  0  0  0  0
   12.1229   10.2812   -2.0027 H   0  0  0  0  0  0  0  0  0  0  0  0
   11.1569   10.1120   -4.2645 H   0  0  0  0  0  0  0  0  0  0  0  0
   13.0530    9.5514   -7.4950 H   0  0  0  0  0  0  0  0  0  0  0  0
   11.6878   10.6711   -7.0461 H   0  0  0  0  0  0  0  0  0  0  0  0
   12.7555    9.9182   -5.8374 H   0  0  0  0  0  0  0  0  0  0  0  0
    9.1222    4.3314  -11.1016 H   0  0  0  0  0  0  0  0  0  0  0  0
    7.3680    4.3045  -10.6709 H   0  0  0  0  0  0  0  0  0  0  0  0
    6.4176    2.8628  -12.6416 H   0  0  0  0  0  0  0  0  0  0  0  0
    6.2451    3.7869  -14.1979 H   0  0  0  0  0  0  0  0  0  0  0  0
    7.4855    6.6143  -10.7004 H   0  0  0  0  0  0  0  0  0  0  0  0
  2  1  1  0
  3  2  1  0
  4  3  2  0
  5  4  1  0
  6  5  2  0
  7  6  1  0
  8  3  1  0
  8  7  2  0
  9  8  1  0
 10  9  1  0
 11 10  1  0
 12 11  1  0
 13 12  1  0
 14 13  1  0
 15 14  1  0
 16 15  1  0
 17 16  1  0
 18 17  1  0
 19 18  2  0
 20 19  1  0
 21 20  2  0
 22 21  1  0
 23 22  2  0
 24 23  1  0
 25 24  2  0
 26 25  1  0
 27 22  1  0
 27 26  2  0
 28 18  1  0
 28 21  1  0
 29 28  1  0
 30 11  1  0
 30 13  1  0
 31  9  1  0
 31 11  1  0
 32  1  1  0
 33  1  1  0
 34  1  1  0
 35  4  1  0
 36  5  1  0
 37  6  1  0
 38  7  1  0
 39 10  1  0
 40 10  1  0
 41 12  1  0
 42 12  1  0
 43 14  1  0
 44 14  1  0
 45 15  1  0
 46 15  1  0
 47 16  1  0
 48 16  1  0
 49 23  1  0
 50 24  1  0
 51 25  1  0
 52 26  1  0
 53 27  1  0
 54 29  1  0
 55 29  1  0
 56 29  1  0
 57 30  1  0
 58 30  1  0
 59 31  1  0
 60 31  1  0
 61 13  1  0
M  CHG  1  13   1
M  END
>  <b_m_subgroup_collapsed>  (337) 
0

>  <r_i_docking_score>  (337) 
-8.2101922271082692

>  <s_m_subgroup_title>  (337) 
glide-dock_SP_D22_pv

>  <s_m_subgroupid>  (337) 
glide-dock_SP_D22_pv

>  <Molecule ChEMBL ID>  (337) 
CHEMBL4077251

>  <Standard Type>  (337) 
Ki

>  <Standard Value>  (337) 
21216.0

>  <label>  (337) 
0

$$$$
CHEMBL19215
     RDKit          3D

 60 64  0  0  1  0  0  0  0  0999 V2000
   12.6990    7.3061  -15.4263 C   0  0  0  0  0  0  0  0  0  0  0  0
   12.7458    6.3258  -14.3127 N   0  0  1  0  0  0  0  0  0  0  0  0
   12.5440    6.9297  -12.9707 C   0  0  0  0  0  0  0  0  0  0  0  0
   11.0811    7.2770  -12.6962 C   0  0  2  0  0  0  0  0  0  0  0  0
   10.8375    8.0096  -11.3577 C   0  0  0  0  0  0  0  0  0  0  0  0
   10.6778    7.1595  -10.1879 N   0  0  0  0  0  0  0  0  0  0  0  0
   10.1217    7.6604   -9.0262 C   0  0  0  0  0  0  0  0  0  0  0  0
    9.6765    8.7983   -8.8777 O   0  0  0  0  0  0  0  0  0  0  0  0
   10.1641    6.7133   -8.0757 O   0  0  0  0  0  0  0  0  0  0  0  0
    9.6015    6.9705   -6.7937 C   0  0  0  0  0  0  0  0  0  0  0  0
   10.5513    7.6895   -5.8471 C   0  0  0  0  0  0  0  0  0  0  0  0
   10.6614    9.0938   -5.8936 C   0  0  0  0  0  0  0  0  0  0  0  0
   11.4844    9.7728   -4.9812 C   0  0  0  0  0  0  0  0  0  0  0  0
   12.1891    9.0566   -3.9953 C   0  0  0  0  0  0  0  0  0  0  0  0
   12.0861    7.6537   -3.9430 C   0  0  0  0  0  0  0  0  0  0  0  0
   11.2859    6.9711   -4.8804 C   0  0  0  0  0  0  0  0  0  0  0  0
   10.1559    6.0592  -12.9285 C   0  0  0  0  0  0  0  0  0  0  0  0
   10.4101    5.3695  -14.2906 C   0  0  2  0  0  0  0  0  0  0  0  0
    9.5520    4.1112  -14.4659 C   0  0  0  0  0  0  0  0  0  0  0  0
    8.2586    3.8627  -13.9616 C   0  0  0  0  0  0  0  0  0  0  0  0
    7.6297    2.6369  -14.2467 C   0  0  0  0  0  0  0  0  0  0  0  0
    8.3101    1.6618  -14.9999 C   0  0  0  0  0  0  0  0  0  0  0  0
    9.5825    1.9026  -15.4954 C   0  0  0  0  0  0  0  0  0  0  0  0
   10.1928    3.1263  -15.2498 C   0  0  0  0  0  0  0  0  0  0  0  0
   11.4360    3.0446  -15.9176 C   0  0  0  0  0  0  0  0  0  0  0  0
   11.5865    1.8282  -16.5266 C   0  0  0  0  0  0  0  0  0  0  0  0
   10.4281    1.1175  -16.2419 N   0  0  0  0  0  0  0  0  0  0  0  0
   10.1165   -0.2403  -16.6461 C   0  0  0  0  0  0  0  0  0  0  0  0
   12.2351    4.3121  -15.7820 C   0  0  0  0  0  0  0  0  0  0  0  0
   11.9268    5.0904  -14.4792 C   0  0  1  0  0  0  0  0  0  0  0  0
   11.6857    7.6316  -15.6414 H   0  0  0  0  0  0  0  0  0  0  0  0
   13.1226    6.8878  -16.3389 H   0  0  0  0  0  0  0  0  0  0  0  0
   13.2858    8.1936  -15.1852 H   0  0  0  0  0  0  0  0  0  0  0  0
   12.8860    6.2021  -12.2468 H   0  0  0  0  0  0  0  0  0  0  0  0
   13.1850    7.8064  -12.8536 H   0  0  0  0  0  0  0  0  0  0  0  0
   10.8861    8.0310  -13.4468 H   0  0  0  0  0  0  0  0  0  0  0  0
   11.6458    8.7062  -11.1310 H   0  0  0  0  0  0  0  0  0  0  0  0
    9.9309    8.6097  -11.4690 H   0  0  0  0  0  0  0  0  0  0  0  0
   10.9672    6.1942  -10.1811 H   0  0  0  0  0  0  0  0  0  0  0  0
    8.6751    7.5401   -6.8873 H   0  0  0  0  0  0  0  0  0  0  0  0
    9.3188    6.0184   -6.3480 H   0  0  0  0  0  0  0  0  0  0  0  0
   10.1007    9.6635   -6.6168 H   0  0  0  0  0  0  0  0  0  0  0  0
   11.5555   10.8474   -5.0452 H   0  0  0  0  0  0  0  0  0  0  0  0
   12.8108    9.5816   -3.2847 H   0  0  0  0  0  0  0  0  0  0  0  0
   12.6268    7.0990   -3.1906 H   0  0  0  0  0  0  0  0  0  0  0  0
   11.2066    5.8945   -4.8311 H   0  0  0  0  0  0  0  0  0  0  0  0
   10.3044    5.3258  -12.1354 H   0  0  0  0  0  0  0  0  0  0  0  0
    9.1164    6.3803  -12.8529 H   0  0  0  0  0  0  0  0  0  0  0  0
   10.0944    6.0287  -15.0965 H   0  0  0  0  0  0  0  0  0  0  0  0
    7.7421    4.6026  -13.3663 H   0  0  0  0  0  0  0  0  0  0  0  0
    6.6370    2.4364  -13.8694 H   0  0  0  0  0  0  0  0  0  0  0  0
    7.8311    0.7130  -15.1942 H   0  0  0  0  0  0  0  0  0  0  0  0
   12.3977    1.4142  -17.1090 H   0  0  0  0  0  0  0  0  0  0  0  0
   10.8838   -0.6168  -17.3237 H   0  0  0  0  0  0  0  0  0  0  0  0
    9.1536   -0.2658  -17.1588 H   0  0  0  0  0  0  0  0  0  0  0  0
   10.0744   -0.8861  -15.7666 H   0  0  0  0  0  0  0  0  0  0  0  0
   13.2985    4.0763  -15.8277 H   0  0  0  0  0  0  0  0  0  0  0  0
   12.0256    4.9366  -16.6499 H   0  0  0  0  0  0  0  0  0  0  0  0
   12.2283    4.4271  -13.6649 H   0  0  0  0  0  0  0  0  0  0  0  0
   13.7109    6.0162  -14.2841 H   0  0  0  0  0  0  0  0  0  0  0  0
  2  1  1  0
  3  2  1  0
  4  3  1  0
  5  4  1  0
  6  5  1  0
  7  6  1  0
  8  7  2  0
  9  7  1  0
 10  9  1  0
 11 10  1  0
 12 11  2  0
 13 12  1  0
 14 13  2  0
 15 14  1  0
 16 11  1  0
 16 15  2  0
 17  4  1  0
 18 17  1  0
 19 18  1  0
 20 19  1  0
 21 20  2  0
 22 21  1  0
 23 22  2  0
 24 19  2  0
 24 23  1  0
 25 24  1  0
 26 25  2  0
 27 23  1  0
 27 26  1  0
 28 27  1  0
 29 25  1  0
 30  2  1  0
 30 18  1  0
 30 29  1  0
 31  1  1  0
 32  1  1  0
 33  1  1  0
 34  3  1  0
 35  3  1  0
  4 36  1  6
 37  5  1  0
 38  5  1  0
 39  6  1  0
 40 10  1  0
 41 10  1  0
 42 12  1  0
 43 13  1  0
 44 14  1  0
 45 15  1  0
 46 16  1  0
 47 17  1  0
 48 17  1  0
 18 49  1  6
 50 20  1  0
 51 21  1  0
 52 22  1  0
 53 26  1  0
 54 28  1  0
 55 28  1  0
 56 28  1  0
 57 29  1  0
 58 29  1  0
 30 59  1  1
  2 60  1  1
M  CHG  1   2   1
M  END
>  <b_m_subgroup_collapsed>  (338) 
0

>  <r_i_docking_score>  (338) 
-8.2094107009551607

>  <s_m_subgroup_title>  (338) 
glide-dock_SP_D22_pv

>  <s_m_subgroupid>  (338) 
glide-dock_SP_D22_pv

>  <Molecule ChEMBL ID>  (338) 
CHEMBL19215

>  <Standard Type>  (338) 
Ki

>  <Standard Value>  (338) 
21.0

>  <label>  (338) 
1

$$$$
CHEMBL131926
     RDKit          3D

 57 60  0  0  1  0  0  0  0  0999 V2000
    5.4248    4.3260  -13.5843 C   0  0  0  0  0  0  0  0  0  0  0  0
    6.8129    4.4373  -13.3410 O   0  0  0  0  0  0  0  0  0  0  0  0
    7.6469    3.4602  -13.8467 C   0  0  0  0  0  0  0  0  0  0  0  0
    7.0664    2.3185  -14.2996 N   0  0  0  0  0  0  0  0  0  0  0  0
    7.8474    1.3300  -14.7741 C   0  0  0  0  0  0  0  0  0  0  0  0
    7.1878    0.1728  -15.1854 N   0  0  0  0  0  0  0  0  0  0  0  0
    9.2488    1.4418  -14.8489 C   0  0  0  0  0  0  0  0  0  0  0  0
   10.2231    0.1722  -15.4924 Cl  0  0  0  0  0  0  0  0  0  0  0  0
    9.8523    2.6222  -14.3774 C   0  0  0  0  0  0  0  0  0  0  0  0
    9.0530    3.6619  -13.8483 C   0  0  0  0  0  0  0  0  0  0  0  0
    9.7255    4.8970  -13.2937 C   0  0  0  0  0  0  0  0  0  0  0  0
   10.9360    5.0583  -13.4479 O   0  0  0  0  0  0  0  0  0  0  0  0
    8.9814    5.7235  -12.5356 N   0  0  0  0  0  0  0  0  0  0  0  0
    9.5018    6.4985  -11.4151 C   0  0  1  0  0  0  0  0  0  0  0  0
    9.1419    8.0029  -11.4392 C   0  0  0  0  0  0  0  0  0  0  0  0
    9.4319    8.7414  -10.0894 C   0  0  2  0  0  0  0  0  0  0  0  0
   10.9269    9.0435   -9.8479 C   0  0  0  0  0  0  0  0  0  0  0  0
   11.7648    7.7971   -9.5454 C   0  0  0  0  0  0  0  0  0  0  0  0
   11.0037    6.6786   -8.7996 C   0  0  0  0  0  0  0  0  0  0  0  0
    9.4627    6.6300   -8.8881 C   0  0  2  0  0  0  0  0  0  0  0  0
    8.9908    5.8471  -10.1227 C   0  0  0  0  0  0  0  0  0  0  0  0
    8.8861    7.9842   -8.9270 N   0  0  1  0  0  0  0  0  0  0  0  0
    8.8226    8.7180   -7.6193 C   0  0  0  0  0  0  0  0  0  0  0  0
    9.9796    8.5493   -6.6154 C   0  0  0  0  0  0  0  0  0  0  0  0
   10.0856    7.3673   -5.8458 C   0  0  0  0  0  0  0  0  0  0  0  0
   11.1215    7.1933   -4.9063 C   0  0  0  0  0  0  0  0  0  0  0  0
   12.0256    8.2389   -4.6553 C   0  0  0  0  0  0  0  0  0  0  0  0
   11.9377    9.4190   -5.4142 C   0  0  0  0  0  0  0  0  0  0  0  0
   10.9236    9.5764   -6.3808 C   0  0  0  0  0  0  0  0  0  0  0  0
    4.9353    5.2589  -13.3155 H   0  0  0  0  0  0  0  0  0  0  0  0
    5.2725    4.1720  -14.6469 H   0  0  0  0  0  0  0  0  0  0  0  0
    4.9714    3.5109  -13.0182 H   0  0  0  0  0  0  0  0  0  0  0  0
    7.6904   -0.6704  -15.4433 H   0  0  0  0  0  0  0  0  0  0  0  0
    6.1920    0.0786  -15.0563 H   0  0  0  0  0  0  0  0  0  0  0  0
   10.9287    2.7114  -14.4126 H   0  0  0  0  0  0  0  0  0  0  0  0
    7.9848    5.5436  -12.5232 H   0  0  0  0  0  0  0  0  0  0  0  0
   10.5818    6.4208  -11.4429 H   0  0  0  0  0  0  0  0  0  0  0  0
    8.0861    8.1062  -11.6792 H   0  0  0  0  0  0  0  0  0  0  0  0
    9.6689    8.4976  -12.2550 H   0  0  0  0  0  0  0  0  0  0  0  0
    8.8989    9.6918  -10.1426 H   0  0  0  0  0  0  0  0  0  0  0  0
   11.3773    9.5570  -10.6890 H   0  0  0  0  0  0  0  0  0  0  0  0
   11.0241    9.7532   -9.0320 H   0  0  0  0  0  0  0  0  0  0  0  0
   12.1749    7.4047  -10.4750 H   0  0  0  0  0  0  0  0  0  0  0  0
   12.6450    8.0856   -8.9697 H   0  0  0  0  0  0  0  0  0  0  0  0
   11.2858    5.7671   -9.2671 H   0  0  0  0  0  0  0  0  0  0  0  0
   11.3851    6.5835   -7.7888 H   0  0  0  0  0  0  0  0  0  0  0  0
    9.0556    6.0904   -8.0349 H   0  0  0  0  0  0  0  0  0  0  0  0
    9.3350    4.8128  -10.0630 H   0  0  0  0  0  0  0  0  0  0  0  0
    7.8997    5.7936  -10.1311 H   0  0  0  0  0  0  0  0  0  0  0  0
    7.9301    8.3816   -7.0927 H   0  0  0  0  0  0  0  0  0  0  0  0
    8.6581    9.7704   -7.8465 H   0  0  0  0  0  0  0  0  0  0  0  0
    9.3617    6.5742   -5.9565 H   0  0  0  0  0  0  0  0  0  0  0  0
   11.1861    6.2747   -4.3404 H   0  0  0  0  0  0  0  0  0  0  0  0
   12.8043    8.1217   -3.9156 H   0  0  0  0  0  0  0  0  0  0  0  0
   12.6625   10.2010   -5.2587 H   0  0  0  0  0  0  0  0  0  0  0  0
   10.8857   10.5051   -6.9249 H   0  0  0  0  0  0  0  0  0  0  0  0
    7.9037    7.8239   -9.1762 H   0  0  0  0  0  0  0  0  0  0  0  0
  2  1  1  0
  3  2  1  0
  4  3  2  0
  5  4  1  0
  6  5  1  0
  7  5  2  0
  8  7  1  0
  9  7  1  0
 10  3  1  0
 10  9  2  0
 11 10  1  0
 12 11  2  0
 13 11  1  0
 14 13  1  0
 15 14  1  0
 16 15  1  0
 17 16  1  0
 18 17  1  0
 19 18  1  0
 20 19  1  0
 21 14  1  0
 21 20  1  0
 22 16  1  0
 22 20  1  0
 23 22  1  0
 24 23  1  0
 25 24  2  0
 26 25  1  0
 27 26  2  0
 28 27  1  0
 29 24  1  0
 29 28  2  0
 30  1  1  0
 31  1  1  0
 32  1  1  0
 33  6  1  0
 34  6  1  0
 35  9  1  0
 36 13  1  0
 14 37  1  1
 38 15  1  0
 39 15  1  0
 16 40  1  6
 41 17  1  0
 42 17  1  0
 43 18  1  0
 44 18  1  0
 45 19  1  0
 46 19  1  0
 20 47  1  1
 48 21  1  0
 49 21  1  0
 50 23  1  0
 51 23  1  0
 52 25  1  0
 53 26  1  0
 54 27  1  0
 55 28  1  0
 56 29  1  0
 22 57  1  6
M  CHG  1  22   1
M  END
>  <b_m_subgroup_collapsed>  (339) 
0

>  <r_i_docking_score>  (339) 
-8.2086012835681004

>  <s_m_subgroup_title>  (339) 
glide-dock_SP_D22_pv

>  <s_m_subgroupid>  (339) 
glide-dock_SP_D22_pv

>  <Molecule ChEMBL ID>  (339) 
CHEMBL131926

>  <Standard Type>  (339) 
Ki

>  <Standard Value>  (339) 
1.259

>  <label>  (339) 
1

$$$$
CHEMBL2037522
     RDKit          3D

 46 49  0  0  1  0  0  0  0  0999 V2000
    7.5630    2.5430  -14.8641 C   0  0  0  0  0  0  0  0  0  0  0  0
    8.9133    2.8494  -15.1201 C   0  0  0  0  0  0  0  0  0  0  0  0
    9.5731    3.8270  -14.3507 C   0  0  0  0  0  0  0  0  0  0  0  0
    8.8921    4.4958  -13.3119 C   0  0  0  0  0  0  0  0  0  0  0  0
    7.5340    4.1877  -13.0609 C   0  0  0  0  0  0  0  0  0  0  0  0
    6.8687    3.2237  -13.8462 C   0  0  0  0  0  0  0  0  0  0  0  0
    6.8141    4.8646  -11.9153 C   0  0  0  0  0  0  0  0  0  0  0  0
    7.8050    5.2411  -10.8119 C   0  0  0  0  0  0  0  0  0  0  0  0
    8.8722    6.1153  -11.3419 N   0  0  1  0  0  0  0  0  0  0  0  0
    9.7147    6.6739  -10.2535 C   0  0  0  0  0  0  0  0  0  0  0  0
    9.9287    8.1899  -10.3901 C   0  0  0  0  0  0  0  0  0  0  0  0
   10.6917    8.7618   -9.1822 C   0  0  0  0  0  0  0  0  0  0  0  0
    9.8200    8.8547   -7.9161 C   0  0  0  0  0  0  0  0  0  0  0  0
   10.5940    8.7629   -6.6457 C   0  0  0  0  0  0  0  0  0  0  0  0
   10.8086    7.5837   -6.0540 N   0  0  0  0  0  0  0  0  0  0  0  0
   11.3947    7.7820   -4.8111 C   0  0  0  0  0  0  0  0  0  0  0  0
   11.6859    6.7920   -3.8526 C   0  0  0  0  0  0  0  0  0  0  0  0
   12.2222    7.1149   -2.5933 C   0  0  0  0  0  0  0  0  0  0  0  0
   12.4853    8.4578   -2.2687 C   0  0  0  0  0  0  0  0  0  0  0  0
   12.2147    9.4670   -3.2099 C   0  0  0  0  0  0  0  0  0  0  0  0
   11.6884    9.1314   -4.4709 C   0  0  0  0  0  0  0  0  0  0  0  0
   11.2858   10.1724   -5.8318 S   0  0  0  0  0  0  0  0  0  0  0  0
    9.6654    5.4748  -12.4306 C   0  0  0  0  0  0  0  0  0  0  0  0
    7.0571    1.7922  -15.4537 H   0  0  0  0  0  0  0  0  0  0  0  0
    9.4455    2.3295  -15.9032 H   0  0  0  0  0  0  0  0  0  0  0  0
   10.6141    4.0417  -14.5450 H   0  0  0  0  0  0  0  0  0  0  0  0
    5.8324    2.9853  -13.6544 H   0  0  0  0  0  0  0  0  0  0  0  0
    6.2989    5.7518  -12.2876 H   0  0  0  0  0  0  0  0  0  0  0  0
    6.0493    4.1993  -11.5120 H   0  0  0  0  0  0  0  0  0  0  0  0
    7.2861    5.7723  -10.0194 H   0  0  0  0  0  0  0  0  0  0  0  0
    8.2421    4.3474  -10.3646 H   0  0  0  0  0  0  0  0  0  0  0  0
    9.2465    6.4631   -9.2932 H   0  0  0  0  0  0  0  0  0  0  0  0
   10.6797    6.1722  -10.2017 H   0  0  0  0  0  0  0  0  0  0  0  0
   10.4906    8.3929  -11.3024 H   0  0  0  0  0  0  0  0  0  0  0  0
    8.9701    8.7023  -10.4948 H   0  0  0  0  0  0  0  0  0  0  0  0
   11.5567    8.1248   -8.9911 H   0  0  0  0  0  0  0  0  0  0  0  0
   11.0957    9.7474   -9.4160 H   0  0  0  0  0  0  0  0  0  0  0  0
    9.2394    9.7723   -7.9178 H   0  0  0  0  0  0  0  0  0  0  0  0
    9.0695    8.0666   -7.8881 H   0  0  0  0  0  0  0  0  0  0  0  0
   11.4546    5.7719   -4.0946 H   0  0  0  0  0  0  0  0  0  0  0  0
   12.4197    6.3327   -1.8732 H   0  0  0  0  0  0  0  0  0  0  0  0
   12.8865    8.7197   -1.3000 H   0  0  0  0  0  0  0  0  0  0  0  0
   12.4061   10.4986   -2.9564 H   0  0  0  0  0  0  0  0  0  0  0  0
   10.4807    4.8933  -12.0009 H   0  0  0  0  0  0  0  0  0  0  0  0
   10.1220    6.2492  -13.0469 H   0  0  0  0  0  0  0  0  0  0  0  0
    8.3644    6.8944  -11.7399 H   0  0  0  0  0  0  0  0  0  0  0  0
  2  1  2  0
  3  2  1  0
  4  3  2  0
  5  4  1  0
  6  1  1  0
  6  5  2  0
  7  5  1  0
  8  7  1  0
  9  8  1  0
 10  9  1  0
 11 10  1  0
 12 11  1  0
 13 12  1  0
 14 13  1  0
 15 14  2  0
 16 15  1  0
 17 16  2  0
 18 17  1  0
 19 18  2  0
 20 19  1  0
 21 16  1  0
 21 20  2  0
 22 14  1  0
 22 21  1  0
 23  4  1  0
 23  9  1  0
 24  1  1  0
 25  2  1  0
 26  3  1  0
 27  6  1  0
 28  7  1  0
 29  7  1  0
 30  8  1  0
 31  8  1  0
 32 10  1  0
 33 10  1  0
 34 11  1  0
 35 11  1  0
 36 12  1  0
 37 12  1  0
 38 13  1  0
 39 13  1  0
 40 17  1  0
 41 18  1  0
 42 19  1  0
 43 20  1  0
 44 23  1  0
 45 23  1  0
  9 46  1  6
M  CHG  1   9   1
M  END
>  <b_m_subgroup_collapsed>  (340) 
0

>  <r_i_docking_score>  (340) 
-8.2082620444341394

>  <s_m_subgroup_title>  (340) 
glide-dock_SP_D22_pv

>  <s_m_subgroupid>  (340) 
glide-dock_SP_D22_pv

>  <Molecule ChEMBL ID>  (340) 
CHEMBL2037522

>  <Standard Type>  (340) 
Ki

>  <Standard Value>  (340) 
30.8

>  <label>  (340) 
1

$$$$
CHEMBL4068843
     RDKit          3D

 56 60  0  0  1  0  0  0  0  0999 V2000
    3.5450   -0.6283  -13.8482 N   0  0  0  0  0  0  0  0  0  0  0  0
    4.5513   -0.2273  -14.2499 C   0  0  0  0  0  0  0  0  0  0  0  0
    5.8149    0.2915  -14.7431 C   0  0  0  0  0  0  0  0  0  0  0  0
    6.4858   -0.3309  -15.8112 C   0  0  0  0  0  0  0  0  0  0  0  0
    7.7250    0.1723  -16.2591 C   0  0  0  0  0  0  0  0  0  0  0  0
    8.2835    1.3224  -15.6639 C   0  0  0  0  0  0  0  0  0  0  0  0
    7.5680    1.9900  -14.6456 C   0  0  0  0  0  0  0  0  0  0  0  0
    6.3535    1.4609  -14.1722 C   0  0  0  0  0  0  0  0  0  0  0  0
    8.0774    3.2946  -14.0653 C   0  0  0  0  0  0  0  0  0  0  0  0
    9.5433    3.4736  -14.2176 N   0  0  2  0  0  0  0  0  0  0  0  0
   10.0064    4.7825  -13.6905 C   0  0  0  0  0  0  0  0  0  0  0  0
    9.6775    4.9500  -12.2198 C   0  0  2  0  0  0  0  0  0  0  0  0
    8.3624    5.5713  -11.7996 C   0  0  0  0  0  0  0  0  0  0  0  0
    9.6509    6.3098  -11.5563 C   0  0  1  0  0  0  0  0  0  0  0  0
   10.1396    6.4882  -10.1382 C   0  0  0  0  0  0  0  0  0  0  0  0
    9.1463    7.2886   -9.2865 C   0  0  0  0  0  0  0  0  0  0  0  0
    9.6838    7.5360   -7.9626 N   0  0  0  0  0  0  0  0  0  0  0  0
   10.5319    8.5273   -7.6690 C   0  0  0  0  0  0  0  0  0  0  0  0
   10.8974    9.3714   -8.4851 O   0  0  0  0  0  0  0  0  0  0  0  0
   10.9848    8.5755   -6.2752 C   0  0  0  0  0  0  0  0  0  0  0  0
   11.2702    9.6196   -5.4306 C   0  0  0  0  0  0  0  0  0  0  0  0
   11.6878    9.0345   -4.1882 C   0  0  0  0  0  0  0  0  0  0  0  0
   12.0866    9.5027   -2.9219 C   0  0  0  0  0  0  0  0  0  0  0  0
   12.4860    8.5736   -1.9419 C   0  0  0  0  0  0  0  0  0  0  0  0
   12.4535    7.1976   -2.2478 C   0  0  0  0  0  0  0  0  0  0  0  0
   12.0545    6.6863   -3.4274 N   0  0  0  0  0  0  0  0  0  0  0  0
   11.6863    7.6205   -4.3411 C   0  0  0  0  0  0  0  0  0  0  0  0
   11.2317    7.3807   -5.6135 N   0  0  0  0  0  0  0  0  0  0  0  0
    9.9506    3.2497  -15.6262 C   0  0  0  0  0  0  0  0  0  0  0  0
    9.6725    1.7993  -16.0566 C   0  0  0  0  0  0  0  0  0  0  0  0
    6.0798   -1.2216  -16.2688 H   0  0  0  0  0  0  0  0  0  0  0  0
    8.2589   -0.3458  -17.0405 H   0  0  0  0  0  0  0  0  0  0  0  0
    5.8218    1.9663  -13.3772 H   0  0  0  0  0  0  0  0  0  0  0  0
    7.7914    3.3325  -13.0180 H   0  0  0  0  0  0  0  0  0  0  0  0
    7.5552    4.1151  -14.5549 H   0  0  0  0  0  0  0  0  0  0  0  0
    9.5654    5.5979  -14.2652 H   0  0  0  0  0  0  0  0  0  0  0  0
   11.0871    4.8603  -13.8081 H   0  0  0  0  0  0  0  0  0  0  0  0
   10.0403    4.1321  -11.5988 H   0  0  0  0  0  0  0  0  0  0  0  0
    7.8525    5.1334  -10.9434 H   0  0  0  0  0  0  0  0  0  0  0  0
    7.7045    5.9822  -12.5623 H   0  0  0  0  0  0  0  0  0  0  0  0
    9.8082    7.1823  -12.1892 H   0  0  0  0  0  0  0  0  0  0  0  0
   11.1100    6.9850  -10.1733 H   0  0  0  0  0  0  0  0  0  0  0  0
   10.2996    5.5113   -9.6794 H   0  0  0  0  0  0  0  0  0  0  0  0
    8.2227    6.7218   -9.1648 H   0  0  0  0  0  0  0  0  0  0  0  0
    8.8862    8.2300   -9.7736 H   0  0  0  0  0  0  0  0  0  0  0  0
    9.3514    6.9505   -7.2125 H   0  0  0  0  0  0  0  0  0  0  0  0
   11.1837   10.6725   -5.6508 H   0  0  0  0  0  0  0  0  0  0  0  0
   12.0947   10.5614   -2.7027 H   0  0  0  0  0  0  0  0  0  0  0  0
   12.8211    8.9210   -0.9792 H   0  0  0  0  0  0  0  0  0  0  0  0
   12.7657    6.4710   -1.5118 H   0  0  0  0  0  0  0  0  0  0  0  0
   11.1334    6.4704   -6.0359 H   0  0  0  0  0  0  0  0  0  0  0  0
    9.4025    3.9373  -16.2728 H   0  0  0  0  0  0  0  0  0  0  0  0
   11.0122    3.4690  -15.7592 H   0  0  0  0  0  0  0  0  0  0  0  0
   10.3996    1.1312  -15.5886 H   0  0  0  0  0  0  0  0  0  0  0  0
    9.8077    1.6944  -17.1356 H   0  0  0  0  0  0  0  0  0  0  0  0
    9.9855    2.7513  -13.6634 H   0  0  0  0  0  0  0  0  0  0  0  0
  2  1  3  0
  3  2  1  0
  4  3  1  0
  5  4  2  0
  6  5  1  0
  7  6  2  0
  8  3  2  0
  8  7  1  0
  9  7  1  0
 10  9  1  0
 11 10  1  0
 12 11  1  0
 13 12  1  0
 14 12  1  0
 14 13  1  0
 15 14  1  0
 16 15  1  0
 17 16  1  0
 18 17  1  0
 19 18  2  0
 20 18  1  0
 21 20  2  0
 22 21  1  0
 23 22  1  0
 24 23  2  0
 25 24  1  0
 26 25  2  0
 27 22  2  0
 27 26  1  0
 28 20  1  0
 28 27  1  0
 29 10  1  0
 30  6  1  0
 30 29  1  0
 31  4  1  0
 32  5  1  0
 33  8  1  0
 34  9  1  0
 35  9  1  0
 36 11  1  0
 37 11  1  0
 12 38  1  1
 39 13  1  0
 40 13  1  0
 14 41  1  6
 42 15  1  0
 43 15  1  0
 44 16  1  0
 45 16  1  0
 46 17  1  0
 47 21  1  0
 48 23  1  0
 49 24  1  0
 50 25  1  0
 51 28  1  0
 52 29  1  0
 53 29  1  0
 54 30  1  0
 55 30  1  0
 10 56  1  1
M  CHG  1  10   1
M  END
>  <b_m_subgroup_collapsed>  (341) 
0

>  <r_i_docking_score>  (341) 
-8.2070206999806992

>  <s_m_subgroup_title>  (341) 
glide-dock_SP_D22_pv

>  <s_m_subgroupid>  (341) 
glide-dock_SP_D22_pv

>  <Molecule ChEMBL ID>  (341) 
CHEMBL4068843

>  <Standard Type>  (341) 
Ki

>  <Standard Value>  (341) 
14.4

>  <label>  (341) 
1

$$$$
CHEMBL5920206
     RDKit          3D

 51 55  0  0  1  0  0  0  0  0999 V2000
   10.4734    4.8354  -13.4420 O   0  0  0  0  0  0  0  0  0  0  0  0
    9.3169    4.4228  -13.3225 C   0  0  0  0  0  0  0  0  0  0  0  0
    8.8693    3.2227  -14.1181 C   0  0  0  0  0  0  0  0  0  0  0  0
    9.8262    2.4924  -14.7374 N   0  0  0  0  0  0  0  0  0  0  0  0
    9.4638    1.4143  -15.4561 C   0  0  0  0  0  0  0  0  0  0  0  0
   10.6909    0.5241  -16.2709 Cl  0  0  0  0  0  0  0  0  0  0  0  0
    8.1265    1.0015  -15.5863 C   0  0  0  0  0  0  0  0  0  0  0  0
    7.1263    1.7599  -14.9580 C   0  0  0  0  0  0  0  0  0  0  0  0
    7.4977    2.9020  -14.2248 C   0  0  0  0  0  0  0  0  0  0  0  0
    6.4594    3.7685  -13.5367 C   0  0  0  0  0  0  0  0  0  0  0  0
    7.0342    4.4840  -12.3060 C   0  0  0  0  0  0  0  0  0  0  0  0
    8.4065    4.9895  -12.4863 N   0  0  0  0  0  0  0  0  0  0  0  0
    8.7657    6.1278  -11.6303 C   0  0  0  0  0  0  0  0  0  0  0  0
    8.6553    5.7574  -10.1395 C   0  0  0  0  0  0  0  0  0  0  0  0
    9.7012    6.3343   -9.3043 N   0  0  0  0  0  0  0  0  0  0  0  0
    9.7252    7.8011   -9.3399 C   0  0  0  0  0  0  0  0  0  0  0  0
   10.9334    8.2952   -8.5216 C   0  0  0  0  0  0  0  0  0  0  0  0
   10.8641    7.7816   -7.1567 N   0  0  0  0  0  0  0  0  0  0  0  0
   11.1265    8.6098   -6.0549 C   0  0  0  0  0  0  0  0  0  0  0  0
   10.9504    9.9280   -6.0986 N   0  0  0  0  0  0  0  0  0  0  0  0
   11.2666   10.4251   -4.8092 O   0  0  0  0  0  0  0  0  0  0  0  0
   11.6824    9.3898   -3.9900 C   0  0  0  0  0  0  0  0  0  0  0  0
   12.0857    9.3863   -2.6519 C   0  0  0  0  0  0  0  0  0  0  0  0
   12.4561    8.1574   -2.0743 C   0  0  0  0  0  0  0  0  0  0  0  0
   12.3863    6.9699   -2.8343 C   0  0  0  0  0  0  0  0  0  0  0  0
   11.9588    6.9969   -4.1800 C   0  0  0  0  0  0  0  0  0  0  0  0
   11.5954    8.2359   -4.7665 C   0  0  0  0  0  0  0  0  0  0  0  0
   10.5633    6.3677   -6.9957 C   0  0  0  0  0  0  0  0  0  0  0  0
    9.4178    5.9384   -7.9238 C   0  0  0  0  0  0  0  0  0  0  0  0
    7.8719    0.1240  -16.1643 H   0  0  0  0  0  0  0  0  0  0  0  0
    6.0927    1.4648  -15.0429 H   0  0  0  0  0  0  0  0  0  0  0  0
    6.1015    4.5108  -14.2470 H   0  0  0  0  0  0  0  0  0  0  0  0
    5.5950    3.1672  -13.2531 H   0  0  0  0  0  0  0  0  0  0  0  0
    6.3605    5.2861  -11.9988 H   0  0  0  0  0  0  0  0  0  0  0  0
    7.0576    3.7789  -11.4737 H   0  0  0  0  0  0  0  0  0  0  0  0
    9.7717    6.4908  -11.8466 H   0  0  0  0  0  0  0  0  0  0  0  0
    8.1028    6.9686  -11.8476 H   0  0  0  0  0  0  0  0  0  0  0  0
    7.6820    6.0700   -9.7619 H   0  0  0  0  0  0  0  0  0  0  0  0
    8.7096    4.6735  -10.0242 H   0  0  0  0  0  0  0  0  0  0  0  0
    9.8221    8.1666  -10.3608 H   0  0  0  0  0  0  0  0  0  0  0  0
    8.7937    8.2104   -8.9459 H   0  0  0  0  0  0  0  0  0  0  0  0
   11.8610    7.9442   -8.9749 H   0  0  0  0  0  0  0  0  0  0  0  0
   10.9651    9.3839   -8.5452 H   0  0  0  0  0  0  0  0  0  0  0  0
   12.0881   10.3013   -2.0847 H   0  0  0  0  0  0  0  0  0  0  0  0
   12.7821    8.1288   -1.0477 H   0  0  0  0  0  0  0  0  0  0  0  0
   12.6619    6.0252   -2.3828 H   0  0  0  0  0  0  0  0  0  0  0  0
   11.9398    6.0738   -4.7354 H   0  0  0  0  0  0  0  0  0  0  0  0
   11.4590    5.7763   -7.1817 H   0  0  0  0  0  0  0  0  0  0  0  0
   10.2266    6.1721   -5.9790 H   0  0  0  0  0  0  0  0  0  0  0  0
    8.4793    6.3883   -7.5906 H   0  0  0  0  0  0  0  0  0  0  0  0
    9.2877    4.8586   -7.8560 H   0  0  0  0  0  0  0  0  0  0  0  0
  2  1  2  0
  3  2  1  0
  4  3  1  0
  5  4  2  0
  6  5  1  0
  7  5  1  0
  8  7  2  0
  9  3  2  0
  9  8  1  0
 10  9  1  0
 11 10  1  0
 12  2  1  0
 12 11  1  0
 13 12  1  0
 14 13  1  0
 15 14  1  0
 16 15  1  0
 17 16  1  0
 18 17  1  0
 19 18  1  0
 20 19  2  0
 21 20  1  0
 22 21  1  0
 23 22  2  0
 24 23  1  0
 25 24  2  0
 26 25  1  0
 27 19  1  0
 27 22  1  0
 27 26  2  0
 28 18  1  0
 29 15  1  0
 29 28  1  0
 30  7  1  0
 31  8  1  0
 32 10  1  0
 33 10  1  0
 34 11  1  0
 35 11  1  0
 36 13  1  0
 37 13  1  0
 38 14  1  0
 39 14  1  0
 40 16  1  0
 41 16  1  0
 42 17  1  0
 43 17  1  0
 44 23  1  0
 45 24  1  0
 46 25  1  0
 47 26  1  0
 48 28  1  0
 49 28  1  0
 50 29  1  0
 51 29  1  0
M  END
>  <b_m_subgroup_collapsed>  (342) 
0

>  <r_i_docking_score>  (342) 
-8.2061018071560294

>  <s_m_subgroup_title>  (342) 
glide-dock_SP_D22_pv

>  <s_m_subgroupid>  (342) 
glide-dock_SP_D22_pv

>  <Molecule ChEMBL ID>  (342) 
CHEMBL5920206

>  <Standard Type>  (342) 
Ki

>  <Standard Value>  (342) 
10000.0

>  <label>  (342) 
0

$$$$
CHEMBL3764212
     RDKit          3D

 61 64  0  0  1  0  0  0  0  0999 V2000
    9.3428    0.2220  -15.4686 C   0  0  0  0  0  0  0  0  0  0  0  0
    8.5814    1.3635  -14.9924 N   0  0  0  0  0  0  0  0  0  0  0  0
    9.0560    2.5936  -14.7174 C   0  0  0  0  0  0  0  0  0  0  0  0
   10.7452    3.0254  -15.0274 S   0  0  0  0  0  0  0  0  0  0  0  0
   11.0393    4.2089  -13.6845 C   0  0  0  0  0  0  0  0  0  0  0  0
   10.6549    5.6621  -14.0348 C   0  0  0  0  0  0  0  0  0  0  0  0
   10.8506    6.6018  -12.8303 C   0  0  0  0  0  0  0  0  0  0  0  0
   10.1079    6.2032  -11.6496 N   0  0  0  0  0  0  0  0  0  0  0  0
    8.6654    6.2615  -11.7784 C   0  0  0  0  0  0  0  0  0  0  0  0
    8.0168    5.6474  -10.5389 C   0  0  0  0  0  0  0  0  0  0  0  0
    8.4862    6.2816   -9.3434 O   0  0  0  0  0  0  0  0  0  0  0  0
    9.8967    6.3640   -9.2154 C   0  0  2  0  0  0  0  0  0  0  0  0
   10.2984    7.1329   -7.9700 C   0  0  0  0  0  0  0  0  0  0  0  0
   10.1106    8.5270   -7.8490 C   0  0  0  0  0  0  0  0  0  0  0  0
   10.5721    9.1985   -6.6971 C   0  0  0  0  0  0  0  0  0  0  0  0
   11.1664    8.4820   -5.6354 C   0  0  0  0  0  0  0  0  0  0  0  0
   11.7164    9.2143   -4.4227 C   0  0  0  0  0  0  0  0  0  0  0  0
   11.9060    8.3931   -3.3888 F   0  0  0  0  0  0  0  0  0  0  0  0
   12.8807    9.7717   -4.7457 F   0  0  0  0  0  0  0  0  0  0  0  0
   10.8758   10.1725   -4.0493 F   0  0  0  0  0  0  0  0  0  0  0  0
   11.2860    7.0825   -5.7373 C   0  0  0  0  0  0  0  0  0  0  0  0
   10.9005    6.4303   -6.9173 C   0  0  0  0  0  0  0  0  0  0  0  0
   10.5075    6.9705  -10.4853 C   0  0  0  0  0  0  0  0  0  0  0  0
    8.1278    3.4250  -14.2463 N   0  0  0  0  0  0  0  0  0  0  0  0
    6.9556    2.7041  -14.2459 N   0  0  0  0  0  0  0  0  0  0  0  0
    7.2589    1.4898  -14.7195 C   0  0  0  0  0  0  0  0  0  0  0  0
    6.2165    0.4815  -14.9433 C   0  0  0  0  0  0  0  0  0  0  0  0
    5.2103    0.2632  -13.9766 C   0  0  0  0  0  0  0  0  0  0  0  0
    4.1467   -0.6231  -14.2466 C   0  0  0  0  0  0  0  0  0  0  0  0
    4.1015   -1.3275  -15.4674 C   0  0  0  0  0  0  0  0  0  0  0  0
    5.1150   -1.1425  -16.4363 C   0  0  0  0  0  0  0  0  0  0  0  0
    5.0822   -1.8470  -17.7671 C   0  0  0  0  0  0  0  0  0  0  0  0
    4.4199   -3.0043  -17.8470 N   0  0  0  0  0  0  0  0  0  0  0  0
    5.6905   -1.3934  -18.7338 O   0  0  0  0  0  0  0  0  0  0  0  0
    6.1540   -0.2209  -16.1667 C   0  0  0  0  0  0  0  0  0  0  0  0
    9.8454    0.4730  -16.4033 H   0  0  0  0  0  0  0  0  0  0  0  0
   10.0908   -0.0556  -14.7247 H   0  0  0  0  0  0  0  0  0  0  0  0
    8.6905   -0.6278  -15.6382 H   0  0  0  0  0  0  0  0  0  0  0  0
   10.5033    3.8573  -12.8008 H   0  0  0  0  0  0  0  0  0  0  0  0
   12.1008    4.1727  -13.4403 H   0  0  0  0  0  0  0  0  0  0  0  0
   11.2791    6.0082  -14.8596 H   0  0  0  0  0  0  0  0  0  0  0  0
    9.6301    5.7198  -14.4005 H   0  0  0  0  0  0  0  0  0  0  0  0
   11.9155    6.6013  -12.5970 H   0  0  0  0  0  0  0  0  0  0  0  0
   10.6102    7.6400  -13.0468 H   0  0  0  0  0  0  0  0  0  0  0  0
    8.3318    7.2933  -11.9015 H   0  0  0  0  0  0  0  0  0  0  0  0
    8.3226    5.7098  -12.6514 H   0  0  0  0  0  0  0  0  0  0  0  0
    6.9415    5.7720  -10.6458 H   0  0  0  0  0  0  0  0  0  0  0  0
    8.2210    4.5769  -10.4924 H   0  0  0  0  0  0  0  0  0  0  0  0
   10.2625    5.3392   -9.1211 H   0  0  0  0  0  0  0  0  0  0  0  0
    9.6377    9.0840   -8.6450 H   0  0  0  0  0  0  0  0  0  0  0  0
   10.4861   10.2724   -6.6302 H   0  0  0  0  0  0  0  0  0  0  0  0
   11.7429    6.5086   -4.9432 H   0  0  0  0  0  0  0  0  0  0  0  0
   11.0728    5.3730   -7.0281 H   0  0  0  0  0  0  0  0  0  0  0  0
   11.5928    6.9730  -10.3885 H   0  0  0  0  0  0  0  0  0  0  0  0
   10.1994    8.0099  -10.6026 H   0  0  0  0  0  0  0  0  0  0  0  0
    5.2261    0.8104  -13.0450 H   0  0  0  0  0  0  0  0  0  0  0  0
    3.3538   -0.7546  -13.5264 H   0  0  0  0  0  0  0  0  0  0  0  0
    3.2768   -2.0014  -15.6550 H   0  0  0  0  0  0  0  0  0  0  0  0
    3.8915   -3.3905  -17.0616 H   0  0  0  0  0  0  0  0  0  0  0  0
    4.4068   -3.4906  -18.7299 H   0  0  0  0  0  0  0  0  0  0  0  0
    6.9088   -0.0377  -16.9185 H   0  0  0  0  0  0  0  0  0  0  0  0
  2  1  1  0
  3  2  1  0
  4  3  1  0
  5  4  1  0
  6  5  1  0
  7  6  1  0
  8  7  1  0
  9  8  1  0
 10  9  1  0
 11 10  1  0
 12 11  1  0
 13 12  1  0
 14 13  1  0
 15 14  2  0
 16 15  1  0
 17 16  1  0
 18 17  1  0
 19 17  1  0
 20 17  1  0
 21 16  2  0
 22 13  2  0
 22 21  1  0
 23  8  1  0
 23 12  1  0
 24  3  2  0
 25 24  1  0
 26  2  1  0
 26 25  2  0
 27 26  1  0
 28 27  2  0
 29 28  1  0
 30 29  2  0
 31 30  1  0
 32 31  1  0
 33 32  1  0
 34 32  2  0
 35 27  1  0
 35 31  2  0
 36  1  1  0
 37  1  1  0
 38  1  1  0
 39  5  1  0
 40  5  1  0
 41  6  1  0
 42  6  1  0
 43  7  1  0
 44  7  1  0
 45  9  1  0
 46  9  1  0
 47 10  1  0
 48 10  1  0
 12 49  1  1
 50 14  1  0
 51 15  1  0
 52 21  1  0
 53 22  1  0
 54 23  1  0
 55 23  1  0
 56 28  1  0
 57 29  1  0
 58 30  1  0
 59 33  1  0
 60 33  1  0
 61 35  1  0
M  END
>  <b_m_subgroup_collapsed>  (343) 
0

>  <r_i_docking_score>  (343) 
-8.2055377578179804

>  <s_m_subgroup_title>  (343) 
glide-dock_SP_D22_pv

>  <s_m_subgroupid>  (343) 
glide-dock_SP_D22_pv

>  <Molecule ChEMBL ID>  (343) 
CHEMBL3764212

>  <Standard Type>  (343) 
Ki

>  <Standard Value>  (343) 
15136.0

>  <label>  (343) 
0

$$$$
CHEMBL5871355
     RDKit          3D

 55 57  0  0  1  0  0  0  0  0999 V2000
    5.5597    3.3727  -12.4995 C   0  0  0  0  0  0  0  0  0  0  0  0
    6.1833    4.6053  -13.1684 C   0  0  0  0  0  0  0  0  0  0  0  0
    7.6410    4.6631  -12.9504 N   0  0  0  0  0  0  0  0  0  0  0  0
    8.1038    5.6909  -11.9934 C   0  0  0  0  0  0  0  0  0  0  0  0
    8.4847    5.1131  -10.6097 C   0  0  0  0  0  0  0  0  0  0  0  0
    8.8223    6.1610   -9.6066 N   0  0  2  0  0  0  0  0  0  0  0  0
   10.1654    6.7472   -9.8533 C   0  0  0  0  0  0  0  0  0  0  0  0
   10.5566    7.7963   -8.8026 C   0  0  0  0  0  0  0  0  0  0  0  0
   10.5034    7.2171   -7.3725 C   0  0  1  0  0  0  0  0  0  0  0  0
   10.9015    8.2236   -6.3206 C   0  0  0  0  0  0  0  0  0  0  0  0
   10.8858    9.5848   -6.4706 C   0  0  0  0  0  0  0  0  0  0  0  0
   11.2864   10.1942   -5.3026 N   0  0  0  0  0  0  0  0  0  0  0  0
   11.6265    9.2505   -4.3636 C   0  0  0  0  0  0  0  0  0  0  0  0
   12.1094    9.3718   -3.0509 C   0  0  0  0  0  0  0  0  0  0  0  0
   12.3869    8.2130   -2.3094 C   0  0  0  0  0  0  0  0  0  0  0  0
   12.8857    8.3168   -1.0543 F   0  0  0  0  0  0  0  0  0  0  0  0
   12.1595    6.9477   -2.8860 C   0  0  0  0  0  0  0  0  0  0  0  0
   11.6777    6.8383   -4.2070 C   0  0  0  0  0  0  0  0  0  0  0  0
   11.3929    7.9858   -4.9839 C   0  0  0  0  0  0  0  0  0  0  0  0
    9.0829    6.6799   -7.1473 C   0  0  0  0  0  0  0  0  0  0  0  0
    8.7042    5.6392   -8.2164 C   0  0  0  0  0  0  0  0  0  0  0  0
    8.4569    3.8584  -13.6838 C   0  0  0  0  0  0  0  0  0  0  0  0
    8.0120    3.1262  -14.5699 O   0  0  0  0  0  0  0  0  0  0  0  0
    9.9655    3.8103  -13.3794 C   0  0  0  0  0  0  0  0  0  0  0  0
   10.7961    2.9836  -14.3812 C   0  0  0  0  0  0  0  0  0  0  0  0
   10.5476    1.5970  -14.2479 O   0  0  0  0  0  0  0  0  0  0  0  0
    4.4859    3.3418  -12.6746 H   0  0  0  0  0  0  0  0  0  0  0  0
    5.9785    2.4430  -12.8909 H   0  0  0  0  0  0  0  0  0  0  0  0
    5.7218    3.3843  -11.4240 H   0  0  0  0  0  0  0  0  0  0  0  0
    5.6846    5.5024  -12.8020 H   0  0  0  0  0  0  0  0  0  0  0  0
    5.9639    4.5716  -14.2396 H   0  0  0  0  0  0  0  0  0  0  0  0
    8.9354    6.2405  -12.4342 H   0  0  0  0  0  0  0  0  0  0  0  0
    7.3312    6.4470  -11.8495 H   0  0  0  0  0  0  0  0  0  0  0  0
    7.6642    4.5046  -10.2461 H   0  0  0  0  0  0  0  0  0  0  0  0
    9.3244    4.4266  -10.6802 H   0  0  0  0  0  0  0  0  0  0  0  0
   10.8865    5.9335   -9.8388 H   0  0  0  0  0  0  0  0  0  0  0  0
   10.2092    7.1997  -10.8431 H   0  0  0  0  0  0  0  0  0  0  0  0
   11.5600    8.1687   -9.0199 H   0  0  0  0  0  0  0  0  0  0  0  0
    9.8805    8.6466   -8.8976 H   0  0  0  0  0  0  0  0  0  0  0  0
   11.1999    6.3780   -7.3205 H   0  0  0  0  0  0  0  0  0  0  0  0
   10.6160   10.1717   -7.3260 H   0  0  0  0  0  0  0  0  0  0  0  0
   11.3437   11.1955   -5.1893 H   0  0  0  0  0  0  0  0  0  0  0  0
   12.2735   10.3468   -2.6166 H   0  0  0  0  0  0  0  0  0  0  0  0
   12.3660    6.0544   -2.3128 H   0  0  0  0  0  0  0  0  0  0  0  0
   11.5103    5.8585   -4.6304 H   0  0  0  0  0  0  0  0  0  0  0  0
    9.0129    6.2276   -6.1596 H   0  0  0  0  0  0  0  0  0  0  0  0
    8.3653    7.5017   -7.1538 H   0  0  0  0  0  0  0  0  0  0  0  0
    7.6861    5.3080   -8.0355 H   0  0  0  0  0  0  0  0  0  0  0  0
    9.3406    4.7591   -8.1125 H   0  0  0  0  0  0  0  0  0  0  0  0
   10.1054    3.3935  -12.3846 H   0  0  0  0  0  0  0  0  0  0  0  0
   10.3613    4.8238  -13.3721 H   0  0  0  0  0  0  0  0  0  0  0  0
   11.8578    3.1559  -14.2058 H   0  0  0  0  0  0  0  0  0  0  0  0
   10.5967    3.2888  -15.4082 H   0  0  0  0  0  0  0  0  0  0  0  0
   10.4833    1.3723  -13.3209 H   0  0  0  0  0  0  0  0  0  0  0  0
    8.1231    6.8972   -9.6997 H   0  0  0  0  0  0  0  0  0  0  0  0
  2  1  1  0
  3  2  1  0
  4  3  1  0
  5  4  1  0
  6  5  1  0
  7  6  1  0
  8  7  1  0
  9  8  1  0
 10  9  1  0
 11 10  2  0
 12 11  1  0
 13 12  1  0
 14 13  2  0
 15 14  1  0
 16 15  1  0
 17 15  2  0
 18 17  1  0
 19 10  1  0
 19 13  1  0
 19 18  2  0
 20  9  1  0
 21  6  1  0
 21 20  1  0
 22  3  1  0
 23 22  2  0
 24 22  1  0
 25 24  1  0
 26 25  1  0
 27  1  1  0
 28  1  1  0
 29  1  1  0
 30  2  1  0
 31  2  1  0
 32  4  1  0
 33  4  1  0
 34  5  1  0
 35  5  1  0
 36  7  1  0
 37  7  1  0
 38  8  1  0
 39  8  1  0
  9 40  1  6
 41 11  1  0
 42 12  1  0
 43 14  1  0
 44 17  1  0
 45 18  1  0
 46 20  1  0
 47 20  1  0
 48 21  1  0
 49 21  1  0
 50 24  1  0
 51 24  1  0
 52 25  1  0
 53 25  1  0
 54 26  1  0
  6 55  1  1
M  CHG  1   6   1
M  END
>  <b_m_subgroup_collapsed>  (344) 
0

>  <r_i_docking_score>  (344) 
-8.2042449634558405

>  <s_m_subgroup_title>  (344) 
glide-dock_SP_D22_pv

>  <s_m_subgroupid>  (344) 
glide-dock_SP_D22_pv

>  <Molecule ChEMBL ID>  (344) 
CHEMBL5871355

>  <Standard Type>  (344) 
Ki

>  <Standard Value>  (344) 
80.0

>  <label>  (344) 
1

$$$$
CHEMBL5722957
     RDKit          3D

 40 42  0  0  1  0  0  0  0  0999 V2000
   10.9480    4.3394  -13.9619 O   0  0  0  0  0  0  0  0  0  0  0  0
   10.0965    4.9643  -13.3285 C   0  0  0  0  0  0  0  0  0  0  0  0
   10.4455    6.1786  -12.5652 C   0  0  0  0  0  0  0  0  0  0  0  0
    9.5109    6.8601  -11.8652 C   0  0  0  0  0  0  0  0  0  0  0  0
    9.8534    8.0790  -11.0273 C   0  0  0  0  0  0  0  0  0  0  0  0
    9.2860    7.9398   -9.6724 N   0  0  0  0  0  0  0  0  0  0  0  0
   10.2434    8.0022   -8.5490 C   0  0  0  0  0  0  0  0  0  0  0  0
    9.5064    7.9762   -7.1973 C   0  0  1  0  0  0  0  0  0  0  0  0
    8.6861    6.8151   -7.1658 O   0  0  0  0  0  0  0  0  0  0  0  0
   10.4849    8.0374   -6.0242 C   0  0  0  0  0  0  0  0  0  0  0  0
   10.8839    9.2743   -5.4707 C   0  0  0  0  0  0  0  0  0  0  0  0
   11.7080    9.2616   -4.3277 C   0  0  0  0  0  0  0  0  0  0  0  0
   12.1094    8.0285   -3.7882 C   0  0  0  0  0  0  0  0  0  0  0  0
   11.6844    6.8526   -4.4298 C   0  0  0  0  0  0  0  0  0  0  0  0
   10.9126    6.8556   -5.5325 N   0  0  0  0  0  0  0  0  0  0  0  0
    8.1782    6.4615  -11.8467 N   0  0  0  0  0  0  0  0  0  0  0  0
    7.7397    5.3152  -12.5179 C   0  0  0  0  0  0  0  0  0  0  0  0
    6.3893    4.9180  -12.4463 C   0  0  0  0  0  0  0  0  0  0  0  0
    5.9631    3.7507  -13.1115 C   0  0  0  0  0  0  0  0  0  0  0  0
    6.8859    2.9796  -13.8470 C   0  0  0  0  0  0  0  0  0  0  0  0
    6.4867    1.8447  -14.4665 F   0  0  0  0  0  0  0  0  0  0  0  0
    8.2338    3.3746  -13.9244 C   0  0  0  0  0  0  0  0  0  0  0  0
    8.6683    4.5448  -13.2639 C   0  0  0  0  0  0  0  0  0  0  0  0
   11.4771    6.4984  -12.5805 H   0  0  0  0  0  0  0  0  0  0  0  0
    9.4398    8.9686  -11.5034 H   0  0  0  0  0  0  0  0  0  0  0  0
   10.9348    8.2145  -10.9816 H   0  0  0  0  0  0  0  0  0  0  0  0
    8.8123    7.0449   -9.6291 H   0  0  0  0  0  0  0  0  0  0  0  0
   10.8355    8.9158   -8.6299 H   0  0  0  0  0  0  0  0  0  0  0  0
   10.9352    7.1604   -8.6200 H   0  0  0  0  0  0  0  0  0  0  0  0
    8.8429    8.8389   -7.1235 H   0  0  0  0  0  0  0  0  0  0  0  0
    7.7941    7.0372   -7.4243 H   0  0  0  0  0  0  0  0  0  0  0  0
   10.5422   10.2108   -5.8841 H   0  0  0  0  0  0  0  0  0  0  0  0
   12.0184   10.1762   -3.8513 H   0  0  0  0  0  0  0  0  0  0  0  0
   12.7329    7.9839   -2.9073 H   0  0  0  0  0  0  0  0  0  0  0  0
   11.9853    5.8856   -4.0544 H   0  0  0  0  0  0  0  0  0  0  0  0
    7.4788    6.9856  -11.3078 H   0  0  0  0  0  0  0  0  0  0  0  0
    5.6843    5.5012  -11.8699 H   0  0  0  0  0  0  0  0  0  0  0  0
    4.9301    3.4403  -13.0481 H   0  0  0  0  0  0  0  0  0  0  0  0
    8.9297    2.7664  -14.4849 H   0  0  0  0  0  0  0  0  0  0  0  0
    8.5682    8.6417   -9.5545 H   0  0  0  0  0  0  0  0  0  0  0  0
  2  1  2  0
  3  2  1  0
  4  3  2  0
  5  4  1  0
  6  5  1  0
  7  6  1  0
  8  7  1  0
  9  8  1  0
 10  8  1  0
 11 10  2  0
 12 11  1  0
 13 12  2  0
 14 13  1  0
 15 10  1  0
 15 14  2  0
 16  4  1  0
 17 16  1  0
 18 17  2  0
 19 18  1  0
 20 19  2  0
 21 20  1  0
 22 20  1  0
 23  2  1  0
 23 17  1  0
 23 22  2  0
 24  3  1  0
 25  5  1  0
 26  5  1  0
 27  6  1  0
 28  7  1  0
 29  7  1  0
  8 30  1  6
 31  9  1  0
 32 11  1  0
 33 12  1  0
 34 13  1  0
 35 14  1  0
 36 16  1  0
 37 18  1  0
 38 19  1  0
 39 22  1  0
 40  6  1  0
M  CHG  1   6   1
M  END
>  <b_m_subgroup_collapsed>  (345) 
0

>  <r_i_docking_score>  (345) 
-8.2038887128111497

>  <s_m_subgroup_title>  (345) 
glide-dock_SP_D22_pv

>  <s_m_subgroupid>  (345) 
glide-dock_SP_D22_pv

>  <Molecule ChEMBL ID>  (345) 
CHEMBL5722957

>  <Standard Type>  (345) 
Ki

>  <Standard Value>  (345) 
10000.0

>  <label>  (345) 
0

$$$$
CHEMBL5781514
     RDKit          3D

 45 47  0  0  1  0  0  0  0  0999 V2000
    8.0472    6.7038  -12.3483 C   0  0  0  0  0  0  0  0  0  0  0  0
    9.2279    6.2573  -11.4527 C   0  0  2  0  0  0  0  0  0  0  0  0
   10.4295    6.2121  -12.2352 O   0  0  0  0  0  0  0  0  0  0  0  0
   10.6321    5.3001  -13.2576 C   0  0  0  0  0  0  0  0  0  0  0  0
   11.8268    5.4524  -13.9905 C   0  0  0  0  0  0  0  0  0  0  0  0
   12.1543    4.5705  -15.0384 C   0  0  0  0  0  0  0  0  0  0  0  0
   11.2853    3.5148  -15.3661 C   0  0  0  0  0  0  0  0  0  0  0  0
   11.6856    2.4319  -16.6481 Cl  0  0  0  0  0  0  0  0  0  0  0  0
   10.0898    3.3436  -14.6434 C   0  0  0  0  0  0  0  0  0  0  0  0
    9.7621    4.2318  -13.5991 C   0  0  0  0  0  0  0  0  0  0  0  0
    8.9467    4.9557  -10.6560 C   0  0  0  0  0  0  0  0  0  0  0  0
    8.9489    5.3156   -9.1666 C   0  0  0  0  0  0  0  0  0  0  0  0
    8.8861    6.7847   -9.1082 N   0  0  1  0  0  0  0  0  0  0  0  0
    9.2588    7.4129   -7.8052 C   0  0  0  0  0  0  0  0  0  0  0  0
   10.7697    7.3795   -7.4658 C   0  0  0  0  0  0  0  0  0  0  0  0
   11.0654    7.8461   -6.0966 N   0  0  0  0  0  0  0  0  0  0  0  0
   11.2864    6.8565   -5.1194 C   0  0  0  0  0  0  0  0  0  0  0  0
   11.6860    7.1547   -3.8719 C   0  0  0  0  0  0  0  0  0  0  0  0
   11.8450    8.5459   -3.5198 C   0  0  0  0  0  0  0  0  0  0  0  0
   11.5924    9.5061   -4.4320 C   0  0  0  0  0  0  0  0  0  0  0  0
   11.1963    9.1774   -5.8067 C   0  0  0  0  0  0  0  0  0  0  0  0
   11.0043   10.0507   -6.6468 O   0  0  0  0  0  0  0  0  0  0  0  0
    9.5192    7.2952  -10.3407 C   0  0  0  0  0  0  0  0  0  0  0  0
    7.0891    6.5734  -11.8469 H   0  0  0  0  0  0  0  0  0  0  0  0
    8.1377    7.7526  -12.6326 H   0  0  0  0  0  0  0  0  0  0  0  0
    7.9719    6.1373  -13.2732 H   0  0  0  0  0  0  0  0  0  0  0  0
   12.5086    6.2533  -13.7419 H   0  0  0  0  0  0  0  0  0  0  0  0
   13.0750    4.7033  -15.5881 H   0  0  0  0  0  0  0  0  0  0  0  0
    9.4213    2.5310  -14.8891 H   0  0  0  0  0  0  0  0  0  0  0  0
    8.8367    4.0583  -13.0752 H   0  0  0  0  0  0  0  0  0  0  0  0
    7.9768    4.5381  -10.9304 H   0  0  0  0  0  0  0  0  0  0  0  0
    9.6872    4.1790  -10.8471 H   0  0  0  0  0  0  0  0  0  0  0  0
    8.1071    4.8681   -8.6352 H   0  0  0  0  0  0  0  0  0  0  0  0
    9.8653    4.9476   -8.7068 H   0  0  0  0  0  0  0  0  0  0  0  0
    8.9115    8.4476   -7.8184 H   0  0  0  0  0  0  0  0  0  0  0  0
    8.6886    6.9170   -7.0173 H   0  0  0  0  0  0  0  0  0  0  0  0
   11.1684    6.3741   -7.5956 H   0  0  0  0  0  0  0  0  0  0  0  0
   11.3278    7.9936   -8.1735 H   0  0  0  0  0  0  0  0  0  0  0  0
   11.1437    5.8395   -5.4532 H   0  0  0  0  0  0  0  0  0  0  0  0
   11.8645    6.3734   -3.1471 H   0  0  0  0  0  0  0  0  0  0  0  0
   12.1376    8.8212   -2.5173 H   0  0  0  0  0  0  0  0  0  0  0  0
   11.6839   10.5474   -4.1511 H   0  0  0  0  0  0  0  0  0  0  0  0
   10.5962    7.3672  -10.1899 H   0  0  0  0  0  0  0  0  0  0  0  0
    9.1583    8.2964  -10.5810 H   0  0  0  0  0  0  0  0  0  0  0  0
    7.8983    7.0046   -9.2367 H   0  0  0  0  0  0  0  0  0  0  0  0
  2  1  1  0
  2  3  1  6
  4  3  1  0
  5  4  1  0
  6  5  2  0
  7  6  1  0
  8  7  1  0
  9  7  2  0
 10  4  2  0
 10  9  1  0
 11  2  1  0
 12 11  1  0
 13 12  1  0
 14 13  1  0
 15 14  1  0
 16 15  1  0
 17 16  1  0
 18 17  2  0
 19 18  1  0
 20 19  2  0
 21 16  1  0
 21 20  1  0
 22 21  2  0
 23  2  1  0
 23 13  1  0
 24  1  1  0
 25  1  1  0
 26  1  1  0
 27  5  1  0
 28  6  1  0
 29  9  1  0
 30 10  1  0
 31 11  1  0
 32 11  1  0
 33 12  1  0
 34 12  1  0
 35 14  1  0
 36 14  1  0
 37 15  1  0
 38 15  1  0
 39 17  1  0
 40 18  1  0
 41 19  1  0
 42 20  1  0
 43 23  1  0
 44 23  1  0
 13 45  1  6
M  CHG  1  13   1
M  END
>  <b_m_subgroup_collapsed>  (346) 
0

>  <r_i_docking_score>  (346) 
-8.2029049731140091

>  <s_m_subgroup_title>  (346) 
glide-dock_SP_D22_pv

>  <s_m_subgroupid>  (346) 
glide-dock_SP_D22_pv

>  <Molecule ChEMBL ID>  (346) 
CHEMBL5781514

>  <Standard Type>  (346) 
Ki

>  <Standard Value>  (346) 
20000.0

>  <label>  (346) 
0

$$$$
CHEMBL346398
     RDKit          3D

 50 53  0  0  1  0  0  0  0  0999 V2000
   12.2288    7.9600   -1.9843 C   0  0  0  0  0  0  0  0  0  0  0  0
   11.8824    8.1128   -3.4441 C   0  0  0  0  0  0  0  0  0  0  0  0
   11.6862    6.9664   -4.2341 C   0  0  0  0  0  0  0  0  0  0  0  0
   11.2860    7.0943   -5.5736 C   0  0  0  0  0  0  0  0  0  0  0  0
   11.0855    8.3725   -6.1406 C   0  0  0  0  0  0  0  0  0  0  0  0
   10.6946    8.5221   -7.6018 C   0  0  1  0  0  0  0  0  0  0  0  0
   11.9136    8.3394   -8.5190 C   0  0  0  0  0  0  0  0  0  0  0  0
   11.5351    8.4649  -10.0040 C   0  0  0  0  0  0  0  0  0  0  0  0
   10.4450    7.5208  -10.3726 N   0  0  2  0  0  0  0  0  0  0  0  0
   10.1343    7.5570  -11.8255 C   0  0  0  0  0  0  0  0  0  0  0  0
    9.6105    6.2348  -12.3592 C   0  0  0  0  0  0  0  0  0  0  0  0
   10.4836    5.3619  -13.0468 C   0  0  0  0  0  0  0  0  0  0  0  0
    9.9940    4.1641  -13.6032 C   0  0  0  0  0  0  0  0  0  0  0  0
    8.6329    3.8289  -13.4709 C   0  0  0  0  0  0  0  0  0  0  0  0
    7.7704    4.6838  -12.7495 C   0  0  0  0  0  0  0  0  0  0  0  0
    8.2473    5.8981  -12.2234 C   0  0  0  0  0  0  0  0  0  0  0  0
    6.4414    4.2782  -12.5041 N   0  0  0  0  0  0  0  0  0  0  0  0
    5.9314    3.1669  -13.0458 C   0  0  0  0  0  0  0  0  0  0  0  0
    4.8862    2.6581  -12.6479 O   0  0  0  0  0  0  0  0  0  0  0  0
    6.7475    2.5148  -14.1777 C   0  0  0  0  0  0  0  0  0  0  0  0
    8.1666    2.6467  -13.9988 O   0  0  0  0  0  0  0  0  0  0  0  0
    9.2431    7.7141   -9.5171 C   0  0  0  0  0  0  0  0  0  0  0  0
    9.5726    7.5575   -8.0279 C   0  0  0  0  0  0  0  0  0  0  0  0
   11.2856    9.5206   -5.3438 C   0  0  0  0  0  0  0  0  0  0  0  0
   11.6827    9.3895   -3.9984 C   0  0  0  0  0  0  0  0  0  0  0  0
   12.7067    8.8543   -1.5825 H   0  0  0  0  0  0  0  0  0  0  0  0
   11.3027    7.7773   -1.4445 H   0  0  0  0  0  0  0  0  0  0  0  0
   12.8846    7.1050   -1.8265 H   0  0  0  0  0  0  0  0  0  0  0  0
   11.8230    5.9828   -3.8084 H   0  0  0  0  0  0  0  0  0  0  0  0
   11.1533    6.1951   -6.1555 H   0  0  0  0  0  0  0  0  0  0  0  0
   10.3180    9.5352   -7.7349 H   0  0  0  0  0  0  0  0  0  0  0  0
   12.6827    9.0700   -8.2712 H   0  0  0  0  0  0  0  0  0  0  0  0
   12.3715    7.3723   -8.3350 H   0  0  0  0  0  0  0  0  0  0  0  0
   12.4189    8.2685  -10.6118 H   0  0  0  0  0  0  0  0  0  0  0  0
   11.2283    9.4878  -10.2264 H   0  0  0  0  0  0  0  0  0  0  0  0
   11.0440    7.7726  -12.3858 H   0  0  0  0  0  0  0  0  0  0  0  0
    9.4353    8.3628  -12.0539 H   0  0  0  0  0  0  0  0  0  0  0  0
   11.5277    5.6107  -13.1691 H   0  0  0  0  0  0  0  0  0  0  0  0
   10.6601    3.5002  -14.1362 H   0  0  0  0  0  0  0  0  0  0  0  0
    7.5670    6.5643  -11.7142 H   0  0  0  0  0  0  0  0  0  0  0  0
    5.9187    4.7614  -11.7858 H   0  0  0  0  0  0  0  0  0  0  0  0
    6.4702    2.9728  -15.1255 H   0  0  0  0  0  0  0  0  0  0  0  0
    6.4983    1.4561  -14.2461 H   0  0  0  0  0  0  0  0  0  0  0  0
    8.8052    8.6949   -9.7059 H   0  0  0  0  0  0  0  0  0  0  0  0
    8.4861    6.9722   -9.7635 H   0  0  0  0  0  0  0  0  0  0  0  0
    8.6746    7.7407   -7.4336 H   0  0  0  0  0  0  0  0  0  0  0  0
    9.8518    6.5189   -7.8534 H   0  0  0  0  0  0  0  0  0  0  0  0
   11.1401   10.5073   -5.7582 H   0  0  0  0  0  0  0  0  0  0  0  0
   11.8143   10.2701   -3.3860 H   0  0  0  0  0  0  0  0  0  0  0  0
   10.7889    6.5907  -10.1821 H   0  0  0  0  0  0  0  0  0  0  0  0
  2  1  1  0
  3  2  2  0
  4  3  1  0
  5  4  2  0
  6  5  1  0
  7  6  1  0
  8  7  1  0
  9  8  1  0
 10  9  1  0
 11 10  1  0
 12 11  1  0
 13 12  2  0
 14 13  1  0
 15 14  2  0
 16 11  2  0
 16 15  1  0
 17 15  1  0
 18 17  1  0
 19 18  2  0
 20 18  1  0
 21 14  1  0
 21 20  1  0
 22  9  1  0
 23  6  1  0
 23 22  1  0
 24  5  1  0
 25  2  1  0
 25 24  2  0
 26  1  1  0
 27  1  1  0
 28  1  1  0
 29  3  1  0
 30  4  1  0
  6 31  1  1
 32  7  1  0
 33  7  1  0
 34  8  1  0
 35  8  1  0
 36 10  1  0
 37 10  1  0
 38 12  1  0
 39 13  1  0
 40 16  1  0
 41 17  1  0
 42 20  1  0
 43 20  1  0
 44 22  1  0
 45 22  1  0
 46 23  1  0
 47 23  1  0
 48 24  1  0
 49 25  1  0
  9 50  1  1
M  CHG  1   9   1
M  END
>  <b_m_subgroup_collapsed>  (347) 
0

>  <r_i_docking_score>  (347) 
-8.20189804389641

>  <s_m_subgroup_title>  (347) 
glide-dock_SP_D22_pv

>  <s_m_subgroupid>  (347) 
glide-dock_SP_D22_pv

>  <Molecule ChEMBL ID>  (347) 
CHEMBL346398

>  <Standard Type>  (347) 
Ki

>  <Standard Value>  (347) 
52.5

>  <label>  (347) 
1

$$$$
CHEMBL4579981
     RDKit          3D

 45 47  0  0  1  0  0  0  0  0999 V2000
    6.7357    1.5056  -14.9898 C   0  0  0  0  0  0  0  0  0  0  0  0
    7.0211    2.7506  -14.1748 C   0  0  0  0  0  0  0  0  0  0  0  0
    5.9953    3.3717  -13.4305 C   0  0  0  0  0  0  0  0  0  0  0  0
    6.2687    4.5163  -12.6546 C   0  0  0  0  0  0  0  0  0  0  0  0
    7.5758    5.0393  -12.6156 C   0  0  0  0  0  0  0  0  0  0  0  0
    7.8655    6.1726  -11.8464 N   0  0  0  0  0  0  0  0  0  0  0  0
    9.1450    6.6962  -11.7495 C   0  0  0  0  0  0  0  0  0  0  0  0
    9.2913    7.9228  -10.8638 C   0  0  0  0  0  0  0  0  0  0  0  0
    9.2863    7.5281   -9.4373 N   0  0  0  0  0  0  0  0  0  0  0  0
    9.8573    8.5434   -8.5195 C   0  0  0  0  0  0  0  0  0  0  0  0
   10.2607    7.9474   -7.1531 C   0  0  0  0  0  0  0  0  0  0  0  0
   11.0459    8.9681   -6.2962 C   0  0  0  0  0  0  0  0  0  0  0  0
   11.4630    8.5139   -4.8997 C   0  0  0  0  0  0  0  0  0  0  0  0
   11.6702    9.4812   -3.8933 C   0  0  0  0  0  0  0  0  0  0  0  0
   12.0866    9.0608   -2.6149 C   0  0  0  0  0  0  0  0  0  0  0  0
   12.2896    7.7705   -2.2863 N   0  0  0  0  0  0  0  0  0  0  0  0
   12.0855    6.8467   -3.2469 C   0  0  0  0  0  0  0  0  0  0  0  0
   11.6833    7.1600   -4.5624 C   0  0  0  0  0  0  0  0  0  0  0  0
   10.1797    6.1615  -12.4326 C   0  0  0  0  0  0  0  0  0  0  0  0
    9.9986    4.9691  -13.2891 C   0  0  0  0  0  0  0  0  0  0  0  0
   10.9473    4.4692  -13.8930 O   0  0  0  0  0  0  0  0  0  0  0  0
    8.6128    4.4186  -13.3565 C   0  0  0  0  0  0  0  0  0  0  0  0
    8.3272    3.2799  -14.1417 C   0  0  0  0  0  0  0  0  0  0  0  0
    5.8442    0.9938  -14.6259 H   0  0  0  0  0  0  0  0  0  0  0  0
    6.5828    1.7644  -16.0377 H   0  0  0  0  0  0  0  0  0  0  0  0
    7.5736    0.8092  -14.9288 H   0  0  0  0  0  0  0  0  0  0  0  0
    4.9913    2.9728  -13.4437 H   0  0  0  0  0  0  0  0  0  0  0  0
    5.4777    4.9818  -12.0821 H   0  0  0  0  0  0  0  0  0  0  0  0
    7.1137    6.6434  -11.3335 H   0  0  0  0  0  0  0  0  0  0  0  0
    8.4858    8.6347  -11.0508 H   0  0  0  0  0  0  0  0  0  0  0  0
   10.2247    8.4267  -11.1222 H   0  0  0  0  0  0  0  0  0  0  0  0
    9.8120    6.6694   -9.3501 H   0  0  0  0  0  0  0  0  0  0  0  0
    9.1355    9.3538   -8.3900 H   0  0  0  0  0  0  0  0  0  0  0  0
   10.7452    8.9829   -8.9806 H   0  0  0  0  0  0  0  0  0  0  0  0
   10.8846    7.0650   -7.3209 H   0  0  0  0  0  0  0  0  0  0  0  0
    9.3708    7.6099   -6.6137 H   0  0  0  0  0  0  0  0  0  0  0  0
   10.4395    9.8687   -6.1840 H   0  0  0  0  0  0  0  0  0  0  0  0
   11.9517    9.2737   -6.8252 H   0  0  0  0  0  0  0  0  0  0  0  0
   11.5170   10.5331   -4.0899 H   0  0  0  0  0  0  0  0  0  0  0  0
   12.2498    9.7825   -1.8302 H   0  0  0  0  0  0  0  0  0  0  0  0
   12.2596    5.8211   -2.9597 H   0  0  0  0  0  0  0  0  0  0  0  0
   11.5513    6.3622   -5.2764 H   0  0  0  0  0  0  0  0  0  0  0  0
   11.1695    6.5879  -12.3682 H   0  0  0  0  0  0  0  0  0  0  0  0
    9.1131    2.7967  -14.7064 H   0  0  0  0  0  0  0  0  0  0  0  0
    8.3170    7.3477   -9.1863 H   0  0  0  0  0  0  0  0  0  0  0  0
  2  1  1  0
  3  2  2  0
  4  3  1  0
  5  4  2  0
  6  5  1  0
  7  6  1  0
  8  7  1  0
  9  8  1  0
 10  9  1  0
 11 10  1  0
 12 11  1  0
 13 12  1  0
 14 13  2  0
 15 14  1  0
 16 15  2  0
 17 16  1  0
 18 13  1  0
 18 17  2  0
 19  7  2  0
 20 19  1  0
 21 20  2  0
 22  5  1  0
 22 20  1  0
 23  2  1  0
 23 22  2  0
 24  1  1  0
 25  1  1  0
 26  1  1  0
 27  3  1  0
 28  4  1  0
 29  6  1  0
 30  8  1  0
 31  8  1  0
 32  9  1  0
 33 10  1  0
 34 10  1  0
 35 11  1  0
 36 11  1  0
 37 12  1  0
 38 12  1  0
 39 14  1  0
 40 15  1  0
 41 17  1  0
 42 18  1  0
 43 19  1  0
 44 23  1  0
 45  9  1  0
M  CHG  1   9   1
M  END
>  <b_m_subgroup_collapsed>  (348) 
0

>  <r_i_docking_score>  (348) 
-8.1884183267925597

>  <s_m_subgroup_title>  (348) 
glide-dock_SP_D22_pv

>  <s_m_subgroupid>  (348) 
glide-dock_SP_D22_pv

>  <Molecule ChEMBL ID>  (348) 
CHEMBL4579981

>  <Standard Type>  (348) 
Ki

>  <Standard Value>  (348) 
10000.0

>  <label>  (348) 
0

$$$$
CHEMBL4447330
     RDKit          3D

 69 73  0  0  1  0  0  0  0  0999 V2000
   12.6108    8.8591   -1.7380 C   0  0  0  0  0  0  0  0  0  0  0  0
   12.4862    9.5446   -2.9774 O   0  0  0  0  0  0  0  0  0  0  0  0
   11.9017    8.9153   -4.0503 C   0  0  0  0  0  0  0  0  0  0  0  0
   11.5105    9.7328   -5.1286 C   0  0  0  0  0  0  0  0  0  0  0  0
   10.8873    9.1857   -6.2641 C   0  0  0  0  0  0  0  0  0  0  0  0
   10.6577    7.7953   -6.3558 C   0  0  0  0  0  0  0  0  0  0  0  0
   10.0218    7.2131   -7.4693 N   0  0  0  0  0  0  0  0  0  0  0  0
    9.8626    7.9721   -8.7046 C   0  0  0  0  0  0  0  0  0  0  0  0
    9.6077    7.0223   -9.8883 C   0  0  0  0  0  0  0  0  0  0  0  0
    8.4861    6.0779   -9.6315 N   0  0  0  0  0  0  0  0  0  0  0  0
    8.3452    5.0592  -10.6988 C   0  0  0  0  0  0  0  0  0  0  0  0
    7.7887    5.6151  -12.0174 C   0  0  0  0  0  0  0  0  0  0  0  0
    7.5297    4.5056  -13.0441 C   0  0  0  0  0  0  0  0  0  0  0  0
    6.2955    3.6485  -12.7137 C   0  0  0  0  0  0  0  0  0  0  0  0
    5.9436    2.6754  -13.8402 C   0  0  0  0  0  0  0  0  0  0  0  0
    6.8100    1.3999  -13.9206 C   0  0  0  0  0  0  0  0  0  0  0  0
    6.5571    0.7003  -15.2007 N   0  0  0  0  0  0  0  0  0  0  0  0
    5.5739   -0.2430  -15.2516 C   0  0  0  0  0  0  0  0  0  0  0  0
    4.9672   -0.6298  -14.2483 O   0  0  0  0  0  0  0  0  0  0  0  0
    5.1773   -0.7832  -16.6050 C   0  0  0  0  0  0  0  0  0  0  0  0
    4.1494   -1.7451  -16.7388 C   0  0  0  0  0  0  0  0  0  0  0  0
    3.7489   -2.2251  -17.9961 C   0  0  0  0  0  0  0  0  0  0  0  0
    4.3653   -1.7464  -19.1571 C   0  0  0  0  0  0  0  0  0  0  0  0
    5.3977   -0.7953  -19.0773 C   0  0  0  0  0  0  0  0  0  0  0  0
    6.0431   -0.2903  -20.2207 C   0  0  0  0  0  0  0  0  0  0  0  0
    7.0774    0.6496  -20.1009 C   0  0  0  0  0  0  0  0  0  0  0  0
    7.4688    1.0905  -18.8284 C   0  0  0  0  0  0  0  0  0  0  0  0
    6.8398    0.6210  -17.6508 C   0  0  0  0  0  0  0  0  0  0  0  0
    5.7994   -0.3275  -17.7940 C   0  0  0  0  0  0  0  0  0  0  0  0
    7.2541    1.1254  -16.2939 C   0  0  0  0  0  0  0  0  0  0  0  0
    8.1711    1.9471  -16.2290 O   0  0  0  0  0  0  0  0  0  0  0  0
    8.5972    5.4040   -8.3099 C   0  0  0  0  0  0  0  0  0  0  0  0
    8.8765    6.3702   -7.1597 C   0  0  0  0  0  0  0  0  0  0  0  0
   11.0814    6.9721   -5.2894 C   0  0  0  0  0  0  0  0  0  0  0  0
   11.6865    7.5206   -4.1464 C   0  0  0  0  0  0  0  0  0  0  0  0
   13.3690    9.3512   -1.1307 H   0  0  0  0  0  0  0  0  0  0  0  0
   11.6861    8.9106   -1.1786 H   0  0  0  0  0  0  0  0  0  0  0  0
   12.8911    7.8138   -1.8140 H   0  0  0  0  0  0  0  0  0  0  0  0
   11.6852   10.7954   -5.0915 H   0  0  0  0  0  0  0  0  0  0  0  0
   10.5823    9.8543   -7.0501 H   0  0  0  0  0  0  0  0  0  0  0  0
    9.0268    8.6641   -8.5972 H   0  0  0  0  0  0  0  0  0  0  0  0
   10.7547    8.5666   -8.9050 H   0  0  0  0  0  0  0  0  0  0  0  0
    9.4029    7.6122  -10.7835 H   0  0  0  0  0  0  0  0  0  0  0  0
   10.5181    6.4531  -10.0863 H   0  0  0  0  0  0  0  0  0  0  0  0
    9.3066    4.5737  -10.8713 H   0  0  0  0  0  0  0  0  0  0  0  0
    7.6862    4.2704  -10.3389 H   0  0  0  0  0  0  0  0  0  0  0  0
    6.8682    6.1722  -11.8436 H   0  0  0  0  0  0  0  0  0  0  0  0
    8.4987    6.3237  -12.4455 H   0  0  0  0  0  0  0  0  0  0  0  0
    7.3860    4.9726  -14.0178 H   0  0  0  0  0  0  0  0  0  0  0  0
    8.4137    3.8747  -13.1454 H   0  0  0  0  0  0  0  0  0  0  0  0
    6.4155    3.1064  -11.7761 H   0  0  0  0  0  0  0  0  0  0  0  0
    5.4467    4.3155  -12.5630 H   0  0  0  0  0  0  0  0  0  0  0  0
    4.9021    2.3723  -13.7228 H   0  0  0  0  0  0  0  0  0  0  0  0
    6.0111    3.2276  -14.7786 H   0  0  0  0  0  0  0  0  0  0  0  0
    7.8679    1.6556  -13.8471 H   0  0  0  0  0  0  0  0  0  0  0  0
    6.6097    0.7656  -13.0493 H   0  0  0  0  0  0  0  0  0  0  0  0
    3.6500   -2.1364  -15.8621 H   0  0  0  0  0  0  0  0  0  0  0  0
    2.9662   -2.9678  -18.0641 H   0  0  0  0  0  0  0  0  0  0  0  0
    4.0487   -2.1216  -20.1185 H   0  0  0  0  0  0  0  0  0  0  0  0
    5.7427   -0.6274  -21.2016 H   0  0  0  0  0  0  0  0  0  0  0  0
    7.5712    1.0275  -20.9843 H   0  0  0  0  0  0  0  0  0  0  0  0
    8.2713    1.8122  -18.7587 H   0  0  0  0  0  0  0  0  0  0  0  0
    7.6870    4.8518   -8.0919 H   0  0  0  0  0  0  0  0  0  0  0  0
    9.4047    4.6720   -8.3542 H   0  0  0  0  0  0  0  0  0  0  0  0
    9.0168    5.7744   -6.2605 H   0  0  0  0  0  0  0  0  0  0  0  0
    8.0191    7.0138   -6.9707 H   0  0  0  0  0  0  0  0  0  0  0  0
   10.9511    5.9029   -5.3335 H   0  0  0  0  0  0  0  0  0  0  0  0
   11.9749    6.8337   -3.3691 H   0  0  0  0  0  0  0  0  0  0  0  0
    7.6315    6.6413   -9.6222 H   0  0  0  0  0  0  0  0  0  0  0  0
  2  1  1  0
  3  2  1  0
  4  3  1  0
  5  4  2  0
  6  5  1  0
  7  6  1  0
  8  7  1  0
  9  8  1  0
 10  9  1  0
 11 10  1  0
 12 11  1  0
 13 12  1  0
 14 13  1  0
 15 14  1  0
 16 15  1  0
 17 16  1  0
 18 17  1  0
 19 18  2  0
 20 18  1  0
 21 20  1  0
 22 21  2  0
 23 22  1  0
 24 23  2  0
 25 24  1  0
 26 25  2  0
 27 26  1  0
 28 27  2  0
 29 20  2  0
 29 24  1  0
 29 28  1  0
 30 17  1  0
 30 28  1  0
 31 30  2  0
 32 10  1  0
 33  7  1  0
 33 32  1  0
 34  6  2  0
 35  3  2  0
 35 34  1  0
 36  1  1  0
 37  1  1  0
 38  1  1  0
 39  4  1  0
 40  5  1  0
 41  8  1  0
 42  8  1  0
 43  9  1  0
 44  9  1  0
 45 11  1  0
 46 11  1  0
 47 12  1  0
 48 12  1  0
 49 13  1  0
 50 13  1  0
 51 14  1  0
 52 14  1  0
 53 15  1  0
 54 15  1  0
 55 16  1  0
 56 16  1  0
 57 21  1  0
 58 22  1  0
 59 23  1  0
 60 25  1  0
 61 26  1  0
 62 27  1  0
 63 32  1  0
 64 32  1  0
 65 33  1  0
 66 33  1  0
 67 34  1  0
 68 35  1  0
 69 10  1  0
M  CHG  1  10   1
M  END
>  <b_m_subgroup_collapsed>  (349) 
0

>  <r_i_docking_score>  (349) 
-8.1871475059791408

>  <s_m_subgroup_title>  (349) 
glide-dock_SP_D22_pv

>  <s_m_subgroupid>  (349) 
glide-dock_SP_D22_pv

>  <Molecule ChEMBL ID>  (349) 
CHEMBL4447330

>  <Standard Type>  (349) 
Ki

>  <Standard Value>  (349) 
40040.0

>  <label>  (349) 
0

$$$$
CHEMBL3590084
     RDKit          3D

 55 57  0  0  1  0  0  0  0  0999 V2000
    8.6579    4.1891   -9.1868 C   0  0  0  0  0  0  0  0  0  0  0  0
    8.4869    5.5048   -8.4318 C   0  0  0  0  0  0  0  0  0  0  0  0
    9.8415    6.1195   -8.0633 C   0  0  0  0  0  0  0  0  0  0  0  0
    9.7051    7.4226   -7.3531 N   0  0  2  0  0  0  0  0  0  0  0  0
    9.2042    8.5416   -8.2111 C   0  0  0  0  0  0  0  0  0  0  0  0
    9.9427    8.7328   -9.5504 C   0  0  0  0  0  0  0  0  0  0  0  0
    9.2861    7.9732  -10.6032 N   0  0  0  0  0  0  0  0  0  0  0  0
    9.9106    7.2660  -11.5494 C   0  0  0  0  0  0  0  0  0  0  0  0
   11.1154    7.3717  -11.7824 O   0  0  0  0  0  0  0  0  0  0  0  0
    8.9929    6.3302  -12.1688 C   0  0  0  0  0  0  0  0  0  0  0  0
    9.4563    5.3034  -12.9078 C   0  0  0  0  0  0  0  0  0  0  0  0
    8.6423    4.2295  -13.5013 C   0  0  0  0  0  0  0  0  0  0  0  0
    7.2427    4.1394  -13.3112 C   0  0  0  0  0  0  0  0  0  0  0  0
    6.5166    3.0580  -13.8482 C   0  0  0  0  0  0  0  0  0  0  0  0
    7.1807    2.0619  -14.5899 C   0  0  0  0  0  0  0  0  0  0  0  0
    6.4873    1.0153  -15.0966 F   0  0  0  0  0  0  0  0  0  0  0  0
    8.5690    2.1486  -14.7950 C   0  0  0  0  0  0  0  0  0  0  0  0
    9.2943    3.2278  -14.2528 C   0  0  0  0  0  0  0  0  0  0  0  0
   10.8943    7.7533   -6.5123 C   0  0  0  0  0  0  0  0  0  0  0  0
   10.8280    9.1176   -5.7700 C   0  0  0  0  0  0  0  0  0  0  0  0
   11.4648    8.8371   -4.4412 C   0  0  0  0  0  0  0  0  0  0  0  0
   11.7225    9.7611   -3.4221 C   0  0  0  0  0  0  0  0  0  0  0  0
   12.2576    9.2811   -2.2094 C   0  0  0  0  0  0  0  0  0  0  0  0
   12.4854    7.9023   -2.0151 C   0  0  0  0  0  0  0  0  0  0  0  0
   12.1947    6.9787   -3.0416 C   0  0  0  0  0  0  0  0  0  0  0  0
   11.6860    7.4795   -4.2518 C   0  0  0  0  0  0  0  0  0  0  0  0
   11.1986    6.6850   -5.4242 C   0  0  0  0  0  0  0  0  0  0  0  0
    7.6861    3.7724   -9.4441 H   0  0  0  0  0  0  0  0  0  0  0  0
    9.2063    4.3401  -10.1147 H   0  0  0  0  0  0  0  0  0  0  0  0
    9.2092    3.4464   -8.6160 H   0  0  0  0  0  0  0  0  0  0  0  0
    7.8924    5.3502   -7.5319 H   0  0  0  0  0  0  0  0  0  0  0  0
    7.9079    6.1749   -9.0628 H   0  0  0  0  0  0  0  0  0  0  0  0
   10.4891    6.2142   -8.9335 H   0  0  0  0  0  0  0  0  0  0  0  0
   10.3484    5.3881   -7.4411 H   0  0  0  0  0  0  0  0  0  0  0  0
    9.2340    9.4859   -7.6771 H   0  0  0  0  0  0  0  0  0  0  0  0
    8.1403    8.3978   -8.3831 H   0  0  0  0  0  0  0  0  0  0  0  0
   11.0071    8.5119   -9.4621 H   0  0  0  0  0  0  0  0  0  0  0  0
    9.8748    9.7729   -9.8466 H   0  0  0  0  0  0  0  0  0  0  0  0
    8.2774    7.8501  -10.5156 H   0  0  0  0  0  0  0  0  0  0  0  0
    7.9321    6.4525  -12.0023 H   0  0  0  0  0  0  0  0  0  0  0  0
   10.5229    5.2198  -13.0704 H   0  0  0  0  0  0  0  0  0  0  0  0
    6.7068    4.8771  -12.7337 H   0  0  0  0  0  0  0  0  0  0  0  0
    5.4502    2.9892  -13.6871 H   0  0  0  0  0  0  0  0  0  0  0  0
    9.0784    1.3822  -15.3617 H   0  0  0  0  0  0  0  0  0  0  0  0
   10.3631    3.2730  -14.4031 H   0  0  0  0  0  0  0  0  0  0  0  0
   11.7679    7.8003   -7.1656 H   0  0  0  0  0  0  0  0  0  0  0  0
   11.3519    9.9088   -6.3077 H   0  0  0  0  0  0  0  0  0  0  0  0
    9.8084    9.4435   -5.5769 H   0  0  0  0  0  0  0  0  0  0  0  0
   11.4893   10.8051   -3.5419 H   0  0  0  0  0  0  0  0  0  0  0  0
   12.4852    9.9669   -1.4077 H   0  0  0  0  0  0  0  0  0  0  0  0
   12.8857    7.5681   -1.0649 H   0  0  0  0  0  0  0  0  0  0  0  0
   12.3399    5.9187   -2.8918 H   0  0  0  0  0  0  0  0  0  0  0  0
   10.2915    6.1718   -5.1077 H   0  0  0  0  0  0  0  0  0  0  0  0
   11.9361    5.9471   -5.7448 H   0  0  0  0  0  0  0  0  0  0  0  0
    8.9625    7.2788   -6.6831 H   0  0  0  0  0  0  0  0  0  0  0  0
  2  1  1  0
  3  2  1  0
  4  3  1  0
  5  4  1  0
  6  5  1  0
  7  6  1  0
  8  7  1  0
  9  8  2  0
 10  8  1  0
 11 10  2  0
 12 11  1  0
 13 12  1  0
 14 13  2  0
 15 14  1  0
 16 15  1  0
 17 15  2  0
 18 12  2  0
 18 17  1  0
 19  4  1  0
 20 19  1  0
 21 20  1  0
 22 21  2  0
 23 22  1  0
 24 23  2  0
 25 24  1  0
 26 21  1  0
 26 25  2  0
 27 19  1  0
 27 26  1  0
 28  1  1  0
 29  1  1  0
 30  1  1  0
 31  2  1  0
 32  2  1  0
 33  3  1  0
 34  3  1  0
 35  5  1  0
 36  5  1  0
 37  6  1  0
 38  6  1  0
 39  7  1  0
 40 10  1  0
 41 11  1  0
 42 13  1  0
 43 14  1  0
 44 17  1  0
 45 18  1  0
 46 19  1  0
 47 20  1  0
 48 20  1  0
 49 22  1  0
 50 23  1  0
 51 24  1  0
 52 25  1  0
 53 27  1  0
 54 27  1  0
  4 55  1  1
M  CHG  1   4   1
M  END
>  <b_m_subgroup_collapsed>  (350) 
0

>  <r_i_docking_score>  (350) 
-8.1853015228104695

>  <s_m_subgroup_title>  (350) 
glide-dock_SP_D22_pv

>  <s_m_subgroupid>  (350) 
glide-dock_SP_D22_pv

>  <Molecule ChEMBL ID>  (350) 
CHEMBL3590084

>  <Standard Type>  (350) 
Ki

>  <Standard Value>  (350) 
13.0

>  <label>  (350) 
1

$$$$
CHEMBL4862301
     RDKit          3D

 60 63  0  0  1  0  0  0  0  0999 V2000
    5.9854   -0.7945  -14.9361 C   0  0  0  0  0  0  0  0  0  0  0  0
    6.1437    0.5823  -14.6243 O   0  0  0  0  0  0  0  0  0  0  0  0
    7.4132    1.1253  -14.6494 C   0  0  0  0  0  0  0  0  0  0  0  0
    8.5662    0.4013  -15.0436 C   0  0  0  0  0  0  0  0  0  0  0  0
    9.8362    1.0081  -15.0475 C   0  0  0  0  0  0  0  0  0  0  0  0
    9.9691    2.3534  -14.6671 C   0  0  0  0  0  0  0  0  0  0  0  0
    8.8308    3.0844  -14.2836 C   0  0  0  0  0  0  0  0  0  0  0  0
    7.5554    2.4796  -14.2631 C   0  0  0  0  0  0  0  0  0  0  0  0
    6.3701    3.2975  -13.8517 C   0  0  1  0  0  0  0  0  0  0  0  0
    5.3471    2.8559  -12.8335 C   0  0  0  0  0  0  0  0  0  0  0  0
    6.3331    3.9498  -12.4937 C   0  0  2  0  0  0  0  0  0  0  0  0
    5.8830    5.3915  -12.3480 C   0  0  0  0  0  0  0  0  0  0  0  0
    6.9714    6.3850  -12.2470 N   0  0  0  0  0  0  0  0  0  0  0  0
    8.1481    5.9858  -11.4680 C   0  0  0  0  0  0  0  0  0  0  0  0
    9.0614    7.1885  -11.1981 C   0  0  0  0  0  0  0  0  0  0  0  0
   10.2037    6.8427  -10.2420 C   0  0  0  0  0  0  0  0  0  0  0  0
    9.6953    6.2046   -8.9321 C   0  0  0  0  0  0  0  0  0  0  0  0
   10.6995    6.0821   -7.9450 O   0  0  0  0  0  0  0  0  0  0  0  0
   10.8264    7.1183   -7.0583 C   0  0  0  0  0  0  0  0  0  0  0  0
   10.5297    8.4643   -7.3844 C   0  0  0  0  0  0  0  0  0  0  0  0
   10.7017    9.4698   -6.4276 C   0  0  0  0  0  0  0  0  0  0  0  0
   11.1238    9.1355   -5.1409 C   0  0  0  0  0  0  0  0  0  0  0  0
   11.4456    7.8085   -4.8026 C   0  0  0  0  0  0  0  0  0  0  0  0
   11.2861    6.8003   -5.7658 C   0  0  0  0  0  0  0  0  0  0  0  0
   11.9017    7.5025   -3.4959 N   0  0  0  0  0  0  0  0  0  0  0  0
   12.2360    8.4417   -2.5953 C   0  0  0  0  0  0  0  0  0  0  0  0
   12.5565    8.1725   -1.4470 O   0  0  0  0  0  0  0  0  0  0  0  0
   12.2347    9.9005   -3.0464 C   0  0  0  0  0  0  0  0  0  0  0  0
   11.1509   10.1876   -4.0793 C   0  0  0  0  0  0  0  0  0  0  0  0
    4.9308   -1.0594  -14.8680 H   0  0  0  0  0  0  0  0  0  0  0  0
    6.3130   -1.0188  -15.9516 H   0  0  0  0  0  0  0  0  0  0  0  0
    6.5250   -1.4268  -14.2313 H   0  0  0  0  0  0  0  0  0  0  0  0
    8.5034   -0.6276  -15.3524 H   0  0  0  0  0  0  0  0  0  0  0  0
   10.7064    0.4424  -15.3460 H   0  0  0  0  0  0  0  0  0  0  0  0
   10.9413    2.8240  -14.6740 H   0  0  0  0  0  0  0  0  0  0  0  0
    8.9423    4.1202  -14.0052 H   0  0  0  0  0  0  0  0  0  0  0  0
    5.9995    3.8745  -14.6891 H   0  0  0  0  0  0  0  0  0  0  0  0
    4.3152    3.1496  -13.0062 H   0  0  0  0  0  0  0  0  0  0  0  0
    5.4850    1.8904  -12.3503 H   0  0  0  0  0  0  0  0  0  0  0  0
    7.0456    3.6245  -11.7415 H   0  0  0  0  0  0  0  0  0  0  0  0
    5.2529    5.6689  -13.1905 H   0  0  0  0  0  0  0  0  0  0  0  0
    5.2844    5.4705  -11.4464 H   0  0  0  0  0  0  0  0  0  0  0  0
    7.2556    6.7104  -13.1572 H   0  0  0  0  0  0  0  0  0  0  0  0
    7.7625    5.5719  -10.5368 H   0  0  0  0  0  0  0  0  0  0  0  0
    8.7088    5.2034  -11.9771 H   0  0  0  0  0  0  0  0  0  0  0  0
    9.4731    7.5633  -12.1361 H   0  0  0  0  0  0  0  0  0  0  0  0
    8.4865    8.0106  -10.7718 H   0  0  0  0  0  0  0  0  0  0  0  0
   10.8859    6.1724  -10.7446 H   0  0  0  0  0  0  0  0  0  0  0  0
   10.7919    7.7388  -10.0573 H   0  0  0  0  0  0  0  0  0  0  0  0
    8.8223    6.7328   -8.5412 H   0  0  0  0  0  0  0  0  0  0  0  0
    9.3658    5.1844   -9.1259 H   0  0  0  0  0  0  0  0  0  0  0  0
   10.1573    8.7594   -8.3499 H   0  0  0  0  0  0  0  0  0  0  0  0
   10.4861   10.5019   -6.6475 H   0  0  0  0  0  0  0  0  0  0  0  0
   11.5231    5.7776   -5.5200 H   0  0  0  0  0  0  0  0  0  0  0  0
   11.9566    6.5318   -3.2233 H   0  0  0  0  0  0  0  0  0  0  0  0
   12.0861   10.5624   -2.2006 H   0  0  0  0  0  0  0  0  0  0  0  0
   13.2183   10.1116   -3.4629 H   0  0  0  0  0  0  0  0  0  0  0  0
   11.2859   11.1579   -4.5512 H   0  0  0  0  0  0  0  0  0  0  0  0
   10.1728   10.2010   -3.6078 H   0  0  0  0  0  0  0  0  0  0  0  0
    6.5841    7.1610  -11.6987 H   0  0  0  0  0  0  0  0  0  0  0  0
  2  1  1  0
  3  2  1  0
  4  3  2  0
  5  4  1  0
  6  5  2  0
  7  6  1  0
  8  3  1  0
  8  7  2  0
  9  8  1  0
 10  9  1  0
 11  9  1  0
 11 10  1  0
 12 11  1  0
 13 12  1  0
 14 13  1  0
 15 14  1  0
 16 15  1  0
 17 16  1  0
 18 17  1  0
 19 18  1  0
 20 19  1  0
 21 20  2  0
 22 21  1  0
 23 22  2  0
 24 19  2  0
 24 23  1  0
 25 23  1  0
 26 25  1  0
 27 26  2  0
 28 26  1  0
 29 22  1  0
 29 28  1  0
 30  1  1  0
 31  1  1  0
 32  1  1  0
 33  4  1  0
 34  5  1  0
 35  6  1  0
 36  7  1  0
  9 37  1  6
 38 10  1  0
 39 10  1  0
 11 40  1  1
 41 12  1  0
 42 12  1  0
 43 13  1  0
 44 14  1  0
 45 14  1  0
 46 15  1  0
 47 15  1  0
 48 16  1  0
 49 16  1  0
 50 17  1  0
 51 17  1  0
 52 20  1  0
 53 21  1  0
 54 24  1  0
 55 25  1  0
 56 28  1  0
 57 28  1  0
 58 29  1  0
 59 29  1  0
 60 13  1  0
M  CHG  1  13   1
M  END
>  <b_m_subgroup_collapsed>  (351) 
0

>  <r_i_docking_score>  (351) 
-8.1845064417874607

>  <s_m_subgroup_title>  (351) 
glide-dock_SP_D22_pv

>  <s_m_subgroupid>  (351) 
glide-dock_SP_D22_pv

>  <Molecule ChEMBL ID>  (351) 
CHEMBL4862301

>  <Standard Type>  (351) 
Ki

>  <Standard Value>  (351) 
61.9

>  <label>  (351) 
1

$$$$
CHEMBL564477
     RDKit          3D

 47 50  0  0  1  0  0  0  0  0999 V2000
    5.2969   -1.8489  -15.2555 C   0  0  0  0  0  0  0  0  0  0  0  0
    5.7030   -0.4817  -14.7477 C   0  0  0  0  0  0  0  0  0  0  0  0
    6.8439    0.1754  -15.2509 C   0  0  0  0  0  0  0  0  0  0  0  0
    7.1309    1.4791  -14.7998 C   0  0  0  0  0  0  0  0  0  0  0  0
    6.2659    2.0865  -13.8581 C   0  0  0  0  0  0  0  0  0  0  0  0
    6.4150    3.4442  -13.4285 N   0  0  0  0  0  0  0  0  0  0  0  0
    5.2853    4.1930  -12.8928 C   0  0  0  0  0  0  0  0  0  0  0  0
    5.8743    5.5297  -12.4904 C   0  0  0  0  0  0  0  0  0  0  0  0
    7.2859    5.3118  -12.7047 N   0  0  0  0  0  0  0  0  0  0  0  0
    8.2166    6.1727  -11.9950 C   0  0  0  0  0  0  0  0  0  0  0  0
    8.6115    5.5008  -10.6639 C   0  0  0  0  0  0  0  0  0  0  0  0
    8.8850    6.4750   -9.5920 N   0  0  0  0  0  0  0  0  0  0  0  0
    9.1170    5.8666   -8.2525 C   0  0  0  0  0  0  0  0  0  0  0  0
    9.9451    6.9089   -7.5649 C   0  0  0  0  0  0  0  0  0  0  0  0
   10.2477    7.0158   -6.1975 C   0  0  0  0  0  0  0  0  0  0  0  0
   10.9789    8.1456   -5.7677 C   0  0  0  0  0  0  0  0  0  0  0  0
   11.3759    9.1401   -6.6941 C   0  0  0  0  0  0  0  0  0  0  0  0
   11.0606    9.0043   -8.0643 C   0  0  0  0  0  0  0  0  0  0  0  0
   10.3622    7.8639   -8.4756 C   0  0  0  0  0  0  0  0  0  0  0  0
    9.9033    7.5199   -9.8617 C   0  0  0  0  0  0  0  0  0  0  0  0
    7.5631    4.1425  -13.2975 C   0  0  0  0  0  0  0  0  0  0  0  0
    8.6963    3.7566  -13.5799 O   0  0  0  0  0  0  0  0  0  0  0  0
    5.1812    1.3085  -13.3890 C   0  0  0  0  0  0  0  0  0  0  0  0
    4.8969    0.0622  -13.8156 N   0  0  0  0  0  0  0  0  0  0  0  0
    5.6855   -2.0245  -16.2581 H   0  0  0  0  0  0  0  0  0  0  0  0
    5.6856   -2.6248  -14.5984 H   0  0  0  0  0  0  0  0  0  0  0  0
    4.2111   -1.9437  -15.2988 H   0  0  0  0  0  0  0  0  0  0  0  0
    7.4727   -0.3023  -15.9882 H   0  0  0  0  0  0  0  0  0  0  0  0
    7.9776    2.0045  -15.2145 H   0  0  0  0  0  0  0  0  0  0  0  0
    4.4923    4.3038  -13.6320 H   0  0  0  0  0  0  0  0  0  0  0  0
    4.8864    3.7033  -12.0072 H   0  0  0  0  0  0  0  0  0  0  0  0
    5.6585    5.7670  -11.4459 H   0  0  0  0  0  0  0  0  0  0  0  0
    5.5102    6.3504  -13.1074 H   0  0  0  0  0  0  0  0  0  0  0  0
    9.0986    6.3628  -12.6093 H   0  0  0  0  0  0  0  0  0  0  0  0
    7.7353    7.1395  -11.8470 H   0  0  0  0  0  0  0  0  0  0  0  0
    7.7982    4.8653  -10.3067 H   0  0  0  0  0  0  0  0  0  0  0  0
    9.4732    4.8472  -10.8105 H   0  0  0  0  0  0  0  0  0  0  0  0
    8.1739    5.6840   -7.7346 H   0  0  0  0  0  0  0  0  0  0  0  0
    9.6826    4.9362   -8.3211 H   0  0  0  0  0  0  0  0  0  0  0  0
    9.9162    6.2678   -5.4922 H   0  0  0  0  0  0  0  0  0  0  0  0
   11.2226    8.2597   -4.7223 H   0  0  0  0  0  0  0  0  0  0  0  0
   11.9137   10.0123   -6.3512 H   0  0  0  0  0  0  0  0  0  0  0  0
   11.3042    9.7716   -8.7821 H   0  0  0  0  0  0  0  0  0  0  0  0
   10.7401    7.1282  -10.4421 H   0  0  0  0  0  0  0  0  0  0  0  0
    9.4687    8.3781  -10.3745 H   0  0  0  0  0  0  0  0  0  0  0  0
    4.4857    1.6932  -12.6611 H   0  0  0  0  0  0  0  0  0  0  0  0
    8.0096    6.9896   -9.4954 H   0  0  0  0  0  0  0  0  0  0  0  0
  2  1  1  0
  3  2  2  0
  4  3  1  0
  5  4  2  0
  6  5  1  0
  7  6  1  0
  8  7  1  0
  9  8  1  0
 10  9  1  0
 11 10  1  0
 12 11  1  0
 13 12  1  0
 14 13  1  0
 15 14  2  0
 16 15  1  0
 17 16  2  0
 18 17  1  0
 19 14  1  0
 19 18  2  0
 20 12  1  0
 20 19  1  0
 21  6  1  0
 21  9  1  0
 22 21  2  0
 23  5  1  0
 24  2  1  0
 24 23  2  0
 25  1  1  0
 26  1  1  0
 27  1  1  0
 28  3  1  0
 29  4  1  0
 30  7  1  0
 31  7  1  0
 32  8  1  0
 33  8  1  0
 34 10  1  0
 35 10  1  0
 36 11  1  0
 37 11  1  0
 38 13  1  0
 39 13  1  0
 40 15  1  0
 41 16  1  0
 42 17  1  0
 43 18  1  0
 44 20  1  0
 45 20  1  0
 46 23  1  0
 47 12  1  0
M  CHG  1  12   1
M  END
>  <b_m_subgroup_collapsed>  (352) 
0

>  <r_i_docking_score>  (352) 
-8.1806391787162909

>  <s_m_subgroup_title>  (352) 
glide-dock_SP_D22_pv

>  <s_m_subgroupid>  (352) 
glide-dock_SP_D22_pv

>  <Molecule ChEMBL ID>  (352) 
CHEMBL564477

>  <Standard Type>  (352) 
Ki

>  <Standard Value>  (352) 
10000.0

>  <label>  (352) 
0

$$$$
CHEMBL5174637
     RDKit          3D

 55 58  0  0  1  0  0  0  0  0999 V2000
    9.8149   -0.0924  -15.6303 C   0  0  0  0  0  0  0  0  0  0  0  0
    9.3526    1.2277  -15.4058 O   0  0  0  0  0  0  0  0  0  0  0  0
    8.1398    1.3973  -14.7676 C   0  0  0  0  0  0  0  0  0  0  0  0
    7.2629    0.3335  -14.4400 C   0  0  0  0  0  0  0  0  0  0  0  0
    6.0442    0.5872  -13.7840 C   0  0  0  0  0  0  0  0  0  0  0  0
    5.6859    1.9058  -13.4469 C   0  0  0  0  0  0  0  0  0  0  0  0
    6.5425    2.9715  -13.7779 C   0  0  0  0  0  0  0  0  0  0  0  0
    7.7706    2.7183  -14.4255 C   0  0  0  0  0  0  0  0  0  0  0  0
    8.7173    3.8697  -14.7268 C   0  0  0  0  0  0  0  0  0  0  0  0
    9.9883    3.8371  -13.8636 C   0  0  0  0  0  0  0  0  0  0  0  0
    9.6846    3.7730  -12.4419 N   0  0  0  0  0  0  0  0  0  0  0  0
    9.4317    4.8732  -11.6484 C   0  0  0  0  0  0  0  0  0  0  0  0
    9.4454    6.0774  -12.2298 N   0  0  0  0  0  0  0  0  0  0  0  0
    9.3368    7.0607  -11.3442 C   0  0  0  0  0  0  0  0  0  0  0  0
    9.2741    8.3284  -11.8467 N   0  0  0  0  0  0  0  0  0  0  0  0
    9.2873    6.9695  -10.0233 N   0  0  0  0  0  0  0  0  0  0  0  0
    9.2105    5.7052   -9.6057 C   0  0  0  0  0  0  0  0  0  0  0  0
    9.1082    5.4815   -8.2486 N   0  0  0  0  0  0  0  0  0  0  0  0
    9.3325    6.5131   -7.2461 C   0  0  0  0  0  0  0  0  0  0  0  0
   10.8269    6.8490   -7.1160 C   0  0  0  0  0  0  0  0  0  0  0  0
   11.0713    8.0079   -6.2050 C   0  0  0  0  0  0  0  0  0  0  0  0
   10.9584    9.3324   -6.5355 C   0  0  0  0  0  0  0  0  0  0  0  0
   11.2859   10.1046   -5.4337 N   0  0  0  0  0  0  0  0  0  0  0  0
   11.6229    9.3008   -4.3630 C   0  0  0  0  0  0  0  0  0  0  0  0
   12.0215    9.5843   -3.0455 C   0  0  0  0  0  0  0  0  0  0  0  0
   12.2980    8.5271   -2.1614 C   0  0  0  0  0  0  0  0  0  0  0  0
   12.1557    7.1952   -2.5961 C   0  0  0  0  0  0  0  0  0  0  0  0
   11.7497    6.9209   -3.9163 C   0  0  0  0  0  0  0  0  0  0  0  0
   11.4816    7.9621   -4.8307 C   0  0  0  0  0  0  0  0  0  0  0  0
    9.2861    4.6051  -10.3517 N   0  0  0  0  0  0  0  0  0  0  0  0
   10.7962   -0.0552  -16.1021 H   0  0  0  0  0  0  0  0  0  0  0  0
    9.9202   -0.6281  -14.6894 H   0  0  0  0  0  0  0  0  0  0  0  0
    9.1450   -0.6331  -16.2997 H   0  0  0  0  0  0  0  0  0  0  0  0
    7.5038   -0.6898  -14.6803 H   0  0  0  0  0  0  0  0  0  0  0  0
    5.3863   -0.2329  -13.5398 H   0  0  0  0  0  0  0  0  0  0  0  0
    4.7512    2.1005  -12.9407 H   0  0  0  0  0  0  0  0  0  0  0  0
    6.2658    3.9807  -13.5101 H   0  0  0  0  0  0  0  0  0  0  0  0
    8.9857    3.8410  -15.7837 H   0  0  0  0  0  0  0  0  0  0  0  0
    8.1987    4.8181  -14.5752 H   0  0  0  0  0  0  0  0  0  0  0  0
   10.5904    2.9631  -14.1116 H   0  0  0  0  0  0  0  0  0  0  0  0
   10.6134    4.7049  -14.0798 H   0  0  0  0  0  0  0  0  0  0  0  0
    9.6862    2.8658  -11.9873 H   0  0  0  0  0  0  0  0  0  0  0  0
    8.8213    8.9949  -11.2419 H   0  0  0  0  0  0  0  0  0  0  0  0
    9.0261    8.3952  -12.8208 H   0  0  0  0  0  0  0  0  0  0  0  0
    9.0398    4.5186   -7.9609 H   0  0  0  0  0  0  0  0  0  0  0  0
    8.7602    7.4030   -7.5129 H   0  0  0  0  0  0  0  0  0  0  0  0
    8.9370    6.1743   -6.2893 H   0  0  0  0  0  0  0  0  0  0  0  0
   11.3689    5.9727   -6.7586 H   0  0  0  0  0  0  0  0  0  0  0  0
   11.2507    7.0733   -8.0950 H   0  0  0  0  0  0  0  0  0  0  0  0
   10.6733    9.7724   -7.4787 H   0  0  0  0  0  0  0  0  0  0  0  0
   11.2857   11.1133   -5.4468 H   0  0  0  0  0  0  0  0  0  0  0  0
   12.0882   10.6035   -2.6936 H   0  0  0  0  0  0  0  0  0  0  0  0
   12.5969    8.7397   -1.1460 H   0  0  0  0  0  0  0  0  0  0  0  0
   12.3523    6.3790   -1.9161 H   0  0  0  0  0  0  0  0  0  0  0  0
   11.6416    5.8944   -4.2363 H   0  0  0  0  0  0  0  0  0  0  0  0
  2  1  1  0
  3  2  1  0
  4  3  2  0
  5  4  1  0
  6  5  2  0
  7  6  1  0
  8  3  1  0
  8  7  2  0
  9  8  1  0
 10  9  1  0
 11 10  1  0
 12 11  1  0
 13 12  1  0
 14 13  2  0
 15 14  1  0
 16 14  1  0
 17 16  2  0
 18 17  1  0
 19 18  1  0
 20 19  1  0
 21 20  1  0
 22 21  2  0
 23 22  1  0
 24 23  1  0
 25 24  2  0
 26 25  1  0
 27 26  2  0
 28 27  1  0
 29 21  1  0
 29 24  1  0
 29 28  2  0
 30 12  2  0
 30 17  1  0
 31  1  1  0
 32  1  1  0
 33  1  1  0
 34  4  1  0
 35  5  1  0
 36  6  1  0
 37  7  1  0
 38  9  1  0
 39  9  1  0
 40 10  1  0
 41 10  1  0
 42 11  1  0
 43 15  1  0
 44 15  1  0
 45 18  1  0
 46 19  1  0
 47 19  1  0
 48 20  1  0
 49 20  1  0
 50 22  1  0
 51 23  1  0
 52 25  1  0
 53 26  1  0
 54 27  1  0
 55 28  1  0
M  END
>  <b_m_subgroup_collapsed>  (353) 
0

>  <r_i_docking_score>  (353) 
-8.1793454734765998

>  <s_m_subgroup_title>  (353) 
glide-dock_SP_D22_pv

>  <s_m_subgroupid>  (353) 
glide-dock_SP_D22_pv

>  <Molecule ChEMBL ID>  (353) 
CHEMBL5174637

>  <Standard Type>  (353) 
Ki

>  <Standard Value>  (353) 
13300.0

>  <label>  (353) 
0

$$$$
CHEMBL4864320
     RDKit          3D

 84 87  0  0  1  0  0  0  0  0999 V2000
   14.8243    4.2263  -19.2037 C   0  0  0  0  0  0  0  0  0  0  0  0
   14.2245    4.4607  -17.8152 C   0  0  0  0  0  0  0  0  0  0  0  0
   12.9186    3.6823  -17.6134 C   0  0  0  0  0  0  0  0  0  0  0  0
   12.4016    3.8191  -16.2311 N   0  0  1  0  0  0  0  0  0  0  0  0
   11.9399    5.1706  -15.8457 C   0  0  0  0  0  0  0  0  0  0  0  0
   11.0478    4.9809  -14.6077 C   0  0  2  0  0  0  0  0  0  0  0  0
   11.7264    5.4341  -13.4468 O   0  0  0  0  0  0  0  0  0  0  0  0
   11.5966    6.8239  -13.1762 C   0  0  0  0  0  0  0  0  0  0  0  0
   10.2997    7.1011  -12.3932 C   0  0  0  0  0  0  0  0  0  0  0  0
   10.3530    6.6070  -10.9474 C   0  0  0  0  0  0  0  0  0  0  0  0
    9.0755    6.9048  -10.1641 C   0  0  0  0  0  0  0  0  0  0  0  0
    9.2339    6.4314   -8.8340 O   0  0  0  0  0  0  0  0  0  0  0  0
    9.8616    7.2251   -7.8965 C   0  0  0  0  0  0  0  0  0  0  0  0
   10.1086    8.6143   -8.0297 C   0  0  0  0  0  0  0  0  0  0  0  0
   10.6864    9.3383   -6.9674 C   0  0  0  0  0  0  0  0  0  0  0  0
   11.0148    8.6844   -5.7714 C   0  0  0  0  0  0  0  0  0  0  0  0
   10.8550    7.2871   -5.6574 C   0  0  0  0  0  0  0  0  0  0  0  0
   10.2607    6.5732   -6.7147 C   0  0  0  0  0  0  0  0  0  0  0  0
   11.2863    6.6205   -4.4817 N   0  0  0  0  0  0  0  0  0  0  0  0
   12.0781    7.1866   -3.5508 C   0  0  0  0  0  0  0  0  0  0  0  0
   12.4696    6.5732   -2.5606 O   0  0  0  0  0  0  0  0  0  0  0  0
   12.5455    8.6294   -3.7966 C   0  0  0  0  0  0  0  0  0  0  0  0
   11.5296    9.4621   -4.5797 C   0  0  0  0  0  0  0  0  0  0  0  0
   10.8341    3.4656  -14.4928 C   0  0  0  0  0  0  0  0  0  0  0  0
   11.3398    2.8717  -15.8157 C   0  0  1  0  0  0  0  0  0  0  0  0
   10.2175    2.7103  -16.8710 C   0  0  0  0  0  0  0  0  0  0  0  0
    9.1628    1.8187  -16.4041 N   0  0  0  0  0  0  0  0  0  0  0  0
    7.9912    1.6503  -17.0314 C   0  0  0  0  0  0  0  0  0  0  0  0
    7.7303    2.1725  -18.1178 O   0  0  0  0  0  0  0  0  0  0  0  0
    6.9902    0.7857  -16.3113 C   0  0  0  0  0  0  0  0  0  0  0  0
    6.2828   -0.2302  -17.0103 C   0  0  0  0  0  0  0  0  0  0  0  0
    6.5641   -0.5121  -18.3202 O   0  0  0  0  0  0  0  0  0  0  0  0
    5.2854   -0.9856  -16.3497 C   0  0  0  0  0  0  0  0  0  0  0  0
    4.5163   -2.0807  -17.0706 C   0  0  0  0  0  0  0  0  0  0  0  0
    5.2861   -3.4083  -17.0967 C   0  0  0  0  0  0  0  0  0  0  0  0
    4.9991   -0.7333  -14.9983 C   0  0  0  0  0  0  0  0  0  0  0  0
    5.6924    0.2667  -14.2972 C   0  0  0  0  0  0  0  0  0  0  0  0
    5.2895    0.5752  -12.6469 Cl  0  0  0  0  0  0  0  0  0  0  0  0
    6.6906    1.0291  -14.9449 C   0  0  0  0  0  0  0  0  0  0  0  0
    7.3509    2.0151  -14.2493 O   0  0  0  0  0  0  0  0  0  0  0  0
    6.6180    3.2251  -14.1244 C   0  0  0  0  0  0  0  0  0  0  0  0
   15.7485    4.7861  -19.3279 H   0  0  0  0  0  0  0  0  0  0  0  0
   15.0426    3.1722  -19.3693 H   0  0  0  0  0  0  0  0  0  0  0  0
   14.1374    4.5490  -19.9853 H   0  0  0  0  0  0  0  0  0  0  0  0
   14.0487    5.5274  -17.6843 H   0  0  0  0  0  0  0  0  0  0  0  0
   14.9468    4.1734  -17.0481 H   0  0  0  0  0  0  0  0  0  0  0  0
   13.1011    2.6250  -17.8069 H   0  0  0  0  0  0  0  0  0  0  0  0
   12.1711    4.0179  -18.3337 H   0  0  0  0  0  0  0  0  0  0  0  0
   11.3493    5.6061  -16.6543 H   0  0  0  0  0  0  0  0  0  0  0  0
   12.7817    5.8379  -15.6528 H   0  0  0  0  0  0  0  0  0  0  0  0
   10.0883    5.4806  -14.7443 H   0  0  0  0  0  0  0  0  0  0  0  0
   12.4525    7.1360  -12.5790 H   0  0  0  0  0  0  0  0  0  0  0  0
   11.6471    7.4053  -14.0969 H   0  0  0  0  0  0  0  0  0  0  0  0
   10.0986    8.1717  -12.3827 H   0  0  0  0  0  0  0  0  0  0  0  0
    9.4473    6.6403  -12.8905 H   0  0  0  0  0  0  0  0  0  0  0  0
   10.4846    5.5303  -10.9389 H   0  0  0  0  0  0  0  0  0  0  0  0
   11.2115    7.0460  -10.4410 H   0  0  0  0  0  0  0  0  0  0  0  0
    8.7906    7.9523  -10.2301 H   0  0  0  0  0  0  0  0  0  0  0  0
    8.2507    6.3479  -10.6082 H   0  0  0  0  0  0  0  0  0  0  0  0
    9.8416    9.1616   -8.9155 H   0  0  0  0  0  0  0  0  0  0  0  0
   10.8755   10.3963   -7.0442 H   0  0  0  0  0  0  0  0  0  0  0  0
   10.0894    5.5197   -6.6469 H   0  0  0  0  0  0  0  0  0  0  0  0
   11.0230    5.6518   -4.3611 H   0  0  0  0  0  0  0  0  0  0  0  0
   12.8222    9.1190   -2.8620 H   0  0  0  0  0  0  0  0  0  0  0  0
   13.4301    8.5713   -4.4228 H   0  0  0  0  0  0  0  0  0  0  0  0
   11.9930   10.3783   -4.9398 H   0  0  0  0  0  0  0  0  0  0  0  0
   10.6909    9.7498   -3.9431 H   0  0  0  0  0  0  0  0  0  0  0  0
    9.7993    3.2155  -14.2562 H   0  0  0  0  0  0  0  0  0  0  0  0
   11.4397    3.0721  -13.6764 H   0  0  0  0  0  0  0  0  0  0  0  0
   11.7894    1.8951  -15.6349 H   0  0  0  0  0  0  0  0  0  0  0  0
   10.6120    2.2934  -17.7974 H   0  0  0  0  0  0  0  0  0  0  0  0
    9.7842    3.6817  -17.1193 H   0  0  0  0  0  0  0  0  0  0  0  0
    9.2784    1.3679  -15.5050 H   0  0  0  0  0  0  0  0  0  0  0  0
    6.0500   -1.2307  -18.6579 H   0  0  0  0  0  0  0  0  0  0  0  0
    3.5534   -2.2225  -16.5762 H   0  0  0  0  0  0  0  0  0  0  0  0
    4.2757   -1.7622  -18.0863 H   0  0  0  0  0  0  0  0  0  0  0  0
    4.7193   -4.1743  -17.6243 H   0  0  0  0  0  0  0  0  0  0  0  0
    6.2516   -3.3051  -17.5902 H   0  0  0  0  0  0  0  0  0  0  0  0
    5.4659   -3.7715  -16.0853 H   0  0  0  0  0  0  0  0  0  0  0  0
    4.2388   -1.3052  -14.4909 H   0  0  0  0  0  0  0  0  0  0  0  0
    7.2994    4.0490  -13.9126 H   0  0  0  0  0  0  0  0  0  0  0  0
    6.0854    3.4569  -15.0455 H   0  0  0  0  0  0  0  0  0  0  0  0
    5.8967    3.1766  -13.3103 H   0  0  0  0  0  0  0  0  0  0  0  0
   13.1807    3.6153  -15.6195 H   0  0  0  0  0  0  0  0  0  0  0  0
  2  1  1  0
  3  2  1  0
  4  3  1  0
  5  4  1  0
  6  5  1  0
  7  6  1  0
  8  7  1  0
  9  8  1  0
 10  9  1  0
 11 10  1  0
 12 11  1  0
 13 12  1  0
 14 13  1  0
 15 14  2  0
 16 15  1  0
 17 16  2  0
 18 13  2  0
 18 17  1  0
 19 17  1  0
 20 19  1  0
 21 20  2  0
 22 20  1  0
 23 16  1  0
 23 22  1  0
 24  6  1  0
 25  4  1  0
 25 24  1  0
 26 25  1  0
 27 26  1  0
 28 27  1  0
 29 28  2  0
 30 28  1  0
 31 30  1  0
 32 31  1  0
 33 31  2  0
 34 33  1  0
 35 34  1  0
 36 33  1  0
 37 36  2  0
 38 37  1  0
 39 30  2  0
 39 37  1  0
 40 39  1  0
 41 40  1  0
 42  1  1  0
 43  1  1  0
 44  1  1  0
 45  2  1  0
 46  2  1  0
 47  3  1  0
 48  3  1  0
 49  5  1  0
 50  5  1  0
  6 51  1  6
 52  8  1  0
 53  8  1  0
 54  9  1  0
 55  9  1  0
 56 10  1  0
 57 10  1  0
 58 11  1  0
 59 11  1  0
 60 14  1  0
 61 15  1  0
 62 18  1  0
 63 19  1  0
 64 22  1  0
 65 22  1  0
 66 23  1  0
 67 23  1  0
 68 24  1  0
 69 24  1  0
 25 70  1  1
 71 26  1  0
 72 26  1  0
 73 27  1  0
 74 32  1  0
 75 34  1  0
 76 34  1  0
 77 35  1  0
 78 35  1  0
 79 35  1  0
 80 36  1  0
 81 41  1  0
 82 41  1  0
 83 41  1  0
  4 84  1  1
M  CHG  1   4   1
M  END
>  <b_m_subgroup_collapsed>  (354) 
0

>  <r_i_docking_score>  (354) 
-8.1786088832331796

>  <s_m_subgroup_title>  (354) 
glide-dock_SP_D22_pv

>  <s_m_subgroupid>  (354) 
glide-dock_SP_D22_pv

>  <Molecule ChEMBL ID>  (354) 
CHEMBL4864320

>  <Standard Type>  (354) 
Ki

>  <Standard Value>  (354) 
2.57

>  <label>  (354) 
1

$$$$
CHEMBL78241
     RDKit          3D

 53 57  0  0  1  0  0  0  0  0999 V2000
   11.8713    8.2243   -3.0461 C   0  0  0  0  0  0  0  0  0  0  0  0
   11.6882    6.9534   -3.6191 C   0  0  0  0  0  0  0  0  0  0  0  0
   11.3434    6.8332   -4.9809 C   0  0  0  0  0  0  0  0  0  0  0  0
   11.1976    7.9749   -5.7983 C   0  0  0  0  0  0  0  0  0  0  0  0
   10.8998    7.8564   -7.2407 C   0  0  0  0  0  0  0  0  0  0  0  0
   11.5569    8.7028   -8.1562 C   0  0  0  0  0  0  0  0  0  0  0  0
   11.2222    8.7006   -9.5208 C   0  0  0  0  0  0  0  0  0  0  0  0
   10.2442    7.8141   -9.9998 C   0  0  0  0  0  0  0  0  0  0  0  0
    9.6514    6.8724   -9.1273 C   0  0  0  0  0  0  0  0  0  0  0  0
    8.6320    5.8359   -9.6049 C   0  0  0  0  0  0  0  0  0  0  0  0
    8.4861    5.6757  -11.0809 N   0  0  0  0  0  0  0  0  0  0  0  0
    9.6851    5.0778  -11.7127 C   0  0  0  0  0  0  0  0  0  0  0  0
    9.5564    4.8311  -13.2227 C   0  0  0  0  0  0  0  0  0  0  0  0
    8.3070    4.1516  -13.5388 N   0  0  0  0  0  0  0  0  0  0  0  0
    8.2674    2.9798  -14.3376 C   0  0  0  0  0  0  0  0  0  0  0  0
    7.1864    2.0592  -14.2470 C   0  0  0  0  0  0  0  0  0  0  0  0
    7.1534    0.8707  -15.0144 C   0  0  0  0  0  0  0  0  0  0  0  0
    8.1975    0.5682  -15.9108 C   0  0  0  0  0  0  0  0  0  0  0  0
    9.2551    1.4817  -16.0106 C   0  0  0  0  0  0  0  0  0  0  0  0
    9.2903    2.6457  -15.2638 C   0  0  0  0  0  0  0  0  0  0  0  0
   10.4146    3.3367  -15.6016 O   0  0  0  0  0  0  0  0  0  0  0  0
   11.0955    2.5594  -16.5513 C   0  0  0  0  0  0  0  0  0  0  0  0
   10.3518    1.4007  -16.8058 O   0  0  0  0  0  0  0  0  0  0  0  0
    7.1106    4.7655  -12.9733 C   0  0  0  0  0  0  0  0  0  0  0  0
    7.2607    4.9338  -11.4489 C   0  0  0  0  0  0  0  0  0  0  0  0
    9.9702    6.9195   -7.7500 C   0  0  0  0  0  0  0  0  0  0  0  0
   11.3612    9.2469   -5.2001 C   0  0  0  0  0  0  0  0  0  0  0  0
   11.6889    9.3725   -3.8363 C   0  0  0  0  0  0  0  0  0  0  0  0
   12.1294    8.3221   -2.0012 H   0  0  0  0  0  0  0  0  0  0  0  0
   11.8123    6.0666   -3.0139 H   0  0  0  0  0  0  0  0  0  0  0  0
   11.2243    5.8476   -5.4042 H   0  0  0  0  0  0  0  0  0  0  0  0
   12.3232    9.3724   -7.8007 H   0  0  0  0  0  0  0  0  0  0  0  0
   11.7136    9.3874  -10.1964 H   0  0  0  0  0  0  0  0  0  0  0  0
    9.9801    7.8633  -11.0455 H   0  0  0  0  0  0  0  0  0  0  0  0
    8.8601    4.8687   -9.1521 H   0  0  0  0  0  0  0  0  0  0  0  0
    7.6859    6.1516   -9.1792 H   0  0  0  0  0  0  0  0  0  0  0  0
   10.4898    5.7727  -11.5647 H   0  0  0  0  0  0  0  0  0  0  0  0
    9.9383    4.1437  -11.2087 H   0  0  0  0  0  0  0  0  0  0  0  0
    9.5892    5.7727  -13.7701 H   0  0  0  0  0  0  0  0  0  0  0  0
   10.4321    4.2591  -13.5179 H   0  0  0  0  0  0  0  0  0  0  0  0
    6.3741    2.2162  -13.5547 H   0  0  0  0  0  0  0  0  0  0  0  0
    6.3262    0.1819  -14.9087 H   0  0  0  0  0  0  0  0  0  0  0  0
    8.1837   -0.3372  -16.5010 H   0  0  0  0  0  0  0  0  0  0  0  0
   11.2105    3.1307  -17.4733 H   0  0  0  0  0  0  0  0  0  0  0  0
   12.0807    2.2895  -16.1685 H   0  0  0  0  0  0  0  0  0  0  0  0
    6.9973    5.7453  -13.4410 H   0  0  0  0  0  0  0  0  0  0  0  0
    6.1938    4.2303  -13.2075 H   0  0  0  0  0  0  0  0  0  0  0  0
    7.2745    3.9539  -10.9683 H   0  0  0  0  0  0  0  0  0  0  0  0
    6.3972    5.4787  -11.0681 H   0  0  0  0  0  0  0  0  0  0  0  0
    9.4728    6.2430   -7.0700 H   0  0  0  0  0  0  0  0  0  0  0  0
   11.2332   10.1418   -5.7906 H   0  0  0  0  0  0  0  0  0  0  0  0
   11.7999   10.3506   -3.3917 H   0  0  0  0  0  0  0  0  0  0  0  0
    8.3530    6.6069  -11.4504 H   0  0  0  0  0  0  0  0  0  0  0  0
  2  1  2  0
  3  2  1  0
  4  3  2  0
  5  4  1  0
  6  5  1  0
  7  6  2  0
  8  7  1  0
  9  8  2  0
 10  9  1  0
 11 10  1  0
 12 11  1  0
 13 12  1  0
 14 13  1  0
 15 14  1  0
 16 15  2  0
 17 16  1  0
 18 17  2  0
 19 18  1  0
 20 15  1  0
 20 19  2  0
 21 20  1  0
 22 21  1  0
 23 19  1  0
 23 22  1  0
 24 14  1  0
 25 11  1  0
 25 24  1  0
 26  5  2  0
 26  9  1  0
 27  4  1  0
 28  1  1  0
 28 27  2  0
 29  1  1  0
 30  2  1  0
 31  3  1  0
 32  6  1  0
 33  7  1  0
 34  8  1  0
 35 10  1  0
 36 10  1  0
 37 12  1  0
 38 12  1  0
 39 13  1  0
 40 13  1  0
 41 16  1  0
 42 17  1  0
 43 18  1  0
 44 22  1  0
 45 22  1  0
 46 24  1  0
 47 24  1  0
 48 25  1  0
 49 25  1  0
 50 26  1  0
 51 27  1  0
 52 28  1  0
 53 11  1  0
M  CHG  1  11   1
M  END
>  <b_m_subgroup_collapsed>  (355) 
0

>  <r_i_docking_score>  (355) 
-8.1779275141816203

>  <s_m_subgroup_title>  (355) 
glide-dock_SP_D22_pv

>  <s_m_subgroupid>  (355) 
glide-dock_SP_D22_pv

>  <Molecule ChEMBL ID>  (355) 
CHEMBL78241

>  <Standard Type>  (355) 
Ki

>  <Standard Value>  (355) 
10.0

>  <label>  (355) 
1

$$$$
CHEMBL1774543
     RDKit          3D

 70 73  0  0  1  0  0  0  0  0999 V2000
    7.9715    4.4080  -10.9719 C   0  0  0  0  0  0  0  0  0  0  0  0
    9.2023    4.6713  -10.1002 C   0  0  0  0  0  0  0  0  0  0  0  0
    8.8625    5.3261   -8.7392 C   0  0  0  0  0  0  0  0  0  0  0  0
    9.6513    6.5509   -8.4283 N   0  0  1  0  0  0  0  0  0  0  0  0
    9.4758    7.5544   -9.5157 C   0  0  0  0  0  0  0  0  0  0  0  0
   10.7066    7.6061  -10.4465 C   0  0  0  0  0  0  0  0  0  0  0  0
   10.2873    7.8028  -11.9145 C   0  0  0  0  0  0  0  0  0  0  0  0
   11.3495    7.3640  -12.9454 C   0  0  0  0  0  0  0  0  0  0  0  0
   11.3282    5.9347  -13.2707 N   0  0  0  0  0  0  0  0  0  0  0  0
   10.0811    5.3763  -13.8275 C   0  0  0  0  0  0  0  0  0  0  0  0
   10.2061    3.8509  -14.0042 C   0  0  0  0  0  0  0  0  0  0  0  0
   11.3551    3.5500  -14.8485 N   0  0  0  0  0  0  0  0  0  0  0  0
   11.2991    2.6717  -15.9515 C   0  0  0  0  0  0  0  0  0  0  0  0
   12.0491    2.9831  -17.1106 C   0  0  0  0  0  0  0  0  0  0  0  0
   12.0296    2.1442  -18.2387 C   0  0  0  0  0  0  0  0  0  0  0  0
   11.2518    0.9755  -18.2243 C   0  0  0  0  0  0  0  0  0  0  0  0
   10.4982    0.6502  -17.0816 C   0  0  0  0  0  0  0  0  0  0  0  0
   10.5125    1.4862  -15.9338 C   0  0  0  0  0  0  0  0  0  0  0  0
    9.8174    1.1734  -14.7842 O   0  0  0  0  0  0  0  0  0  0  0  0
    8.8263    0.1644  -14.8508 C   0  0  0  0  0  0  0  0  0  0  0  0
   12.5923    4.2043  -14.4439 C   0  0  0  0  0  0  0  0  0  0  0  0
   12.3632    5.7111  -14.2824 C   0  0  0  0  0  0  0  0  0  0  0  0
    9.3177    7.0516   -7.0616 C   0  0  0  0  0  0  0  0  0  0  0  0
   10.2894    8.0417   -6.4483 C   0  0  0  0  0  0  0  0  0  0  0  0
   10.4462    9.3299   -6.8931 C   0  0  0  0  0  0  0  0  0  0  0  0
   11.3379   10.3791   -5.8465 S   0  0  0  0  0  0  0  0  0  0  0  0
   11.6558    9.0608   -4.7509 C   0  0  0  0  0  0  0  0  0  0  0  0
   12.3337    9.1334   -3.5206 C   0  0  0  0  0  0  0  0  0  0  0  0
   12.4820    7.9802   -2.7362 C   0  0  0  0  0  0  0  0  0  0  0  0
   11.9779    6.7569   -3.2029 C   0  0  0  0  0  0  0  0  0  0  0  0
   11.2869    6.7008   -4.4302 C   0  0  0  0  0  0  0  0  0  0  0  0
   11.0788    7.8419   -5.2384 C   0  0  0  0  0  0  0  0  0  0  0  0
    8.2437    3.9035  -11.8978 H   0  0  0  0  0  0  0  0  0  0  0  0
    7.2635    3.7717  -10.4537 H   0  0  0  0  0  0  0  0  0  0  0  0
    7.4604    5.3358  -11.2333 H   0  0  0  0  0  0  0  0  0  0  0  0
    9.8723    5.2455  -10.7200 H   0  0  0  0  0  0  0  0  0  0  0  0
    9.7689    3.7696   -9.9125 H   0  0  0  0  0  0  0  0  0  0  0  0
    8.9950    4.5815   -7.9538 H   0  0  0  0  0  0  0  0  0  0  0  0
    7.8082    5.6015   -8.7071 H   0  0  0  0  0  0  0  0  0  0  0  0
    8.5821    7.2962  -10.0843 H   0  0  0  0  0  0  0  0  0  0  0  0
    9.2235    8.5453   -9.1595 H   0  0  0  0  0  0  0  0  0  0  0  0
   11.3805    8.4065  -10.1357 H   0  0  0  0  0  0  0  0  0  0  0  0
   11.2971    6.6914  -10.3561 H   0  0  0  0  0  0  0  0  0  0  0  0
    9.3301    7.3328  -12.1245 H   0  0  0  0  0  0  0  0  0  0  0  0
   10.0835    8.8624  -12.0307 H   0  0  0  0  0  0  0  0  0  0  0  0
   11.2835    7.9456  -13.8632 H   0  0  0  0  0  0  0  0  0  0  0  0
   12.3330    7.6106  -12.5407 H   0  0  0  0  0  0  0  0  0  0  0  0
    9.2224    5.5798  -13.1936 H   0  0  0  0  0  0  0  0  0  0  0  0
    9.8619    5.7894  -14.8096 H   0  0  0  0  0  0  0  0  0  0  0  0
   10.3264    3.3549  -13.0399 H   0  0  0  0  0  0  0  0  0  0  0  0
    9.2847    3.4796  -14.4532 H   0  0  0  0  0  0  0  0  0  0  0  0
   12.6389    3.8867  -17.1555 H   0  0  0  0  0  0  0  0  0  0  0  0
   12.6096    2.4021  -19.1136 H   0  0  0  0  0  0  0  0  0  0  0  0
   11.2337    0.3263  -19.0876 H   0  0  0  0  0  0  0  0  0  0  0  0
    9.9252   -0.2632  -17.1087 H   0  0  0  0  0  0  0  0  0  0  0  0
    8.3039    0.1059  -13.8963 H   0  0  0  0  0  0  0  0  0  0  0  0
    8.0855    0.3817  -15.6203 H   0  0  0  0  0  0  0  0  0  0  0  0
    9.2795   -0.8048  -15.0498 H   0  0  0  0  0  0  0  0  0  0  0  0
   12.8857    3.7858  -13.4825 H   0  0  0  0  0  0  0  0  0  0  0  0
   13.4073    4.0216  -15.1406 H   0  0  0  0  0  0  0  0  0  0  0  0
   12.0801    6.1581  -15.2371 H   0  0  0  0  0  0  0  0  0  0  0  0
   13.2851    6.1961  -13.9787 H   0  0  0  0  0  0  0  0  0  0  0  0
    9.2351    6.1919   -6.3942 H   0  0  0  0  0  0  0  0  0  0  0  0
    8.3156    7.4844   -7.0809 H   0  0  0  0  0  0  0  0  0  0  0  0
    9.9796    9.7705   -7.7536 H   0  0  0  0  0  0  0  0  0  0  0  0
   12.7207   10.0774   -3.1648 H   0  0  0  0  0  0  0  0  0  0  0  0
   12.9715    8.0429   -1.7761 H   0  0  0  0  0  0  0  0  0  0  0  0
   12.0852    5.8637   -2.6040 H   0  0  0  0  0  0  0  0  0  0  0  0
   10.8568    5.7663   -4.7392 H   0  0  0  0  0  0  0  0  0  0  0  0
   10.6253    6.2872   -8.4104 H   0  0  0  0  0  0  0  0  0  0  0  0
  2  1  1  0
  3  2  1  0
  4  3  1  0
  5  4  1  0
  6  5  1  0
  7  6  1  0
  8  7  1  0
  9  8  1  0
 10  9  1  0
 11 10  1  0
 12 11  1  0
 13 12  1  0
 14 13  2  0
 15 14  1  0
 16 15  2  0
 17 16  1  0
 18 13  1  0
 18 17  2  0
 19 18  1  0
 20 19  1  0
 21 12  1  0
 22  9  1  0
 22 21  1  0
 23  4  1  0
 24 23  1  0
 25 24  2  0
 26 25  1  0
 27 26  1  0
 28 27  2  0
 29 28  1  0
 30 29  2  0
 31 30  1  0
 32 24  1  0
 32 27  1  0
 32 31  2  0
 33  1  1  0
 34  1  1  0
 35  1  1  0
 36  2  1  0
 37  2  1  0
 38  3  1  0
 39  3  1  0
 40  5  1  0
 41  5  1  0
 42  6  1  0
 43  6  1  0
 44  7  1  0
 45  7  1  0
 46  8  1  0
 47  8  1  0
 48 10  1  0
 49 10  1  0
 50 11  1  0
 51 11  1  0
 52 14  1  0
 53 15  1  0
 54 16  1  0
 55 17  1  0
 56 20  1  0
 57 20  1  0
 58 20  1  0
 59 21  1  0
 60 21  1  0
 61 22  1  0
 62 22  1  0
 63 23  1  0
 64 23  1  0
 65 25  1  0
 66 28  1  0
 67 29  1  0
 68 30  1  0
 69 31  1  0
  4 70  1  1
M  CHG  1   4   1
M  END
>  <b_m_subgroup_collapsed>  (356) 
0

>  <r_i_docking_score>  (356) 
-8.1752263659964708

>  <s_m_subgroup_title>  (356) 
glide-dock_SP_D22_pv

>  <s_m_subgroupid>  (356) 
glide-dock_SP_D22_pv

>  <Molecule ChEMBL ID>  (356) 
CHEMBL1774543

>  <Standard Type>  (356) 
Ki

>  <Standard Value>  (356) 
69.9

>  <label>  (356) 
1

$$$$
CHEMBL516334
     RDKit          3D

 74 77  0  0  1  0  0  0  0  0999 V2000
   13.2783    7.3705  -15.3897 C   0  0  0  0  0  0  0  0  0  0  0  0
   12.0932    6.6806  -15.0245 O   0  0  0  0  0  0  0  0  0  0  0  0
   11.8909    5.4225  -15.5501 C   0  0  0  0  0  0  0  0  0  0  0  0
   12.8478    4.7079  -16.3131 C   0  0  0  0  0  0  0  0  0  0  0  0
   12.5436    3.4292  -16.8211 C   0  0  0  0  0  0  0  0  0  0  0  0
   11.2871    2.8467  -16.5746 C   0  0  0  0  0  0  0  0  0  0  0  0
   10.3286    3.5491  -15.8183 C   0  0  0  0  0  0  0  0  0  0  0  0
    8.9511    2.9610  -15.5910 C   0  0  0  0  0  0  0  0  0  0  0  0
    8.9082    1.8765  -14.5095 C   0  0  0  0  0  0  0  0  0  0  0  0
    7.5067    1.3158  -14.3055 C   0  0  0  0  0  0  0  0  0  0  0  0
    7.2451   -0.0254  -14.6468 C   0  0  0  0  0  0  0  0  0  0  0  0
    5.9833   -0.5987  -14.4087 C   0  0  0  0  0  0  0  0  0  0  0  0
    4.9729    0.1721  -13.8083 C   0  0  0  0  0  0  0  0  0  0  0  0
    5.2301    1.5078  -13.4468 C   0  0  0  0  0  0  0  0  0  0  0  0
    6.4839    2.1040  -13.7253 C   0  0  0  0  0  0  0  0  0  0  0  0
    6.7610    3.4205  -13.4246 O   0  0  0  0  0  0  0  0  0  0  0  0
    6.0861    4.0129  -12.3218 C   0  0  0  0  0  0  0  0  0  0  0  0
    6.7717    5.3479  -11.9855 C   0  0  0  0  0  0  0  0  0  0  0  0
    8.2918    5.1943  -11.8097 C   0  0  0  0  0  0  0  0  0  0  0  0
    8.9985    6.4717  -11.3202 C   0  0  0  0  0  0  0  0  0  0  0  0
    8.8862    6.7007   -9.8567 N   0  0  0  0  0  0  0  0  0  0  0  0
    9.1907    8.1136   -9.5025 C   0  0  0  0  0  0  0  0  0  0  0  0
    9.1100    8.3637   -7.9840 C   0  0  0  0  0  0  0  0  0  0  0  0
    9.9368    7.3963   -7.2756 N   0  0  0  0  0  0  0  0  0  0  0  0
   10.7869    7.7720   -6.2117 C   0  0  0  0  0  0  0  0  0  0  0  0
   10.8872    6.9798   -5.0467 C   0  0  0  0  0  0  0  0  0  0  0  0
   11.6862    7.3786   -3.9557 C   0  0  0  0  0  0  0  0  0  0  0  0
   12.3791    8.6006   -4.0037 C   0  0  0  0  0  0  0  0  0  0  0  0
   12.3402    9.3721   -5.1795 C   0  0  0  0  0  0  0  0  0  0  0  0
   11.5827    8.9430   -6.2867 C   0  0  0  0  0  0  0  0  0  0  0  0
   11.6849    9.6518   -7.4467 O   0  0  0  0  0  0  0  0  0  0  0  0
   12.4101    8.9710   -8.4636 C   0  0  0  0  0  0  0  0  0  0  0  0
    9.6242    6.0070   -7.5422 C   0  0  0  0  0  0  0  0  0  0  0  0
    9.6747    5.7242   -9.0528 C   0  0  0  0  0  0  0  0  0  0  0  0
   10.6381    4.8266  -15.3063 C   0  0  0  0  0  0  0  0  0  0  0  0
   13.2783    8.3568  -14.9248 H   0  0  0  0  0  0  0  0  0  0  0  0
   14.1672    6.8398  -15.0464 H   0  0  0  0  0  0  0  0  0  0  0  0
   13.3413    7.5150  -16.4694 H   0  0  0  0  0  0  0  0  0  0  0  0
   13.8236    5.1180  -16.5199 H   0  0  0  0  0  0  0  0  0  0  0  0
   13.2828    2.8907  -17.3945 H   0  0  0  0  0  0  0  0  0  0  0  0
   11.0602    1.8675  -16.9740 H   0  0  0  0  0  0  0  0  0  0  0  0
    8.5563    2.5822  -16.5348 H   0  0  0  0  0  0  0  0  0  0  0  0
    8.3043    3.7717  -15.2796 H   0  0  0  0  0  0  0  0  0  0  0  0
    9.2640    2.2825  -13.5598 H   0  0  0  0  0  0  0  0  0  0  0  0
    9.5933    1.0680  -14.7700 H   0  0  0  0  0  0  0  0  0  0  0  0
    8.0243   -0.6270  -15.0881 H   0  0  0  0  0  0  0  0  0  0  0  0
    5.7980   -1.6288  -14.6820 H   0  0  0  0  0  0  0  0  0  0  0  0
    3.9977   -0.2582  -13.6286 H   0  0  0  0  0  0  0  0  0  0  0  0
    4.4321    2.0764  -12.9963 H   0  0  0  0  0  0  0  0  0  0  0  0
    6.1235    3.3505  -11.4551 H   0  0  0  0  0  0  0  0  0  0  0  0
    5.0381    4.1906  -12.5613 H   0  0  0  0  0  0  0  0  0  0  0  0
    6.3309    5.7622  -11.0785 H   0  0  0  0  0  0  0  0  0  0  0  0
    6.5687    6.0711  -12.7753 H   0  0  0  0  0  0  0  0  0  0  0  0
    8.7116    4.9347  -12.7815 H   0  0  0  0  0  0  0  0  0  0  0  0
    8.5107    4.3378  -11.1757 H   0  0  0  0  0  0  0  0  0  0  0  0
    8.5928    7.3291  -11.8621 H   0  0  0  0  0  0  0  0  0  0  0  0
   10.0571    6.4253  -11.5850 H   0  0  0  0  0  0  0  0  0  0  0  0
    8.5013    8.7853  -10.0166 H   0  0  0  0  0  0  0  0  0  0  0  0
   10.1796    8.3564   -9.8793 H   0  0  0  0  0  0  0  0  0  0  0  0
    8.0868    8.2338   -7.6364 H   0  0  0  0  0  0  0  0  0  0  0  0
    9.3670    9.3933   -7.7473 H   0  0  0  0  0  0  0  0  0  0  0  0
   10.3060    6.0800   -4.9478 H   0  0  0  0  0  0  0  0  0  0  0  0
   11.7259    6.7667   -3.0651 H   0  0  0  0  0  0  0  0  0  0  0  0
   12.9603    8.9277   -3.1559 H   0  0  0  0  0  0  0  0  0  0  0  0
   12.9425   10.2610   -5.2642 H   0  0  0  0  0  0  0  0  0  0  0  0
   12.1148    9.3727   -9.4334 H   0  0  0  0  0  0  0  0  0  0  0  0
   13.4842    9.0996   -8.3188 H   0  0  0  0  0  0  0  0  0  0  0  0
   12.2273    7.8982   -8.4962 H   0  0  0  0  0  0  0  0  0  0  0  0
   10.3517    5.3724   -7.0478 H   0  0  0  0  0  0  0  0  0  0  0  0
    8.6384    5.7733   -7.1368 H   0  0  0  0  0  0  0  0  0  0  0  0
    9.3360    4.7031   -9.2237 H   0  0  0  0  0  0  0  0  0  0  0  0
   10.7130    5.7748   -9.3818 H   0  0  0  0  0  0  0  0  0  0  0  0
    9.9017    5.3744  -14.7369 H   0  0  0  0  0  0  0  0  0  0  0  0
    7.9015    6.6072   -9.6231 H   0  0  0  0  0  0  0  0  0  0  0  0
  2  1  1  0
  3  2  1  0
  4  3  1  0
  5  4  2  0
  6  5  1  0
  7  6  2  0
  8  7  1  0
  9  8  1  0
 10  9  1  0
 11 10  2  0
 12 11  1  0
 13 12  2  0
 14 13  1  0
 15 10  1  0
 15 14  2  0
 16 15  1  0
 17 16  1  0
 18 17  1  0
 19 18  1  0
 20 19  1  0
 21 20  1  0
 22 21  1  0
 23 22  1  0
 24 23  1  0
 25 24  1  0
 26 25  2  0
 27 26  1  0
 28 27  2  0
 29 28  1  0
 30 25  1  0
 30 29  2  0
 31 30  1  0
 32 31  1  0
 33 24  1  0
 34 21  1  0
 34 33  1  0
 35  3  2  0
 35  7  1  0
 36  1  1  0
 37  1  1  0
 38  1  1  0
 39  4  1  0
 40  5  1  0
 41  6  1  0
 42  8  1  0
 43  8  1  0
 44  9  1  0
 45  9  1  0
 46 11  1  0
 47 12  1  0
 48 13  1  0
 49 14  1  0
 50 17  1  0
 51 17  1  0
 52 18  1  0
 53 18  1  0
 54 19  1  0
 55 19  1  0
 56 20  1  0
 57 20  1  0
 58 22  1  0
 59 22  1  0
 60 23  1  0
 61 23  1  0
 62 26  1  0
 63 27  1  0
 64 28  1  0
 65 29  1  0
 66 32  1  0
 67 32  1  0
 68 32  1  0
 69 33  1  0
 70 33  1  0
 71 34  1  0
 72 34  1  0
 73 35  1  0
 74 21  1  0
M  CHG  1  21   1
M  END
>  <b_m_subgroup_collapsed>  (357) 
0

>  <r_i_docking_score>  (357) 
-8.1748468874951801

>  <s_m_subgroup_title>  (357) 
glide-dock_SP_D22_pv

>  <s_m_subgroupid>  (357) 
glide-dock_SP_D22_pv

>  <Molecule ChEMBL ID>  (357) 
CHEMBL516334

>  <Standard Type>  (357) 
Ki

>  <Standard Value>  (357) 
67000.0

>  <label>  (357) 
0

$$$$
CHEMBL5202417
     RDKit          3D

 77 82  0  0  1  0  0  0  0  0999 V2000
   11.8089   11.0579   -6.1632 C   0  0  0  0  0  0  0  0  0  0  0  0
   11.2449    9.7808   -6.3219 O   0  0  0  0  0  0  0  0  0  0  0  0
   11.4679    8.8754   -5.3086 C   0  0  0  0  0  0  0  0  0  0  0  0
   12.1931    9.1806   -4.1236 C   0  0  0  0  0  0  0  0  0  0  0  0
   12.4644    8.1937   -3.1631 C   0  0  0  0  0  0  0  0  0  0  0  0
   12.0208    6.8812   -3.3777 C   0  0  0  0  0  0  0  0  0  0  0  0
   11.2860    6.5740   -4.5358 C   0  0  0  0  0  0  0  0  0  0  0  0
   10.9734    7.5633   -5.4943 C   0  0  0  0  0  0  0  0  0  0  0  0
   10.1814    7.2491   -6.6170 N   0  0  0  0  0  0  0  0  0  0  0  0
   10.3893    6.0232   -7.3623 C   0  0  0  0  0  0  0  0  0  0  0  0
   10.4463    6.3162   -8.8672 C   0  0  0  0  0  0  0  0  0  0  0  0
    9.2860    7.1357   -9.3189 N   0  0  0  0  0  0  0  0  0  0  0  0
    9.2808    7.3432  -10.7899 C   0  0  0  0  0  0  0  0  0  0  0  0
    8.9135    6.0458  -11.5614 C   0  0  0  0  0  0  0  0  0  0  0  0
    9.8166    5.7636  -12.7855 C   0  0  0  0  0  0  0  0  0  0  0  0
   10.3568    4.3182  -12.8492 C   0  0  0  0  0  0  0  0  0  0  0  0
    9.4978    3.4167  -13.6025 N   0  0  0  0  0  0  0  0  0  0  0  0
    9.5355    3.3741  -15.0077 C   0  0  0  0  0  0  0  0  0  0  0  0
   10.3058    4.2812  -15.7892 C   0  0  0  0  0  0  0  0  0  0  0  0
   10.2879    4.2136  -17.1993 C   0  0  0  0  0  0  0  0  0  0  0  0
    9.4828    3.2472  -17.8305 C   0  0  0  0  0  0  0  0  0  0  0  0
    8.7434    2.3885  -16.9875 C   0  0  0  0  0  0  0  0  0  0  0  0
    7.8511    1.4127  -17.4398 N   0  0  0  0  0  0  0  0  0  0  0  0
    7.3140    0.7576  -16.3710 N   0  0  0  0  0  0  0  0  0  0  0  0
    6.3661   -0.1196  -16.4445 C   0  0  0  0  0  0  0  0  0  0  0  0
    5.6687   -0.3706  -17.6800 C   0  0  0  0  0  0  0  0  0  0  0  0
    4.5287   -1.0596  -17.9950 C   0  0  0  0  0  0  0  0  0  0  0  0
    3.6436   -1.8276  -17.0571 C   0  0  0  0  0  0  0  0  0  0  0  0
    4.3278   -0.8959  -19.3950 C   0  0  0  0  0  0  0  0  0  0  0  0
    5.3414   -0.1329  -19.9011 C   0  0  0  0  0  0  0  0  0  0  0  0
    5.6014    0.3284  -21.2984 C   0  0  0  0  0  0  0  0  0  0  0  0
    6.1778    0.1826  -18.8413 N   0  0  0  0  0  0  0  0  0  0  0  0
    7.5112    1.0292  -18.9299 B   0  0  0  0  0  0  0  0  0  0  0  0
    7.2884    2.1677  -19.6564 F   0  0  0  0  0  0  0  0  0  0  0  0
    8.5223    0.2808  -19.4716 F   0  0  0  0  0  0  0  0  0  0  0  0
    7.8642    1.3301  -14.9876 B   0  0  0  0  0  0  0  0  0  0  0  0
    6.8410    1.8708  -14.2467 F   0  0  0  0  0  0  0  0  0  0  0  0
    8.5788    0.3789  -14.3071 F   0  0  0  0  0  0  0  0  0  0  0  0
    8.7817    2.4317  -15.6401 N   0  0  0  0  0  0  0  0  0  0  0  0
    9.1694    8.3940   -8.5340 C   0  0  0  0  0  0  0  0  0  0  0  0
    9.0502    8.0708   -7.0316 C   0  0  0  0  0  0  0  0  0  0  0  0
   11.6773   11.6758   -7.0465 H   0  0  0  0  0  0  0  0  0  0  0  0
   11.3005   11.5450   -5.3286 H   0  0  0  0  0  0  0  0  0  0  0  0
   12.8834   10.9722   -5.9915 H   0  0  0  0  0  0  0  0  0  0  0  0
   12.5707   10.1705   -3.9189 H   0  0  0  0  0  0  0  0  0  0  0  0
   13.0132    8.4449   -2.2668 H   0  0  0  0  0  0  0  0  0  0  0  0
   12.2150    6.1117   -2.6445 H   0  0  0  0  0  0  0  0  0  0  0  0
   10.9011    5.5791   -4.6468 H   0  0  0  0  0  0  0  0  0  0  0  0
    9.5447    5.3721   -7.1527 H   0  0  0  0  0  0  0  0  0  0  0  0
   11.2996    5.5129   -7.0477 H   0  0  0  0  0  0  0  0  0  0  0  0
   10.4860    5.3687   -9.4031 H   0  0  0  0  0  0  0  0  0  0  0  0
   11.3650    6.8590   -9.0995 H   0  0  0  0  0  0  0  0  0  0  0  0
   10.2516    7.7433  -11.0827 H   0  0  0  0  0  0  0  0  0  0  0  0
    8.5536    8.1145  -11.0479 H   0  0  0  0  0  0  0  0  0  0  0  0
    7.8723    6.1082  -11.8866 H   0  0  0  0  0  0  0  0  0  0  0  0
    8.9227    5.1814  -10.8978 H   0  0  0  0  0  0  0  0  0  0  0  0
   10.6853    6.4283  -12.7673 H   0  0  0  0  0  0  0  0  0  0  0  0
    9.2725    6.0161  -13.6990 H   0  0  0  0  0  0  0  0  0  0  0  0
   10.4833    3.9127  -11.8460 H   0  0  0  0  0  0  0  0  0  0  0  0
   11.3545    4.3091  -13.2909 H   0  0  0  0  0  0  0  0  0  0  0  0
    9.0084    2.6872  -13.0952 H   0  0  0  0  0  0  0  0  0  0  0  0
   10.9141    5.0432  -15.3280 H   0  0  0  0  0  0  0  0  0  0  0  0
   10.8753    4.9044  -17.7880 H   0  0  0  0  0  0  0  0  0  0  0  0
    9.4297    3.1765  -18.9082 H   0  0  0  0  0  0  0  0  0  0  0  0
    6.0515   -0.6399  -15.5480 H   0  0  0  0  0  0  0  0  0  0  0  0
    3.1476   -2.6272  -17.6053 H   0  0  0  0  0  0  0  0  0  0  0  0
    4.2197   -2.2841  -16.2519 H   0  0  0  0  0  0  0  0  0  0  0  0
    2.8868   -1.1746  -16.6239 H   0  0  0  0  0  0  0  0  0  0  0  0
    3.5166   -1.3031  -19.9799 H   0  0  0  0  0  0  0  0  0  0  0  0
    4.9325   -0.1698  -22.0017 H   0  0  0  0  0  0  0  0  0  0  0  0
    5.4367    1.4034  -21.3862 H   0  0  0  0  0  0  0  0  0  0  0  0
    6.6278    0.1143  -21.5978 H   0  0  0  0  0  0  0  0  0  0  0  0
   10.0464    9.0183   -8.7142 H   0  0  0  0  0  0  0  0  0  0  0  0
    8.3031    8.9724   -8.8579 H   0  0  0  0  0  0  0  0  0  0  0  0
    8.1303    7.5134   -6.8469 H   0  0  0  0  0  0  0  0  0  0  0  0
    8.9656    8.9724   -6.4325 H   0  0  0  0  0  0  0  0  0  0  0  0
    8.4346    6.6278   -9.1113 H   0  0  0  0  0  0  0  0  0  0  0  0
  2  1  1  0
  3  2  1  0
  4  3  2  0
  5  4  1  0
  6  5  2  0
  7  6  1  0
  8  3  1  0
  8  7  2  0
  9  8  1  0
 10  9  1  0
 11 10  1  0
 12 11  1  0
 13 12  1  0
 14 13  1  0
 15 14  1  0
 16 15  1  0
 17 16  1  0
 18 17  1  0
 19 18  2  0
 20 19  1  0
 21 20  2  0
 22 21  1  0
 23 22  1  0
 24 23  1  0
 25 24  2  0
 26 25  1  0
 27 26  2  0
 28 27  1  0
 29 27  1  0
 30 29  2  0
 31 30  1  0
 32 26  1  0
 32 30  1  0
 33 23  1  0
 33 32  1  0
 34 33  1  0
 35 33  1  0
 36 24  1  0
 37 36  1  0
 38 36  1  0
 39 18  1  0
 39 22  2  0
 39 36  1  0
 40 12  1  0
 41  9  1  0
 41 40  1  0
 42  1  1  0
 43  1  1  0
 44  1  1  0
 45  4  1  0
 46  5  1  0
 47  6  1  0
 48  7  1  0
 49 10  1  0
 50 10  1  0
 51 11  1  0
 52 11  1  0
 53 13  1  0
 54 13  1  0
 55 14  1  0
 56 14  1  0
 57 15  1  0
 58 15  1  0
 59 16  1  0
 60 16  1  0
 61 17  1  0
 62 19  1  0
 63 20  1  0
 64 21  1  0
 65 25  1  0
 66 28  1  0
 67 28  1  0
 68 28  1  0
 69 29  1  0
 70 31  1  0
 71 31  1  0
 72 31  1  0
 73 40  1  0
 74 40  1  0
 75 41  1  0
 76 41  1  0
 77 12  1  0
M  CHG  5  12   1  24   1  33  -1  36  -1  39   1
M  END
>  <b_m_subgroup_collapsed>  (358) 
0

>  <r_i_docking_score>  (358) 
-8.1705302290830399

>  <s_m_subgroup_title>  (358) 
glide-dock_SP_D22_pv

>  <s_m_subgroupid>  (358) 
glide-dock_SP_D22_pv

>  <Molecule ChEMBL ID>  (358) 
CHEMBL5202417

>  <Standard Type>  (358) 
Ki

>  <Standard Value>  (358) 
81.1

>  <label>  (358) 
1

$$$$
CHEMBL353220
     RDKit          3D

 57 60  0  0  1  0  0  0  0  0999 V2000
   12.7085    6.1317  -15.4141 C   0  0  0  0  0  0  0  0  0  0  0  0
   11.5078    5.5469  -14.9266 O   0  0  0  0  0  0  0  0  0  0  0  0
   11.2122    4.2428  -15.2775 C   0  0  0  0  0  0  0  0  0  0  0  0
   12.0160    3.4917  -16.1757 C   0  0  0  0  0  0  0  0  0  0  0  0
   11.6842    2.1642  -16.5069 C   0  0  0  0  0  0  0  0  0  0  0  0
   10.5524    1.5613  -15.9327 C   0  0  0  0  0  0  0  0  0  0  0  0
   10.0861   -0.2276  -16.3737 Br  0  0  0  0  0  0  0  0  0  0  0  0
    9.7500    2.2869  -15.0372 C   0  0  0  0  0  0  0  0  0  0  0  0
   10.0533    3.6302  -14.7198 C   0  0  0  0  0  0  0  0  0  0  0  0
    9.1357    4.3564  -13.8289 C   0  0  0  0  0  0  0  0  0  0  0  0
    7.8074    4.1117  -13.8453 N   0  0  0  0  0  0  0  0  0  0  0  0
    6.8061    4.7786  -12.9978 C   0  0  0  0  0  0  0  0  0  0  0  0
    7.3019    6.1695  -12.5843 C   0  0  0  0  0  0  0  0  0  0  0  0
    8.7389    6.0962  -12.0413 C   0  0  1  0  0  0  0  0  0  0  0  0
    8.8493    5.5278  -10.6043 C   0  0  0  0  0  0  0  0  0  0  0  0
    8.8863    6.5520   -9.5238 N   0  0  0  0  0  0  0  0  0  0  0  0
   10.1269    7.3890   -9.5674 C   0  0  0  0  0  0  0  0  0  0  0  0
   10.3133    8.3005   -8.3379 C   0  0  0  0  0  0  0  0  0  0  0  0
   10.1430    7.5228   -7.1216 N   0  0  0  0  0  0  0  0  0  0  0  0
   10.8869    7.7772   -5.9539 C   0  0  0  0  0  0  0  0  0  0  0  0
   11.0558    6.7513   -4.9984 C   0  0  0  0  0  0  0  0  0  0  0  0
   11.7595    6.9710   -3.8013 C   0  0  0  0  0  0  0  0  0  0  0  0
   12.3430    8.2229   -3.5566 C   0  0  0  0  0  0  0  0  0  0  0  0
   12.2240    9.2373   -4.5198 C   0  0  0  0  0  0  0  0  0  0  0  0
   11.4928    9.0303   -5.7059 C   0  0  0  0  0  0  0  0  0  0  0  0
    8.8637    6.8417   -7.0180 C   0  0  0  0  0  0  0  0  0  0  0  0
    8.6819    5.8887   -8.2044 C   0  0  0  0  0  0  0  0  0  0  0  0
    9.5710    5.3005  -12.9680 N   0  0  0  0  0  0  0  0  0  0  0  0
   12.8121    7.1353  -15.0012 H   0  0  0  0  0  0  0  0  0  0  0  0
   13.5875    5.5614  -15.1084 H   0  0  0  0  0  0  0  0  0  0  0  0
   12.6959    6.2224  -16.5016 H   0  0  0  0  0  0  0  0  0  0  0  0
   12.9015    3.9094  -16.6310 H   0  0  0  0  0  0  0  0  0  0  0  0
   12.3043    1.6055  -17.1916 H   0  0  0  0  0  0  0  0  0  0  0  0
    8.8905    1.7943  -14.6060 H   0  0  0  0  0  0  0  0  0  0  0  0
    5.8587    4.8531  -13.5337 H   0  0  0  0  0  0  0  0  0  0  0  0
    6.6255    4.1613  -12.1170 H   0  0  0  0  0  0  0  0  0  0  0  0
    6.6157    6.5723  -11.8469 H   0  0  0  0  0  0  0  0  0  0  0  0
    7.2857    6.8585  -13.4273 H   0  0  0  0  0  0  0  0  0  0  0  0
    9.1477    7.1033  -12.0735 H   0  0  0  0  0  0  0  0  0  0  0  0
    9.7308    4.8889  -10.5106 H   0  0  0  0  0  0  0  0  0  0  0  0
    7.9981    4.8708  -10.4225 H   0  0  0  0  0  0  0  0  0  0  0  0
   10.1472    8.0159  -10.4594 H   0  0  0  0  0  0  0  0  0  0  0  0
   10.9923    6.7264   -9.6337 H   0  0  0  0  0  0  0  0  0  0  0  0
    9.5801    9.1091   -8.3464 H   0  0  0  0  0  0  0  0  0  0  0  0
   11.3022    8.7577   -8.3766 H   0  0  0  0  0  0  0  0  0  0  0  0
   10.6407    5.7728   -5.1661 H   0  0  0  0  0  0  0  0  0  0  0  0
   11.8596    6.1742   -3.0777 H   0  0  0  0  0  0  0  0  0  0  0  0
   12.8931    8.3975   -2.6429 H   0  0  0  0  0  0  0  0  0  0  0  0
   12.7149   10.1723   -4.3432 H   0  0  0  0  0  0  0  0  0  0  0  0
   11.4051    9.8414   -6.4127 H   0  0  0  0  0  0  0  0  0  0  0  0
    8.7565    6.2888   -6.0868 H   0  0  0  0  0  0  0  0  0  0  0  0
    8.0851    7.6031   -7.0150 H   0  0  0  0  0  0  0  0  0  0  0  0
    7.6867    5.4485   -8.1627 H   0  0  0  0  0  0  0  0  0  0  0  0
    9.3931    5.0667   -8.1025 H   0  0  0  0  0  0  0  0  0  0  0  0
   10.5514    5.5425  -13.0425 H   0  0  0  0  0  0  0  0  0  0  0  0
    7.4614    3.4063  -14.4788 H   0  0  0  0  0  0  0  0  0  0  0  0
    8.0705    7.1547   -9.6554 H   0  0  0  0  0  0  0  0  0  0  0  0
  2  1  1  0
  3  2  1  0
  4  3  1  0
  5  4  2  0
  6  5  1  0
  7  6  1  0
  8  6  2  0
  9  3  2  0
  9  8  1  0
 10  9  1  0
 11 10  2  0
 12 11  1  0
 13 12  1  0
 14 13  1  0
 15 14  1  0
 16 15  1  0
 17 16  1  0
 18 17  1  0
 19 18  1  0
 20 19  1  0
 21 20  2  0
 22 21  1  0
 23 22  2  0
 24 23  1  0
 25 20  1  0
 25 24  2  0
 26 19  1  0
 27 16  1  0
 27 26  1  0
 28 10  1  0
 28 14  1  0
 29  1  1  0
 30  1  1  0
 31  1  1  0
 32  4  1  0
 33  5  1  0
 34  8  1  0
 35 12  1  0
 36 12  1  0
 37 13  1  0
 38 13  1  0
 14 39  1  1
 40 15  1  0
 41 15  1  0
 42 17  1  0
 43 17  1  0
 44 18  1  0
 45 18  1  0
 46 21  1  0
 47 22  1  0
 48 23  1  0
 49 24  1  0
 50 25  1  0
 51 26  1  0
 52 26  1  0
 53 27  1  0
 54 27  1  0
 55 28  1  0
 56 11  1  0
 57 16  1  0
M  CHG  2  11   1  16   1
M  END
>  <b_m_subgroup_collapsed>  (359) 
0

>  <r_i_docking_score>  (359) 
-8.1669768397528308

>  <s_m_subgroup_title>  (359) 
glide-dock_SP_D22_pv

>  <s_m_subgroupid>  (359) 
glide-dock_SP_D22_pv

>  <Molecule ChEMBL ID>  (359) 
CHEMBL353220

>  <Standard Type>  (359) 
Ki

>  <Standard Value>  (359) 
14000.0

>  <label>  (359) 
0

$$$$
CHEMBL311772
     RDKit          3D

 60 63  0  0  1  0  0  0  0  0999 V2000
   12.1792    3.3699  -16.3078 O   0  0  0  0  0  0  0  0  0  0  0  0
   11.9212    4.4828  -15.8496 C   0  0  0  0  0  0  0  0  0  0  0  0
   10.9070    4.7180  -15.0094 N   0  0  0  0  0  0  0  0  0  0  0  0
    9.7915    3.8192  -14.7380 C   0  0  1  0  0  0  0  0  0  0  0  0
   10.0245    2.9699  -13.4811 C   0  0  0  0  0  0  0  0  0  0  0  0
    9.9201    3.8122  -12.2042 C   0  0  0  0  0  0  0  0  0  0  0  0
    8.5651    4.5404  -12.1089 C   0  0  1  0  0  0  0  0  0  0  0  0
    8.3375    5.2760  -10.7767 C   0  0  0  0  0  0  0  0  0  0  0  0
    9.3937    6.3473  -10.4537 C   0  0  0  0  0  0  0  0  0  0  0  0
    9.1732    7.0461   -9.1661 N   0  0  0  0  0  0  0  0  0  0  0  0
    9.1982    6.1197   -7.9965 C   0  0  0  0  0  0  0  0  0  0  0  0
    9.1463    6.8678   -6.6615 C   0  0  0  0  0  0  0  0  0  0  0  0
   10.1996    7.8675   -6.6320 N   0  0  0  0  0  0  0  0  0  0  0  0
   10.8875    8.0953   -5.4287 C   0  0  0  0  0  0  0  0  0  0  0  0
   11.4071    6.9973   -4.6990 C   0  0  0  0  0  0  0  0  0  0  0  0
   12.0670    7.1901   -3.4687 C   0  0  0  0  0  0  0  0  0  0  0  0
   12.1981    8.4866   -2.9414 C   0  0  0  0  0  0  0  0  0  0  0  0
   11.6868    9.5853   -3.6575 C   0  0  0  0  0  0  0  0  0  0  0  0
   11.0601    9.3972   -4.9056 C   0  0  0  0  0  0  0  0  0  0  0  0
   10.0868    8.8790   -7.6677 C   0  0  0  0  0  0  0  0  0  0  0  0
   10.1172    8.1983   -9.0441 C   0  0  0  0  0  0  0  0  0  0  0  0
    8.4247    5.4652  -13.3175 C   0  0  0  0  0  0  0  0  0  0  0  0
    8.5111    4.6611  -14.6154 C   0  0  0  0  0  0  0  0  0  0  0  0
   12.6600    5.6926  -16.2604 C   0  0  0  0  0  0  0  0  0  0  0  0
   12.4681    7.0135  -15.9336 C   0  0  0  0  0  0  0  0  0  0  0  0
   13.3121    7.8988  -16.6594 C   0  0  0  0  0  0  0  0  0  0  0  0
   14.1785    7.2375  -17.4912 C   0  0  0  0  0  0  0  0  0  0  0  0
   13.9673    5.5076  -17.4049 S   0  0  0  0  0  0  0  0  0  0  0  0
   10.8069    5.6588  -14.6669 H   0  0  0  0  0  0  0  0  0  0  0  0
    9.6718    3.1492  -15.5925 H   0  0  0  0  0  0  0  0  0  0  0  0
    9.2831    2.1712  -13.4470 H   0  0  0  0  0  0  0  0  0  0  0  0
   10.9915    2.4708  -13.5387 H   0  0  0  0  0  0  0  0  0  0  0  0
   10.0860    3.1896  -11.3277 H   0  0  0  0  0  0  0  0  0  0  0  0
   10.7264    4.5414  -12.2469 H   0  0  0  0  0  0  0  0  0  0  0  0
    7.7774    3.7887  -12.1773 H   0  0  0  0  0  0  0  0  0  0  0  0
    7.3510    5.7451  -10.7887 H   0  0  0  0  0  0  0  0  0  0  0  0
    8.3033    4.5196   -9.9942 H   0  0  0  0  0  0  0  0  0  0  0  0
   10.3890    5.9057  -10.4381 H   0  0  0  0  0  0  0  0  0  0  0  0
    9.3975    7.0957  -11.2466 H   0  0  0  0  0  0  0  0  0  0  0  0
    8.3468    5.4404   -8.0313 H   0  0  0  0  0  0  0  0  0  0  0  0
   10.1019    5.5086   -8.0339 H   0  0  0  0  0  0  0  0  0  0  0  0
    8.1829    7.3712   -6.5685 H   0  0  0  0  0  0  0  0  0  0  0  0
    9.2125    6.1726   -5.8261 H   0  0  0  0  0  0  0  0  0  0  0  0
   11.3105    5.9922   -5.0798 H   0  0  0  0  0  0  0  0  0  0  0  0
   12.4566    6.3418   -2.9246 H   0  0  0  0  0  0  0  0  0  0  0  0
   12.6850    8.6432   -1.9887 H   0  0  0  0  0  0  0  0  0  0  0  0
   11.7679   10.5724   -3.2327 H   0  0  0  0  0  0  0  0  0  0  0  0
   10.6647   10.2586   -5.4229 H   0  0  0  0  0  0  0  0  0  0  0  0
    9.1427    9.4061   -7.5344 H   0  0  0  0  0  0  0  0  0  0  0  0
   10.8926    9.6099   -7.5964 H   0  0  0  0  0  0  0  0  0  0  0  0
   11.1335    7.8417   -9.2258 H   0  0  0  0  0  0  0  0  0  0  0  0
    9.9019    8.9353   -9.8191 H   0  0  0  0  0  0  0  0  0  0  0  0
    7.4821    6.0101  -13.2746 H   0  0  0  0  0  0  0  0  0  0  0  0
    9.2198    6.2033  -13.3104 H   0  0  0  0  0  0  0  0  0  0  0  0
    8.4861    5.3609  -15.4473 H   0  0  0  0  0  0  0  0  0  0  0  0
    7.6397    4.0056  -14.6468 H   0  0  0  0  0  0  0  0  0  0  0  0
   11.7224    7.3815  -15.2435 H   0  0  0  0  0  0  0  0  0  0  0  0
   13.2601    8.9734  -16.5487 H   0  0  0  0  0  0  0  0  0  0  0  0
   14.9249    7.6615  -18.1473 H   0  0  0  0  0  0  0  0  0  0  0  0
    8.2305    7.4264   -9.2070 H   0  0  0  0  0  0  0  0  0  0  0  0
  2  1  2  0
  3  2  1  0
  4  3  1  0
  5  4  1  0
  6  5  1  0
  7  6  1  0
  8  7  1  0
  9  8  1  0
 10  9  1  0
 11 10  1  0
 12 11  1  0
 13 12  1  0
 14 13  1  0
 15 14  2  0
 16 15  1  0
 17 16  2  0
 18 17  1  0
 19 14  1  0
 19 18  2  0
 20 13  1  0
 21 10  1  0
 21 20  1  0
 22  7  1  0
 23  4  1  0
 23 22  1  0
 24  2  1  0
 25 24  2  0
 26 25  1  0
 27 26  2  0
 28 24  1  0
 28 27  1  0
 29  3  1  0
  4 30  1  6
 31  5  1  0
 32  5  1  0
 33  6  1  0
 34  6  1  0
  7 35  1  6
 36  8  1  0
 37  8  1  0
 38  9  1  0
 39  9  1  0
 40 11  1  0
 41 11  1  0
 42 12  1  0
 43 12  1  0
 44 15  1  0
 45 16  1  0
 46 17  1  0
 47 18  1  0
 48 19  1  0
 49 20  1  0
 50 20  1  0
 51 21  1  0
 52 21  1  0
 53 22  1  0
 54 22  1  0
 55 23  1  0
 56 23  1  0
 57 25  1  0
 58 26  1  0
 59 27  1  0
 60 10  1  0
M  CHG  1  10   1
M  END
>  <b_m_subgroup_collapsed>  (360) 
0

>  <r_i_docking_score>  (360) 
-8.1652760602092194

>  <s_m_subgroup_title>  (360) 
glide-dock_SP_D22_pv

>  <s_m_subgroupid>  (360) 
glide-dock_SP_D22_pv

>  <Molecule ChEMBL ID>  (360) 
CHEMBL311772

>  <Standard Type>  (360) 
Ki

>  <Standard Value>  (360) 
40.0

>  <label>  (360) 
1

$$$$
CHEMBL134808
     RDKit          3D

 44 47  0  0  1  0  0  0  0  0999 V2000
   13.0485    7.7724  -13.3425 O   0  0  0  0  0  0  0  0  0  0  0  0
   12.0789    6.8170  -13.3000 C   0  0  0  0  0  0  0  0  0  0  0  0
   12.2685    5.5577  -13.9053 C   0  0  0  0  0  0  0  0  0  0  0  0
   11.2514    4.5856  -13.8469 C   0  0  0  0  0  0  0  0  0  0  0  0
   10.0271    4.8866  -13.2158 C   0  0  0  0  0  0  0  0  0  0  0  0
    9.8264    6.1656  -12.6470 C   0  0  0  0  0  0  0  0  0  0  0  0
   10.8721    7.1037  -12.6470 C   0  0  0  0  0  0  0  0  0  0  0  0
    8.6146    6.5597  -12.1364 O   0  0  0  0  0  0  0  0  0  0  0  0
    7.7816    5.5430  -11.6042 C   0  0  2  0  0  0  0  0  0  0  0  0
    8.3613    5.0550  -10.2556 C   0  0  0  0  0  0  0  0  0  0  0  0
    8.5270    6.1426   -9.2433 N   0  0  1  0  0  0  0  0  0  0  0  0
    8.5651    5.5815   -7.8753 C   0  0  0  0  0  0  0  0  0  0  0  0
    8.6747    6.6663   -6.7998 C   0  0  0  0  0  0  0  0  0  0  0  0
    9.8649    7.5555   -7.0460 C   0  0  0  0  0  0  0  0  0  0  0  0
   10.4969    8.1990   -5.9688 C   0  0  0  0  0  0  0  0  0  0  0  0
   11.6857    8.9187   -6.1649 C   0  0  0  0  0  0  0  0  0  0  0  0
   12.2487    8.9723   -7.4503 C   0  0  0  0  0  0  0  0  0  0  0  0
   11.5860    8.3896   -8.5465 C   0  0  0  0  0  0  0  0  0  0  0  0
   10.3817    7.6841   -8.3476 C   0  0  0  0  0  0  0  0  0  0  0  0
    9.7014    7.0206   -9.5334 C   0  0  0  0  0  0  0  0  0  0  0  0
    7.5967    4.4309  -12.6555 C   0  0  0  0  0  0  0  0  0  0  0  0
    8.9344    3.8403  -13.1359 C   0  0  0  0  0  0  0  0  0  0  0  0
   13.9081    7.3910  -13.4762 H   0  0  0  0  0  0  0  0  0  0  0  0
   13.1988    5.3287  -14.4047 H   0  0  0  0  0  0  0  0  0  0  0  0
   11.4099    3.6140  -14.2921 H   0  0  0  0  0  0  0  0  0  0  0  0
   10.7134    8.0740  -12.2021 H   0  0  0  0  0  0  0  0  0  0  0  0
    6.8017    5.9881  -11.4387 H   0  0  0  0  0  0  0  0  0  0  0  0
    7.6881    4.2911   -9.8694 H   0  0  0  0  0  0  0  0  0  0  0  0
    9.3138    4.5429  -10.3957 H   0  0  0  0  0  0  0  0  0  0  0  0
    7.6861    4.9724   -7.6892 H   0  0  0  0  0  0  0  0  0  0  0  0
    9.4269    4.9174   -7.8202 H   0  0  0  0  0  0  0  0  0  0  0  0
    8.8259    6.1727   -5.8450 H   0  0  0  0  0  0  0  0  0  0  0  0
    7.7714    7.2670   -6.6976 H   0  0  0  0  0  0  0  0  0  0  0  0
   10.0863    8.0999   -4.9845 H   0  0  0  0  0  0  0  0  0  0  0  0
   12.1947    9.3741   -5.3278 H   0  0  0  0  0  0  0  0  0  0  0  0
   13.2187    9.4202   -7.5902 H   0  0  0  0  0  0  0  0  0  0  0  0
   12.0257    8.4567   -9.5319 H   0  0  0  0  0  0  0  0  0  0  0  0
   10.4821    6.4351  -10.0189 H   0  0  0  0  0  0  0  0  0  0  0  0
    9.3928    7.8140  -10.2138 H   0  0  0  0  0  0  0  0  0  0  0  0
    6.9311    3.6484  -12.2913 H   0  0  0  0  0  0  0  0  0  0  0  0
    7.0934    4.8767  -13.5145 H   0  0  0  0  0  0  0  0  0  0  0  0
    8.8080    3.3539  -14.1040 H   0  0  0  0  0  0  0  0  0  0  0  0
    9.2863    3.0738  -12.4450 H   0  0  0  0  0  0  0  0  0  0  0  0
    7.7000    6.7376   -9.2932 H   0  0  0  0  0  0  0  0  0  0  0  0
  2  1  1  0
  3  2  1  0
  4  3  2  0
  5  4  1  0
  6  5  2  0
  7  2  2  0
  7  6  1  0
  8  6  1  0
  9  8  1  0
 10  9  1  0
 11 10  1  0
 12 11  1  0
 13 12  1  0
 14 13  1  0
 15 14  2  0
 16 15  1  0
 17 16  2  0
 18 17  1  0
 19 14  1  0
 19 18  2  0
 20 11  1  0
 20 19  1  0
 21  9  1  0
 22  5  1  0
 22 21  1  0
 23  1  1  0
 24  3  1  0
 25  4  1  0
 26  7  1  0
  9 27  1  1
 28 10  1  0
 29 10  1  0
 30 12  1  0
 31 12  1  0
 32 13  1  0
 33 13  1  0
 34 15  1  0
 35 16  1  0
 36 17  1  0
 37 18  1  0
 38 20  1  0
 39 20  1  0
 40 21  1  0
 41 21  1  0
 42 22  1  0
 43 22  1  0
 11 44  1  1
M  CHG  1  11   1
M  END
>  <b_m_subgroup_collapsed>  (361) 
0

>  <r_i_docking_score>  (361) 
-8.1638184821931805

>  <s_m_subgroup_title>  (361) 
glide-dock_SP_D22_pv

>  <s_m_subgroupid>  (361) 
glide-dock_SP_D22_pv

>  <Molecule ChEMBL ID>  (361) 
CHEMBL134808

>  <Standard Type>  (361) 
Ki

>  <Standard Value>  (361) 
4.3

>  <label>  (361) 
1

$$$$
CHEMBL351300
     RDKit          3D

 59 62  0  0  1  0  0  0  0  0999 V2000
   12.2675    4.7199  -17.1817 O   0  0  0  0  0  0  0  0  0  0  0  0
   12.0312    3.5516  -16.8700 C   0  0  0  0  0  0  0  0  0  0  0  0
   12.5310    2.3751  -17.5680 C   0  0  0  0  0  0  0  0  0  0  0  0
   13.3576    2.5071  -18.6270 C   0  0  0  0  0  0  0  0  0  0  0  0
   13.9217    1.4168  -19.4462 C   0  0  0  0  0  0  0  0  0  0  0  0
   15.0066    1.7101  -20.3027 C   0  0  0  0  0  0  0  0  0  0  0  0
   15.6000    0.7007  -21.0846 C   0  0  0  0  0  0  0  0  0  0  0  0
   15.1179   -0.6190  -21.0148 C   0  0  0  0  0  0  0  0  0  0  0  0
   15.6853   -1.5861  -21.7728 F   0  0  0  0  0  0  0  0  0  0  0  0
   14.0446   -0.9288  -20.1587 C   0  0  0  0  0  0  0  0  0  0  0  0
   13.4493    0.0839  -19.3790 C   0  0  0  0  0  0  0  0  0  0  0  0
   11.2499    3.2228  -15.8294 N   0  0  0  0  0  0  0  0  0  0  0  0
   10.5311    4.1698  -14.9760 C   0  0  1  0  0  0  0  0  0  0  0  0
    9.3851    3.4340  -14.2558 C   0  0  0  0  0  0  0  0  0  0  0  0
    8.6342    4.3525  -13.2778 C   0  0  0  0  0  0  0  0  0  0  0  0
    9.5894    4.9550  -12.2295 C   0  0  2  0  0  0  0  0  0  0  0  0
    8.8417    5.8544  -11.2197 C   0  0  0  0  0  0  0  0  0  0  0  0
    9.5748    5.9410   -9.8733 C   0  0  0  0  0  0  0  0  0  0  0  0
    8.8861    6.8362   -8.9057 N   0  0  2  0  0  0  0  0  0  0  0  0
    9.4252    8.2322   -8.8952 C   0  0  0  0  0  0  0  0  0  0  0  0
   10.1727    8.3166   -7.5890 C   0  0  0  0  0  0  0  0  0  0  0  0
   11.0545    9.3182   -7.1415 C   0  0  0  0  0  0  0  0  0  0  0  0
   11.6254    9.1860   -5.8557 C   0  0  0  0  0  0  0  0  0  0  0  0
   11.3345    8.0553   -5.0554 C   0  0  0  0  0  0  0  0  0  0  0  0
   12.0861    7.9009   -3.3146 Br  0  0  0  0  0  0  0  0  0  0  0  0
   10.4861    7.0379   -5.5421 C   0  0  0  0  0  0  0  0  0  0  0  0
    9.8948    7.2120   -6.8059 C   0  0  0  0  0  0  0  0  0  0  0  0
    8.9229    6.3082   -7.5085 C   0  0  0  0  0  0  0  0  0  0  0  0
   10.7208    5.7194  -12.9452 C   0  0  0  0  0  0  0  0  0  0  0  0
   11.4796    4.8370  -13.9571 C   0  0  0  0  0  0  0  0  0  0  0  0
   12.2351    1.3911  -17.2320 H   0  0  0  0  0  0  0  0  0  0  0  0
   13.6421    3.5048  -18.9375 H   0  0  0  0  0  0  0  0  0  0  0  0
   15.3895    2.7184  -20.3675 H   0  0  0  0  0  0  0  0  0  0  0  0
   16.4268    0.9379  -21.7391 H   0  0  0  0  0  0  0  0  0  0  0  0
   13.6845   -1.9461  -20.0999 H   0  0  0  0  0  0  0  0  0  0  0  0
   12.6248   -0.1765  -18.7340 H   0  0  0  0  0  0  0  0  0  0  0  0
   11.1147    2.2422  -15.6332 H   0  0  0  0  0  0  0  0  0  0  0  0
   10.0936    4.9475  -15.6062 H   0  0  0  0  0  0  0  0  0  0  0  0
    8.6851    3.0284  -14.9873 H   0  0  0  0  0  0  0  0  0  0  0  0
    9.7821    2.5791  -13.7063 H   0  0  0  0  0  0  0  0  0  0  0  0
    8.1316    5.1495  -13.8279 H   0  0  0  0  0  0  0  0  0  0  0  0
    7.8508    3.7763  -12.7831 H   0  0  0  0  0  0  0  0  0  0  0  0
   10.0276    4.1170  -11.6855 H   0  0  0  0  0  0  0  0  0  0  0  0
    8.6835    6.8486  -11.6412 H   0  0  0  0  0  0  0  0  0  0  0  0
    7.8444    5.4499  -11.0335 H   0  0  0  0  0  0  0  0  0  0  0  0
    9.6260    4.9215   -9.4862 H   0  0  0  0  0  0  0  0  0  0  0  0
   10.6110    6.2553  -10.0025 H   0  0  0  0  0  0  0  0  0  0  0  0
   10.0641    8.4589   -9.7491 H   0  0  0  0  0  0  0  0  0  0  0  0
    8.6003    8.9464   -8.8843 H   0  0  0  0  0  0  0  0  0  0  0  0
   11.2859   10.1721   -7.7586 H   0  0  0  0  0  0  0  0  0  0  0  0
   12.2929    9.9508   -5.4851 H   0  0  0  0  0  0  0  0  0  0  0  0
   10.2595    6.1723   -4.9367 H   0  0  0  0  0  0  0  0  0  0  0  0
    7.9439    6.4024   -7.0374 H   0  0  0  0  0  0  0  0  0  0  0  0
    9.2336    5.2673   -7.4460 H   0  0  0  0  0  0  0  0  0  0  0  0
   10.2869    6.5723  -13.4468 H   0  0  0  0  0  0  0  0  0  0  0  0
   11.4211    6.1723  -12.2468 H   0  0  0  0  0  0  0  0  0  0  0  0
   12.0401    4.0694  -13.4259 H   0  0  0  0  0  0  0  0  0  0  0  0
   12.2214    5.4449  -14.4763 H   0  0  0  0  0  0  0  0  0  0  0  0
    7.9093    6.9080   -9.1864 H   0  0  0  0  0  0  0  0  0  0  0  0
  2  1  2  0
  3  2  1  0
  4  3  2  0
  5  4  1  0
  6  5  1  0
  7  6  2  0
  8  7  1  0
  9  8  1  0
 10  8  2  0
 11  5  2  0
 11 10  1  0
 12  2  1  0
 13 12  1  0
 14 13  1  0
 15 14  1  0
 16 15  1  0
 17 16  1  0
 18 17  1  0
 19 18  1  0
 20 19  1  0
 21 20  1  0
 22 21  1  0
 23 22  2  0
 24 23  1  0
 25 24  1  0
 26 24  2  0
 27 21  2  0
 27 26  1  0
 28 19  1  0
 28 27  1  0
 29 16  1  0
 30 13  1  0
 30 29  1  0
 31  3  1  0
 32  4  1  0
 33  6  1  0
 34  7  1  0
 35 10  1  0
 36 11  1  0
 37 12  1  0
 13 38  1  6
 39 14  1  0
 40 14  1  0
 41 15  1  0
 42 15  1  0
 16 43  1  1
 44 17  1  0
 45 17  1  0
 46 18  1  0
 47 18  1  0
 48 20  1  0
 49 20  1  0
 50 22  1  0
 51 23  1  0
 52 26  1  0
 53 28  1  0
 54 28  1  0
 55 29  1  0
 56 29  1  0
 57 30  1  0
 58 30  1  0
 19 59  1  6
M  CHG  1  19   1
M  END
>  <b_m_subgroup_collapsed>  (362) 
0

>  <r_i_docking_score>  (362) 
-8.1633889822710195

>  <s_m_subgroup_title>  (362) 
glide-dock_SP_D22_pv

>  <s_m_subgroupid>  (362) 
glide-dock_SP_D22_pv

>  <Molecule ChEMBL ID>  (362) 
CHEMBL351300

>  <Standard Type>  (362) 
Ki

>  <Standard Value>  (362) 
100.0

>  <label>  (362) 
1

$$$$
CHEMBL1173711
     RDKit          3D

 53 56  0  0  1  0  0  0  0  0999 V2000
    8.8861    8.4529  -10.3275 O   0  0  0  0  0  0  0  0  0  0  0  0
    9.6434    7.3966   -9.7671 C   0  0  1  0  0  0  0  0  0  0  0  0
   10.1496    7.7626   -8.3603 C   0  0  0  0  0  0  0  0  0  0  0  0
   10.8568    8.9724   -8.1774 C   0  0  0  0  0  0  0  0  0  0  0  0
   11.3604    9.3377   -6.9132 C   0  0  0  0  0  0  0  0  0  0  0  0
   11.1776    8.4876   -5.8100 C   0  0  0  0  0  0  0  0  0  0  0  0
   11.8751    8.9759   -4.1071 Br  0  0  0  0  0  0  0  0  0  0  0  0
   10.4821    7.2766   -5.9735 C   0  0  0  0  0  0  0  0  0  0  0  0
    9.9628    6.9212   -7.2345 C   0  0  0  0  0  0  0  0  0  0  0  0
    8.8200    6.0865   -9.8038 C   0  0  0  0  0  0  0  0  0  0  0  0
    8.3901    5.6821  -11.2222 C   0  0  0  0  0  0  0  0  0  0  0  0
    9.5556    5.5080  -12.1300 N   0  0  1  0  0  0  0  0  0  0  0  0
    9.0958    5.0971  -13.4921 C   0  0  0  0  0  0  0  0  0  0  0  0
   10.1519    4.4669  -14.3735 C   0  0  0  0  0  0  0  0  0  0  0  0
   11.2659    5.0985  -14.8753 C   0  0  0  0  0  0  0  0  0  0  0  0
   11.9845    4.2204  -15.6583 N   0  0  0  0  0  0  0  0  0  0  0  0
   11.3291    3.0155  -15.7613 C   0  0  0  0  0  0  0  0  0  0  0  0
   11.6421    1.8539  -16.4852 C   0  0  0  0  0  0  0  0  0  0  0  0
   10.7739    0.7545  -16.4302 C   0  0  0  0  0  0  0  0  0  0  0  0
    9.5952    0.8380  -15.6707 C   0  0  0  0  0  0  0  0  0  0  0  0
    9.2653    2.0175  -14.9525 C   0  0  0  0  0  0  0  0  0  0  0  0
    8.0869    2.1327  -14.2468 O   0  0  0  0  0  0  0  0  0  0  0  0
    6.9482    1.4122  -14.7165 C   0  0  0  0  0  0  0  0  0  0  0  0
    6.7461    0.0555  -14.0171 C   0  0  0  0  0  0  0  0  0  0  0  0
    6.0902    0.1915  -12.8652 F   0  0  0  0  0  0  0  0  0  0  0  0
   10.1494    3.1360  -14.9618 C   0  0  0  0  0  0  0  0  0  0  0  0
   10.4256    6.7241  -12.1306 C   0  0  0  0  0  0  0  0  0  0  0  0
   10.8322    7.2284  -10.7255 C   0  0  0  0  0  0  0  0  0  0  0  0
    7.9373    8.2506  -10.2465 H   0  0  0  0  0  0  0  0  0  0  0  0
   11.0134    9.6352   -9.0162 H   0  0  0  0  0  0  0  0  0  0  0  0
   11.8950   10.2669   -6.7863 H   0  0  0  0  0  0  0  0  0  0  0  0
   10.3356    6.6186   -5.1290 H   0  0  0  0  0  0  0  0  0  0  0  0
    9.4257    5.9883   -7.3061 H   0  0  0  0  0  0  0  0  0  0  0  0
    9.4111    5.2661   -9.3944 H   0  0  0  0  0  0  0  0  0  0  0  0
    7.9363    6.1717   -9.1705 H   0  0  0  0  0  0  0  0  0  0  0  0
    7.8285    4.7487  -11.1625 H   0  0  0  0  0  0  0  0  0  0  0  0
    7.7066    6.4256  -11.6365 H   0  0  0  0  0  0  0  0  0  0  0  0
    8.2754    4.3913  -13.3707 H   0  0  0  0  0  0  0  0  0  0  0  0
    8.6446    5.9525  -13.9939 H   0  0  0  0  0  0  0  0  0  0  0  0
   11.6207    6.1114  -14.7557 H   0  0  0  0  0  0  0  0  0  0  0  0
   12.8473    4.4659  -16.1241 H   0  0  0  0  0  0  0  0  0  0  0  0
   12.5480    1.8020  -17.0715 H   0  0  0  0  0  0  0  0  0  0  0  0
   11.0061   -0.1486  -16.9758 H   0  0  0  0  0  0  0  0  0  0  0  0
    8.9465   -0.0244  -15.6623 H   0  0  0  0  0  0  0  0  0  0  0  0
    6.0820    2.0439  -14.5389 H   0  0  0  0  0  0  0  0  0  0  0  0
    6.9888    1.2818  -15.7994 H   0  0  0  0  0  0  0  0  0  0  0  0
    6.1396   -0.6080  -14.6334 H   0  0  0  0  0  0  0  0  0  0  0  0
    7.6848   -0.4500  -13.8064 H   0  0  0  0  0  0  0  0  0  0  0  0
   11.3448    6.5352  -12.6768 H   0  0  0  0  0  0  0  0  0  0  0  0
    9.9059    7.5306  -12.6468 H   0  0  0  0  0  0  0  0  0  0  0  0
   11.3593    8.1765  -10.8418 H   0  0  0  0  0  0  0  0  0  0  0  0
   11.5595    6.5724  -10.2595 H   0  0  0  0  0  0  0  0  0  0  0  0
   10.0950    4.7381  -11.7602 H   0  0  0  0  0  0  0  0  0  0  0  0
  2  1  1  6
  3  2  1  0
  4  3  2  0
  5  4  1  0
  6  5  2  0
  7  6  1  0
  8  6  1  0
  9  3  1  0
  9  8  2  0
 10  2  1  0
 11 10  1  0
 12 11  1  0
 13 12  1  0
 14 13  1  0
 15 14  2  0
 16 15  1  0
 17 16  1  0
 18 17  2  0
 19 18  1  0
 20 19  2  0
 21 20  1  0
 22 21  1  0
 23 22  1  0
 24 23  1  0
 25 24  1  0
 26 14  1  0
 26 17  1  0
 26 21  2  0
 27 12  1  0
 28  2  1  0
 28 27  1  0
 29  1  1  0
 30  4  1  0
 31  5  1  0
 32  8  1  0
 33  9  1  0
 34 10  1  0
 35 10  1  0
 36 11  1  0
 37 11  1  0
 38 13  1  0
 39 13  1  0
 40 15  1  0
 41 16  1  0
 42 18  1  0
 43 19  1  0
 44 20  1  0
 45 23  1  0
 46 23  1  0
 47 24  1  0
 48 24  1  0
 49 27  1  0
 50 27  1  0
 51 28  1  0
 52 28  1  0
 12 53  1  1
M  CHG  1  12   1
M  END
>  <b_m_subgroup_collapsed>  (363) 
0

>  <r_i_docking_score>  (363) 
-8.1605784893254096

>  <s_m_subgroup_title>  (363) 
glide-dock_SP_D22_pv

>  <s_m_subgroupid>  (363) 
glide-dock_SP_D22_pv

>  <Molecule ChEMBL ID>  (363) 
CHEMBL1173711

>  <Standard Type>  (363) 
Ki

>  <Standard Value>  (363) 
27.7

>  <label>  (363) 
1

$$$$
CHEMBL5398291
     RDKit          3D

 56 59  0  0  1  0  0  0  0  0999 V2000
    5.2860    1.8661  -12.6032 O   0  0  0  0  0  0  0  0  0  0  0  0
    6.0458    2.3430  -13.4468 C   0  0  0  0  0  0  0  0  0  0  0  0
    6.1330    3.6553  -13.6912 N   0  0  0  0  0  0  0  0  0  0  0  0
    5.5576    4.6819  -12.8369 C   0  0  0  0  0  0  0  0  0  0  0  0
    6.6389    5.5718  -12.2060 C   0  0  0  0  0  0  0  0  0  0  0  0
    7.8083    4.8364  -11.5213 C   0  0  0  0  0  0  0  0  0  0  0  0
    9.0109    5.7516  -11.2115 C   0  0  0  0  0  0  0  0  0  0  0  0
    8.8860    6.5717   -9.9761 N   0  0  0  0  0  0  0  0  0  0  0  0
    9.8815    7.6816   -9.9864 C   0  0  0  0  0  0  0  0  0  0  0  0
    9.9379    8.4697   -8.6661 C   0  0  0  0  0  0  0  0  0  0  0  0
   10.0964    7.5531   -7.5459 N   0  0  0  0  0  0  0  0  0  0  0  0
   10.6635    7.9931   -6.3329 C   0  0  0  0  0  0  0  0  0  0  0  0
   10.7595    9.3661   -6.0061 C   0  0  0  0  0  0  0  0  0  0  0  0
   11.2810    9.7742   -4.7647 C   0  0  0  0  0  0  0  0  0  0  0  0
   11.7574    8.8222   -3.8463 C   0  0  0  0  0  0  0  0  0  0  0  0
   11.6964    7.4544   -4.1703 C   0  0  0  0  0  0  0  0  0  0  0  0
   11.1527    7.0456   -5.4033 C   0  0  0  0  0  0  0  0  0  0  0  0
    9.0254    6.5702   -7.4539 C   0  0  0  0  0  0  0  0  0  0  0  0
    8.9529    5.7364   -8.7419 C   0  0  0  0  0  0  0  0  0  0  0  0
    6.9343    1.4790  -14.2667 C   0  0  0  0  0  0  0  0  0  0  0  0
    6.6922    0.2215  -14.5437 N   0  0  0  0  0  0  0  0  0  0  0  0
    7.7918   -0.2277  -15.1844 N   0  0  0  0  0  0  0  0  0  0  0  0
    8.7920    0.7110  -15.3239 C   0  0  0  0  0  0  0  0  0  0  0  0
   10.0851    0.6667  -15.8742 C   0  0  0  0  0  0  0  0  0  0  0  0
   10.8809    1.8254  -15.8476 C   0  0  0  0  0  0  0  0  0  0  0  0
   10.3714    3.0087  -15.2793 C   0  0  0  0  0  0  0  0  0  0  0  0
    9.0723    3.0387  -14.7306 C   0  0  0  0  0  0  0  0  0  0  0  0
    8.2453    1.8843  -14.7319 C   0  0  0  0  0  0  0  0  0  0  0  0
    6.7263    3.9559  -14.4485 H   0  0  0  0  0  0  0  0  0  0  0  0
    4.9461    4.2493  -12.0431 H   0  0  0  0  0  0  0  0  0  0  0  0
    4.8873    5.2879  -13.4470 H   0  0  0  0  0  0  0  0  0  0  0  0
    6.1397    6.1723  -11.4530 H   0  0  0  0  0  0  0  0  0  0  0  0
    7.0217    6.2557  -12.9638 H   0  0  0  0  0  0  0  0  0  0  0  0
    8.1848    4.0603  -12.1816 H   0  0  0  0  0  0  0  0  0  0  0  0
    7.4563    4.2937  -10.6469 H   0  0  0  0  0  0  0  0  0  0  0  0
    9.1820    6.4034  -12.0698 H   0  0  0  0  0  0  0  0  0  0  0  0
    9.9106    5.1396  -11.1292 H   0  0  0  0  0  0  0  0  0  0  0  0
    9.6580    8.3631  -10.8084 H   0  0  0  0  0  0  0  0  0  0  0  0
   10.8708    7.2645  -10.1828 H   0  0  0  0  0  0  0  0  0  0  0  0
    9.0228    9.0492   -8.5310 H   0  0  0  0  0  0  0  0  0  0  0  0
   10.7684    9.1755   -8.7077 H   0  0  0  0  0  0  0  0  0  0  0  0
   10.4065   10.1268   -6.6829 H   0  0  0  0  0  0  0  0  0  0  0  0
   11.2860   10.8241   -4.5145 H   0  0  0  0  0  0  0  0  0  0  0  0
   12.1584    9.1395   -2.8941 H   0  0  0  0  0  0  0  0  0  0  0  0
   12.0603    6.7153   -3.4712 H   0  0  0  0  0  0  0  0  0  0  0  0
   11.1222    5.9912   -5.6301 H   0  0  0  0  0  0  0  0  0  0  0  0
    9.1501    5.9048   -6.6032 H   0  0  0  0  0  0  0  0  0  0  0  0
    8.0861    7.0977   -7.2897 H   0  0  0  0  0  0  0  0  0  0  0  0
    8.0863    5.0794   -8.6824 H   0  0  0  0  0  0  0  0  0  0  0  0
    9.8339    5.0940   -8.7893 H   0  0  0  0  0  0  0  0  0  0  0  0
    7.8530   -1.2133  -15.4469 H   0  0  0  0  0  0  0  0  0  0  0  0
   10.4641   -0.2464  -16.3081 H   0  0  0  0  0  0  0  0  0  0  0  0
   11.8799    1.8074  -16.2597 H   0  0  0  0  0  0  0  0  0  0  0  0
   10.9831    3.8992  -15.2629 H   0  0  0  0  0  0  0  0  0  0  0  0
    8.7220    3.9649  -14.3067 H   0  0  0  0  0  0  0  0  0  0  0  0
    7.9615    7.0121   -9.9863 H   0  0  0  0  0  0  0  0  0  0  0  0
  2  1  2  0
  3  2  1  0
  4  3  1  0
  5  4  1  0
  6  5  1  0
  7  6  1  0
  8  7  1  0
  9  8  1  0
 10  9  1  0
 11 10  1  0
 12 11  1  0
 13 12  2  0
 14 13  1  0
 15 14  2  0
 16 15  1  0
 17 12  1  0
 17 16  2  0
 18 11  1  0
 19  8  1  0
 19 18  1  0
 20  2  1  0
 21 20  2  0
 22 21  1  0
 23 22  1  0
 24 23  2  0
 25 24  1  0
 26 25  2  0
 27 26  1  0
 28 20  1  0
 28 23  1  0
 28 27  2  0
 29  3  1  0
 30  4  1  0
 31  4  1  0
 32  5  1  0
 33  5  1  0
 34  6  1  0
 35  6  1  0
 36  7  1  0
 37  7  1  0
 38  9  1  0
 39  9  1  0
 40 10  1  0
 41 10  1  0
 42 13  1  0
 43 14  1  0
 44 15  1  0
 45 16  1  0
 46 17  1  0
 47 18  1  0
 48 18  1  0
 49 19  1  0
 50 19  1  0
 51 22  1  0
 52 24  1  0
 53 25  1  0
 54 26  1  0
 55 27  1  0
 56  8  1  0
M  CHG  1   8   1
M  END
>  <b_m_subgroup_collapsed>  (364) 
0

>  <r_i_docking_score>  (364) 
-8.1602280397372908

>  <s_m_subgroup_title>  (364) 
glide-dock_SP_D22_pv

>  <s_m_subgroupid>  (364) 
glide-dock_SP_D22_pv

>  <Molecule ChEMBL ID>  (364) 
CHEMBL5398291

>  <Standard Type>  (364) 
Ki

>  <Standard Value>  (364) 
69.7

>  <label>  (364) 
1

$$$$
CHEMBL5882462
     RDKit          3D

 64 68  0  0  1  0  0  0  0  0999 V2000
   11.4734   10.1917   -6.2636 C   0  0  0  0  0  0  0  0  0  0  0  0
   11.2391    8.7804   -6.5241 N   0  0  0  0  0  0  0  0  0  0  0  0
   11.1034    8.1438   -7.7108 C   0  0  0  0  0  0  0  0  0  0  0  0
   11.2746    8.9792   -9.2528 S   0  0  0  0  0  0  0  0  0  0  0  0
   11.0568    7.6401  -10.4363 C   0  0  0  0  0  0  0  0  0  0  0  0
    9.5734    7.3356  -10.6299 C   0  0  0  0  0  0  0  0  0  0  0  0
    9.3659    6.0380  -11.4040 C   0  0  0  0  0  0  0  0  0  0  0  0
    7.9313    5.7121  -11.4817 N   0  0  1  0  0  0  0  0  0  0  0  0
    7.1563    6.4516  -12.4920 C   0  0  0  0  0  0  0  0  0  0  0  0
    5.8864    5.6249  -12.5785 C   0  0  0  0  0  0  0  0  0  0  0  0
    6.4135    4.2144  -12.5826 C   0  0  1  0  0  0  0  0  0  0  0  0
    5.5769    2.9539  -12.6283 C   0  0  0  0  0  0  0  0  0  0  0  0
    6.2974    3.4077  -13.8648 C   0  0  2  0  0  0  0  0  0  0  0  0
    7.3721    2.5728  -14.4860 C   0  0  0  0  0  0  0  0  0  0  0  0
    8.6305    3.1190  -14.8159 C   0  0  0  0  0  0  0  0  0  0  0  0
    9.5576    2.3664  -15.5630 C   0  0  0  0  0  0  0  0  0  0  0  0
    9.2379    1.0574  -15.9846 C   0  0  0  0  0  0  0  0  0  0  0  0
   10.1809    0.2801  -16.8886 C   0  0  0  0  0  0  0  0  0  0  0  0
   11.4458    0.6622  -16.7063 F   0  0  0  0  0  0  0  0  0  0  0  0
   10.0912   -1.0276  -16.6591 F   0  0  0  0  0  0  0  0  0  0  0  0
    9.8474    0.5107  -18.1591 F   0  0  0  0  0  0  0  0  0  0  0  0
    8.0031    0.4939  -15.6058 C   0  0  0  0  0  0  0  0  0  0  0  0
    7.0780    1.2445  -14.8592 C   0  0  0  0  0  0  0  0  0  0  0  0
    7.6467    4.2766  -11.7005 C   0  0  0  0  0  0  0  0  0  0  0  0
   10.8825    6.8337   -7.5967 N   0  0  0  0  0  0  0  0  0  0  0  0
   10.9199    6.5728   -6.2550 N   0  0  0  0  0  0  0  0  0  0  0  0
   11.1407    7.7464   -5.6622 C   0  0  0  0  0  0  0  0  0  0  0  0
   11.3143    7.8780   -4.2807 N   0  0  0  0  0  0  0  0  0  0  0  0
   11.5837    6.7415   -3.4004 C   0  0  0  0  0  0  0  0  0  0  0  0
   12.8854    6.9797   -2.6470 C   0  0  0  0  0  0  0  0  0  0  0  0
   12.8071    8.1721   -1.8686 O   0  0  0  0  0  0  0  0  0  0  0  0
   12.5112    9.3155   -2.6610 C   0  0  0  0  0  0  0  0  0  0  0  0
   11.2208    9.0561   -3.4133 C   0  0  0  0  0  0  0  0  0  0  0  0
   10.5801   10.6415   -5.8330 H   0  0  0  0  0  0  0  0  0  0  0  0
   12.3292   10.3147   -5.6009 H   0  0  0  0  0  0  0  0  0  0  0  0
   11.6856   10.7295   -7.1706 H   0  0  0  0  0  0  0  0  0  0  0  0
   11.6150    6.7674  -10.0987 H   0  0  0  0  0  0  0  0  0  0  0  0
   11.4985    7.9414  -11.3861 H   0  0  0  0  0  0  0  0  0  0  0  0
    9.0920    8.1706  -11.1430 H   0  0  0  0  0  0  0  0  0  0  0  0
    9.0810    7.2536   -9.6590 H   0  0  0  0  0  0  0  0  0  0  0  0
    9.8803    5.2347  -10.8738 H   0  0  0  0  0  0  0  0  0  0  0  0
    9.8051    6.0917  -12.4005 H   0  0  0  0  0  0  0  0  0  0  0  0
    7.6862    6.4284  -13.4412 H   0  0  0  0  0  0  0  0  0  0  0  0
    6.9729    7.4966  -12.2480 H   0  0  0  0  0  0  0  0  0  0  0  0
    5.2802    5.8499  -13.4499 H   0  0  0  0  0  0  0  0  0  0  0  0
    5.2892    5.7815  -11.6803 H   0  0  0  0  0  0  0  0  0  0  0  0
    4.4941    3.0307  -12.6476 H   0  0  0  0  0  0  0  0  0  0  0  0
    5.9991    2.0929  -12.1093 H   0  0  0  0  0  0  0  0  0  0  0  0
    5.6780    3.8228  -14.6565 H   0  0  0  0  0  0  0  0  0  0  0  0
    8.8672    4.1385  -14.5466 H   0  0  0  0  0  0  0  0  0  0  0  0
   10.4999    2.8128  -15.8453 H   0  0  0  0  0  0  0  0  0  0  0  0
    7.7453   -0.5066  -15.9231 H   0  0  0  0  0  0  0  0  0  0  0  0
    6.1150    0.8137  -14.6213 H   0  0  0  0  0  0  0  0  0  0  0  0
    7.4437    3.7970  -10.7420 H   0  0  0  0  0  0  0  0  0  0  0  0
    8.4864    3.7687  -12.1765 H   0  0  0  0  0  0  0  0  0  0  0  0
   10.7754    6.5704   -2.6911 H   0  0  0  0  0  0  0  0  0  0  0  0
   11.6757    5.8198   -3.9748 H   0  0  0  0  0  0  0  0  0  0  0  0
   13.0980    6.1266   -2.0006 H   0  0  0  0  0  0  0  0  0  0  0  0
   13.6899    7.0701   -3.3736 H   0  0  0  0  0  0  0  0  0  0  0  0
   12.3865   10.1728   -2.0040 H   0  0  0  0  0  0  0  0  0  0  0  0
   13.2868    9.5545   -3.3783 H   0  0  0  0  0  0  0  0  0  0  0  0
   10.8684    9.9509   -3.9078 H   0  0  0  0  0  0  0  0  0  0  0  0
   10.4876    8.8701   -2.6475 H   0  0  0  0  0  0  0  0  0  0  0  0
    7.5051    5.9716  -10.5970 H   0  0  0  0  0  0  0  0  0  0  0  0
  2  1  1  0
  3  2  1  0
  4  3  1  0
  5  4  1  0
  6  5  1  0
  7  6  1  0
  8  7  1  0
  9  8  1  0
 10  9  1  0
 11 10  1  6
 12 11  1  0
 13 11  1  0
 13 12  1  0
 14 13  1  0
 15 14  1  0
 16 15  2  0
 17 16  1  0
 18 17  1  0
 19 18  1  0
 20 18  1  0
 21 18  1  0
 22 17  2  0
 23 14  2  0
 23 22  1  0
 24  8  1  0
 24 11  1  0
 25  3  2  0
 26 25  1  0
 27  2  1  0
 27 26  2  0
 28 27  1  0
 29 28  1  0
 30 29  1  0
 31 30  1  0
 32 31  1  0
 33 28  1  0
 33 32  1  0
 34  1  1  0
 35  1  1  0
 36  1  1  0
 37  5  1  0
 38  5  1  0
 39  6  1  0
 40  6  1  0
 41  7  1  0
 42  7  1  0
 43  9  1  0
 44  9  1  0
 45 10  1  0
 46 10  1  0
 47 12  1  0
 48 12  1  0
 13 49  1  6
 50 15  1  0
 51 16  1  0
 52 22  1  0
 53 23  1  0
 54 24  1  0
 55 24  1  0
 56 29  1  0
 57 29  1  0
 58 30  1  0
 59 30  1  0
 60 32  1  0
 61 32  1  0
 62 33  1  0
 63 33  1  0
  8 64  1  1
M  CHG  1   8   1
M  END
>  <b_m_subgroup_collapsed>  (365) 
0

>  <r_i_docking_score>  (365) 
-8.1590125299430607

>  <s_m_subgroup_title>  (365) 
glide-dock_SP_D22_pv

>  <s_m_subgroupid>  (365) 
glide-dock_SP_D22_pv

>  <Molecule ChEMBL ID>  (365) 
CHEMBL5882462

>  <Standard Type>  (365) 
Ki

>  <Standard Value>  (365) 
41.7

>  <label>  (365) 
1

$$$$
CHEMBL201375
     RDKit          3D

 48 51  0  0  1  0  0  0  0  0999 V2000
    9.6880    4.1481   -9.0777 C   0  0  0  0  0  0  0  0  0  0  0  0
    9.7674    5.6195   -8.9464 N   0  0  1  0  0  0  0  0  0  0  0  0
    8.5691    6.2932   -9.4876 C   0  0  0  0  0  0  0  0  0  0  0  0
    8.6307    6.3148  -11.0184 C   0  0  0  0  0  0  0  0  0  0  0  0
    9.9744    6.7092  -11.5568 C   0  0  0  0  0  0  0  0  0  0  0  0
   10.9131    7.5975  -11.0618 C   0  0  0  0  0  0  0  0  0  0  0  0
   12.0020    7.5814  -11.9227 N   0  0  0  0  0  0  0  0  0  0  0  0
   11.7571    6.7868  -13.0285 C   0  0  0  0  0  0  0  0  0  0  0  0
   12.4862    6.5302  -14.2014 C   0  0  0  0  0  0  0  0  0  0  0  0
   11.9990    5.6004  -15.1361 C   0  0  0  0  0  0  0  0  0  0  0  0
   10.7789    4.9461  -14.8950 C   0  0  0  0  0  0  0  0  0  0  0  0
   10.0366    5.2329  -13.7319 C   0  0  0  0  0  0  0  0  0  0  0  0
   10.5031    6.1721  -12.7780 C   0  0  0  0  0  0  0  0  0  0  0  0
   10.8971    8.5469   -9.8852 C   0  0  0  0  0  0  0  0  0  0  0  0
   11.5302    8.0574   -8.5511 C   0  0  0  0  0  0  0  0  0  0  0  0
   10.5459    7.5473   -7.4555 C   0  0  2  0  0  0  0  0  0  0  0  0
   11.0255    7.8867   -6.0341 C   0  0  0  0  0  0  0  0  0  0  0  0
   11.5261    6.9089   -5.1342 C   0  0  0  0  0  0  0  0  0  0  0  0
   11.9593    7.2589   -3.8413 C   0  0  0  0  0  0  0  0  0  0  0  0
   11.8813    8.5944   -3.4148 C   0  0  0  0  0  0  0  0  0  0  0  0
   11.3651    9.5686   -4.2842 C   0  0  0  0  0  0  0  0  0  0  0  0
   10.9479    9.2248   -5.5849 C   0  0  0  0  0  0  0  0  0  0  0  0
   10.1866    6.0480   -7.5969 C   0  0  0  0  0  0  0  0  0  0  0  0
    8.7952    3.7510   -8.5922 H   0  0  0  0  0  0  0  0  0  0  0  0
   10.5598    3.6603   -8.6472 H   0  0  0  0  0  0  0  0  0  0  0  0
    9.6859    3.8693  -10.1310 H   0  0  0  0  0  0  0  0  0  0  0  0
    7.6847    5.7808   -9.1315 H   0  0  0  0  0  0  0  0  0  0  0  0
    8.4858    7.3175   -9.1379 H   0  0  0  0  0  0  0  0  0  0  0  0
    8.3645    5.3232  -11.3812 H   0  0  0  0  0  0  0  0  0  0  0  0
    7.8765    6.9716  -11.4467 H   0  0  0  0  0  0  0  0  0  0  0  0
   12.8102    8.1741  -11.7956 H   0  0  0  0  0  0  0  0  0  0  0  0
   13.4347    7.0182  -14.3683 H   0  0  0  0  0  0  0  0  0  0  0  0
   12.5670    5.3836  -16.0303 H   0  0  0  0  0  0  0  0  0  0  0  0
   10.4040    4.2286  -15.6106 H   0  0  0  0  0  0  0  0  0  0  0  0
    9.0883    4.7410  -13.5773 H   0  0  0  0  0  0  0  0  0  0  0  0
   11.4546    9.4344  -10.1926 H   0  0  0  0  0  0  0  0  0  0  0  0
    9.8897    8.9299   -9.7228 H   0  0  0  0  0  0  0  0  0  0  0  0
   12.3579    7.3724   -8.7208 H   0  0  0  0  0  0  0  0  0  0  0  0
   12.0061    8.9472   -8.1353 H   0  0  0  0  0  0  0  0  0  0  0  0
    9.6258    8.1250   -7.5397 H   0  0  0  0  0  0  0  0  0  0  0  0
   11.6096    5.8687   -5.4049 H   0  0  0  0  0  0  0  0  0  0  0  0
   12.3393    6.4995   -3.1731 H   0  0  0  0  0  0  0  0  0  0  0  0
   12.1961    8.8696   -2.4187 H   0  0  0  0  0  0  0  0  0  0  0  0
   11.2857   10.5790   -3.9362 H   0  0  0  0  0  0  0  0  0  0  0  0
   10.5581    9.9940   -6.2370 H   0  0  0  0  0  0  0  0  0  0  0  0
    9.4170    5.7724   -6.8761 H   0  0  0  0  0  0  0  0  0  0  0  0
   11.0788    5.4629   -7.3790 H   0  0  0  0  0  0  0  0  0  0  0  0
   10.5195    5.9163   -9.5561 H   0  0  0  0  0  0  0  0  0  0  0  0
  2  1  1  0
  3  2  1  0
  4  3  1  0
  5  4  1  0
  6  5  2  0
  7  6  1  0
  8  7  1  0
  9  8  2  0
 10  9  1  0
 11 10  2  0
 12 11  1  0
 13  5  1  0
 13  8  1  0
 13 12  2  0
 14  6  1  0
 15 14  1  0
 16 15  1  0
 17 16  1  0
 18 17  2  0
 19 18  1  0
 20 19  2  0
 21 20  1  0
 22 17  1  0
 22 21  2  0
 23  2  1  0
 23 16  1  0
 24  1  1  0
 25  1  1  0
 26  1  1  0
 27  3  1  0
 28  3  1  0
 29  4  1  0
 30  4  1  0
 31  7  1  0
 32  9  1  0
 33 10  1  0
 34 11  1  0
 35 12  1  0
 36 14  1  0
 37 14  1  0
 38 15  1  0
 39 15  1  0
 16 40  1  6
 41 18  1  0
 42 19  1  0
 43 20  1  0
 44 21  1  0
 45 22  1  0
 46 23  1  0
 47 23  1  0
  2 48  1  6
M  CHG  1   2   1
M  END
>  <b_m_subgroup_collapsed>  (366) 
0

>  <r_i_docking_score>  (366) 
-8.1566283969645301

>  <s_m_subgroup_title>  (366) 
glide-dock_SP_D22_pv

>  <s_m_subgroupid>  (366) 
glide-dock_SP_D22_pv

>  <Molecule ChEMBL ID>  (366) 
CHEMBL201375

>  <Standard Type>  (366) 
Ki

>  <Standard Value>  (366) 
10000.0

>  <label>  (366) 
0

$$$$
CHEMBL514747
     RDKit          3D

 44 48  0  0  1  0  0  0  0  0999 V2000
   12.4865    8.5723   -1.5195 Cl  0  0  0  0  0  0  0  0  0  0  0  0
   12.0126    8.3235   -3.1535 C   0  0  0  0  0  0  0  0  0  0  0  0
   11.9438    7.0238   -3.6832 C   0  0  0  0  0  0  0  0  0  0  0  0
   11.5747    6.8356   -5.0290 C   0  0  0  0  0  0  0  0  0  0  0  0
   11.2858    7.9364   -5.8689 C   0  0  0  0  0  0  0  0  0  0  0  0
   11.0342    7.7070   -7.2389 N   0  0  0  0  0  0  0  0  0  0  0  0
   10.0868    6.6415   -7.5827 C   0  0  0  0  0  0  0  0  0  0  0  0
    9.2876    7.2456   -8.7552 C   0  0  1  0  0  0  0  0  0  0  0  0
    9.1961    8.6952   -8.2829 C   0  0  0  0  0  0  0  0  0  0  0  0
   10.7079    8.7972   -8.1578 C   0  0  2  0  0  0  0  0  0  0  0  0
   11.1357    8.4005   -9.5816 C   0  0  0  0  0  0  0  0  0  0  0  0
   10.1843    7.3170   -9.9380 N   0  0  2  0  0  0  0  0  0  0  0  0
    9.4974    7.5082  -11.2401 C   0  0  0  0  0  0  0  0  0  0  0  0
    9.1120    6.1958  -11.8518 C   0  0  0  0  0  0  0  0  0  0  0  0
    7.9348    5.5170  -11.6483 C   0  0  0  0  0  0  0  0  0  0  0  0
    7.9357    4.3656  -12.4164 N   0  0  0  0  0  0  0  0  0  0  0  0
    9.1090    4.2591  -13.1298 C   0  0  0  0  0  0  0  0  0  0  0  0
    9.4599    3.2583  -13.9846 N   0  0  0  0  0  0  0  0  0  0  0  0
   10.6757    3.4067  -14.5548 C   0  0  0  0  0  0  0  0  0  0  0  0
   11.5313    4.5044  -14.3277 C   0  0  0  0  0  0  0  0  0  0  0  0
   11.1201    5.5235  -13.4466 C   0  0  0  0  0  0  0  0  0  0  0  0
    9.8689    5.4149  -12.7978 C   0  0  0  0  0  0  0  0  0  0  0  0
   11.3140    9.2364   -5.3042 C   0  0  0  0  0  0  0  0  0  0  0  0
   11.6744    9.4247   -3.9569 C   0  0  0  0  0  0  0  0  0  0  0  0
   12.1838    6.1717   -3.0644 H   0  0  0  0  0  0  0  0  0  0  0  0
   11.5624    5.8312   -5.4258 H   0  0  0  0  0  0  0  0  0  0  0  0
   10.5985    5.7189   -7.8583 H   0  0  0  0  0  0  0  0  0  0  0  0
    9.4221    6.4247   -6.7438 H   0  0  0  0  0  0  0  0  0  0  0  0
    8.3394    6.7410   -8.9441 H   0  0  0  0  0  0  0  0  0  0  0  0
    8.7625    9.3736   -9.0201 H   0  0  0  0  0  0  0  0  0  0  0  0
    8.6629    8.8107   -7.3372 H   0  0  0  0  0  0  0  0  0  0  0  0
   11.0874    9.7799   -7.8830 H   0  0  0  0  0  0  0  0  0  0  0  0
   11.0417    9.2615  -10.2447 H   0  0  0  0  0  0  0  0  0  0  0  0
   12.1696    8.0559   -9.6232 H   0  0  0  0  0  0  0  0  0  0  0  0
    8.6290    8.1590  -11.1245 H   0  0  0  0  0  0  0  0  0  0  0  0
   10.1683    8.0220  -11.9296 H   0  0  0  0  0  0  0  0  0  0  0  0
    7.0863    5.7693  -11.0236 H   0  0  0  0  0  0  0  0  0  0  0  0
    7.1725    3.7065  -12.4343 H   0  0  0  0  0  0  0  0  0  0  0  0
   10.9788    2.6186  -15.2289 H   0  0  0  0  0  0  0  0  0  0  0  0
   12.4887    4.5605  -14.8270 H   0  0  0  0  0  0  0  0  0  0  0  0
   11.7620    6.3725  -13.2641 H   0  0  0  0  0  0  0  0  0  0  0  0
   11.0756   10.1172   -5.8781 H   0  0  0  0  0  0  0  0  0  0  0  0
   11.6869   10.4189   -3.5349 H   0  0  0  0  0  0  0  0  0  0  0  0
   10.6919    6.4471   -9.9900 H   0  0  0  0  0  0  0  0  0  0  0  0
  2  1  1  0
  3  2  1  0
  4  3  2  0
  5  4  1  0
  6  5  1  0
  7  6  1  0
  8  7  1  0
  9  8  1  0
 10  6  1  0
 10  9  1  0
 11 10  1  0
 12  8  1  0
 12 11  1  0
 13 12  1  0
 14 13  1  0
 15 14  2  0
 16 15  1  0
 17 16  1  0
 18 17  1  0
 19 18  2  0
 20 19  1  0
 21 20  2  0
 22 14  1  0
 22 17  2  0
 22 21  1  0
 23  5  2  0
 24  2  2  0
 24 23  1  0
 25  3  1  0
 26  4  1  0
 27  7  1  0
 28  7  1  0
  8 29  1  6
 30  9  1  0
 31  9  1  0
 10 32  1  1
 33 11  1  0
 34 11  1  0
 35 13  1  0
 36 13  1  0
 37 15  1  0
 38 16  1  0
 39 19  1  0
 40 20  1  0
 41 21  1  0
 42 23  1  0
 43 24  1  0
 12 44  1  6
M  CHG  1  12   1
M  END
>  <b_m_subgroup_collapsed>  (367) 
0

>  <r_i_docking_score>  (367) 
-8.1557204881081802

>  <s_m_subgroup_title>  (367) 
glide-dock_SP_D22_pv

>  <s_m_subgroupid>  (367) 
glide-dock_SP_D22_pv

>  <Molecule ChEMBL ID>  (367) 
CHEMBL514747

>  <Standard Type>  (367) 
Ki

>  <Standard Value>  (367) 
62.0

>  <label>  (367) 
1

$$$$
CHEMBL377542
     RDKit          3D

 42 45  0  0  1  0  0  0  0  0999 V2000
   12.4866    8.4715   -1.4499 F   0  0  0  0  0  0  0  0  0  0  0  0
   12.0945    8.3164   -2.7385 C   0  0  0  0  0  0  0  0  0  0  0  0
   12.0835    7.0410   -3.3284 C   0  0  0  0  0  0  0  0  0  0  0  0
   11.6564    6.8814   -4.6633 C   0  0  0  0  0  0  0  0  0  0  0  0
   11.2460    7.9896   -5.4446 C   0  0  0  0  0  0  0  0  0  0  0  0
   10.8386    7.8092   -6.7911 N   0  0  0  0  0  0  0  0  0  0  0  0
    9.8991    6.7364   -7.1187 C   0  0  0  0  0  0  0  0  0  0  0  0
    9.9721    6.3379   -8.6152 C   0  0  0  0  0  0  0  0  0  0  0  0
    9.9201    7.5065   -9.5437 N   0  0  0  0  0  0  0  0  0  0  0  0
   10.1992    7.1887  -10.9747 C   0  0  0  0  0  0  0  0  0  0  0  0
    9.3712    6.0903  -11.5803 C   0  0  0  0  0  0  0  0  0  0  0  0
    8.0702    5.7723  -11.3309 C   0  0  0  0  0  0  0  0  0  0  0  0
    7.7062    4.8003  -12.2353 N   0  0  0  0  0  0  0  0  0  0  0  0
    6.5223    4.1737  -12.4527 C   0  0  0  0  0  0  0  0  0  0  0  0
    6.4882    3.2573  -13.4695 C   0  0  0  0  0  0  0  0  0  0  0  0
    7.5724    2.9343  -14.2470 N   0  0  0  0  0  0  0  0  0  0  0  0
    8.7098    3.5341  -14.0235 C   0  0  0  0  0  0  0  0  0  0  0  0
    8.8575    4.5241  -13.0068 C   0  0  0  0  0  0  0  0  0  0  0  0
    9.8720    5.2956  -12.6077 N   0  0  0  0  0  0  0  0  0  0  0  0
   10.8190    8.6124   -9.1175 C   0  0  0  0  0  0  0  0  0  0  0  0
   10.6749    8.9790   -7.6380 C   0  0  0  0  0  0  0  0  0  0  0  0
   11.2862    9.2719   -4.8348 C   0  0  0  0  0  0  0  0  0  0  0  0
   11.6966    9.4306   -3.4961 C   0  0  0  0  0  0  0  0  0  0  0  0
   12.3911    6.1784   -2.7540 H   0  0  0  0  0  0  0  0  0  0  0  0
   11.6702    5.8882   -5.0863 H   0  0  0  0  0  0  0  0  0  0  0  0
    8.8903    7.0796   -6.8798 H   0  0  0  0  0  0  0  0  0  0  0  0
   10.0698    5.8514   -6.5102 H   0  0  0  0  0  0  0  0  0  0  0  0
    9.1532    5.6519   -8.8322 H   0  0  0  0  0  0  0  0  0  0  0  0
   10.8855    5.7780   -8.7943 H   0  0  0  0  0  0  0  0  0  0  0  0
   11.2609    6.9665  -11.0893 H   0  0  0  0  0  0  0  0  0  0  0  0
   10.0338    8.0969  -11.5557 H   0  0  0  0  0  0  0  0  0  0  0  0
    7.3300    6.1683  -10.6514 H   0  0  0  0  0  0  0  0  0  0  0  0
    5.6853    4.4333  -11.8132 H   0  0  0  0  0  0  0  0  0  0  0  0
    5.5748    2.7201  -13.7026 H   0  0  0  0  0  0  0  0  0  0  0  0
    9.5713    3.2890  -14.6354 H   0  0  0  0  0  0  0  0  0  0  0  0
   11.8566    8.3250   -9.2993 H   0  0  0  0  0  0  0  0  0  0  0  0
   10.6310    9.4963   -9.7283 H   0  0  0  0  0  0  0  0  0  0  0  0
    9.6963    9.4223   -7.4485 H   0  0  0  0  0  0  0  0  0  0  0  0
   11.4289    9.7327   -7.4096 H   0  0  0  0  0  0  0  0  0  0  0  0
   10.9777   10.1594   -5.3654 H   0  0  0  0  0  0  0  0  0  0  0  0
   11.7032   10.4128   -3.0455 H   0  0  0  0  0  0  0  0  0  0  0  0
    8.9675    7.8476   -9.5006 H   0  0  0  0  0  0  0  0  0  0  0  0
  2  1  1  0
  3  2  1  0
  4  3  2  0
  5  4  1  0
  6  5  1  0
  7  6  1  0
  8  7  1  0
  9  8  1  0
 10  9  1  0
 11 10  1  0
 12 11  2  0
 13 12  1  0
 14 13  1  0
 15 14  2  0
 16 15  1  0
 17 16  2  0
 18 13  1  0
 18 17  1  0
 19 11  1  0
 19 18  2  0
 20  9  1  0
 21  6  1  0
 21 20  1  0
 22  5  2  0
 23  2  2  0
 23 22  1  0
 24  3  1  0
 25  4  1  0
 26  7  1  0
 27  7  1  0
 28  8  1  0
 29  8  1  0
 30 10  1  0
 31 10  1  0
 32 12  1  0
 33 14  1  0
 34 15  1  0
 35 17  1  0
 36 20  1  0
 37 20  1  0
 38 21  1  0
 39 21  1  0
 40 22  1  0
 41 23  1  0
 42  9  1  0
M  CHG  1   9   1
M  END
>  <b_m_subgroup_collapsed>  (368) 
0

>  <r_i_docking_score>  (368) 
-8.1548943055205498

>  <s_m_subgroup_title>  (368) 
glide-dock_SP_D22_pv

>  <s_m_subgroupid>  (368) 
glide-dock_SP_D22_pv

>  <Molecule ChEMBL ID>  (368) 
CHEMBL377542

>  <Standard Type>  (368) 
Ki

>  <Standard Value>  (368) 
64000.0

>  <label>  (368) 
0

$$$$
CHEMBL6003107
     RDKit          3D

 76 80  0  0  1  0  0  0  0  0999 V2000
   11.0317    6.9751  -10.9487 O   0  0  0  0  0  0  0  0  0  0  0  0
   10.0682    7.2679  -10.2443 C   0  0  0  0  0  0  0  0  0  0  0  0
    8.9213    6.5563  -10.2285 N   0  0  0  0  0  0  0  0  0  0  0  0
    8.6628    5.2401  -10.8279 C   0  0  0  0  0  0  0  0  0  0  0  0
    8.9899    5.2218  -12.3245 C   0  0  0  0  0  0  0  0  0  0  0  0
    8.8559    3.9047  -13.0923 C   0  0  0  0  0  0  0  0  0  0  0  0
    9.2090    4.0524  -14.5928 C   0  0  0  0  0  0  0  0  0  0  0  0
   10.6671    4.1062  -14.9335 N   0  0  0  0  0  0  0  0  0  0  0  0
   10.8939    3.5901  -16.3210 C   0  0  0  0  0  0  0  0  0  0  0  0
   12.3664    3.6817  -16.7970 C   0  0  0  0  0  0  0  0  0  0  0  0
   12.9843    4.9372  -16.3958 N   0  0  0  0  0  0  0  0  0  0  0  0
   13.6991    5.7574  -17.2798 C   0  0  0  0  0  0  0  0  0  0  0  0
   15.0933    5.8399  -17.1215 C   0  0  0  0  0  0  0  0  0  0  0  0
   15.8346    6.6652  -17.9886 C   0  0  0  0  0  0  0  0  0  0  0  0
   17.3538    6.7676  -17.8778 C   0  0  0  0  0  0  0  0  0  0  0  0
   17.7475    8.0413  -17.8650 F   0  0  0  0  0  0  0  0  0  0  0  0
   17.8012    6.1728  -16.7692 F   0  0  0  0  0  0  0  0  0  0  0  0
   17.9095    6.1634  -18.9253 F   0  0  0  0  0  0  0  0  0  0  0  0
   15.2531    7.3800  -18.9751 N   0  0  0  0  0  0  0  0  0  0  0  0
   13.9103    7.3404  -19.1248 C   0  0  0  0  0  0  0  0  0  0  0  0
   13.3029    8.1103  -20.1384 C   0  0  0  0  0  0  0  0  0  0  0  0
   11.9054    8.1273  -20.3076 C   0  0  0  0  0  0  0  0  0  0  0  0
   11.0890    7.3704  -19.4513 C   0  0  0  0  0  0  0  0  0  0  0  0
   11.6754    6.5818  -18.4466 C   0  0  0  0  0  0  0  0  0  0  0  0
   13.0802    6.5452  -18.2835 C   0  0  0  0  0  0  0  0  0  0  0  0
   12.8004    5.3967  -15.0416 C   0  0  0  0  0  0  0  0  0  0  0  0
   11.3034    5.4525  -14.7592 C   0  0  0  0  0  0  0  0  0  0  0  0
   10.1095    8.3263   -9.4039 N   0  0  0  0  0  0  0  0  0  0  0  0
   11.3542    9.0748   -9.1682 C   0  0  0  0  0  0  0  0  0  0  0  0
   11.8936    8.7210   -7.7658 C   0  0  0  0  0  0  0  0  0  0  0  0
   10.8211    8.9635   -6.6770 C   0  0  0  0  0  0  0  0  0  0  0  0
   11.2874    8.5420   -5.2933 C   0  0  0  0  0  0  0  0  0  0  0  0
   11.3456    7.1795   -4.9263 C   0  0  0  0  0  0  0  0  0  0  0  0
   11.7664    6.8144   -3.6339 C   0  0  0  0  0  0  0  0  0  0  0  0
   12.1344    7.8006   -2.7010 C   0  0  0  0  0  0  0  0  0  0  0  0
   12.0856    9.1591   -3.0646 C   0  0  0  0  0  0  0  0  0  0  0  0
   11.6628    9.5239   -4.3561 C   0  0  0  0  0  0  0  0  0  0  0  0
    9.4733    8.3108   -7.0444 C   0  0  0  0  0  0  0  0  0  0  0  0
    9.0564    8.7092   -8.4586 C   0  0  0  0  0  0  0  0  0  0  0  0
    8.1362    6.9865   -9.7487 H   0  0  0  0  0  0  0  0  0  0  0  0
    9.2464    4.4793  -10.3049 H   0  0  0  0  0  0  0  0  0  0  0  0
    7.6113    5.0037  -10.6754 H   0  0  0  0  0  0  0  0  0  0  0  0
    8.4695    6.0284  -12.8435 H   0  0  0  0  0  0  0  0  0  0  0  0
   10.0368    5.4249  -12.3437 H   0  0  0  0  0  0  0  0  0  0  0  0
    9.4640    3.1242  -12.6325 H   0  0  0  0  0  0  0  0  0  0  0  0
    7.8196    3.5695  -13.0235 H   0  0  0  0  0  0  0  0  0  0  0  0
    8.7801    3.1729  -15.0763 H   0  0  0  0  0  0  0  0  0  0  0  0
    8.6944    4.9063  -15.0352 H   0  0  0  0  0  0  0  0  0  0  0  0
   10.5600    2.5540  -16.3967 H   0  0  0  0  0  0  0  0  0  0  0  0
   10.2546    4.1555  -16.9992 H   0  0  0  0  0  0  0  0  0  0  0  0
   12.9402    2.8680  -16.3546 H   0  0  0  0  0  0  0  0  0  0  0  0
   12.4340    3.5517  -17.8777 H   0  0  0  0  0  0  0  0  0  0  0  0
   15.5840    5.2740  -16.3443 H   0  0  0  0  0  0  0  0  0  0  0  0
   13.9211    8.7111  -20.7890 H   0  0  0  0  0  0  0  0  0  0  0  0
   11.4601    8.7301  -21.0854 H   0  0  0  0  0  0  0  0  0  0  0  0
   10.0143    7.3964  -19.5646 H   0  0  0  0  0  0  0  0  0  0  0  0
   11.0282    6.0288  -17.7908 H   0  0  0  0  0  0  0  0  0  0  0  0
   13.2955    4.7150  -14.3485 H   0  0  0  0  0  0  0  0  0  0  0  0
   13.2439    6.3826  -14.8963 H   0  0  0  0  0  0  0  0  0  0  0  0
   10.8197    6.1729  -15.4205 H   0  0  0  0  0  0  0  0  0  0  0  0
   11.2497    5.8724  -13.7676 H   0  0  0  0  0  0  0  0  0  0  0  0
   11.1563   10.1414   -9.2615 H   0  0  0  0  0  0  0  0  0  0  0  0
   12.1299    8.8638   -9.9054 H   0  0  0  0  0  0  0  0  0  0  0  0
   12.7903    9.3021   -7.5429 H   0  0  0  0  0  0  0  0  0  0  0  0
   12.2084    7.6760   -7.7626 H   0  0  0  0  0  0  0  0  0  0  0  0
   10.6428   10.0403   -6.6482 H   0  0  0  0  0  0  0  0  0  0  0  0
   11.0748    6.4052   -5.6265 H   0  0  0  0  0  0  0  0  0  0  0  0
   11.8080    5.7745   -3.3573 H   0  0  0  0  0  0  0  0  0  0  0  0
   12.4695    7.5162   -1.7153 H   0  0  0  0  0  0  0  0  0  0  0  0
   12.3767    9.9192   -2.3541 H   0  0  0  0  0  0  0  0  0  0  0  0
   11.6297   10.5661   -4.6336 H   0  0  0  0  0  0  0  0  0  0  0  0
    9.5336    7.2228   -7.0018 H   0  0  0  0  0  0  0  0  0  0  0  0
    8.6956    8.5986   -6.3354 H   0  0  0  0  0  0  0  0  0  0  0  0
    8.8951    9.7685   -8.5215 H   0  0  0  0  0  0  0  0  0  0  0  0
    8.0892    8.2774   -8.6642 H   0  0  0  0  0  0  0  0  0  0  0  0
   11.1457    3.4688  -14.3121 H   0  0  0  0  0  0  0  0  0  0  0  0
  2  1  2  0
  3  2  1  0
  4  3  1  0
  5  4  1  0
  6  5  1  0
  7  6  1  0
  8  7  1  0
  9  8  1  0
 10  9  1  0
 11 10  1  0
 12 11  1  0
 13 12  2  0
 14 13  1  0
 15 14  1  0
 16 15  1  0
 17 15  1  0
 18 15  1  0
 19 14  2  0
 20 19  1  0
 21 20  2  0
 22 21  1  0
 23 22  2  0
 24 23  1  0
 25 12  1  0
 25 20  1  0
 25 24  2  0
 26 11  1  0
 27  8  1  0
 27 26  1  0
 28  2  1  0
 29 28  1  0
 30 29  1  0
 31 30  1  0
 32 31  1  0
 33 32  2  0
 34 33  1  0
 35 34  2  0
 36 35  1  0
 37 32  1  0
 37 36  2  0
 38 31  1  0
 39 28  1  0
 39 38  1  0
 40  3  1  0
 41  4  1  0
 42  4  1  0
 43  5  1  0
 44  5  1  0
 45  6  1  0
 46  6  1  0
 47  7  1  0
 48  7  1  0
 49  9  1  0
 50  9  1  0
 51 10  1  0
 52 10  1  0
 53 13  1  0
 54 21  1  0
 55 22  1  0
 56 23  1  0
 57 24  1  0
 58 26  1  0
 59 26  1  0
 60 27  1  0
 61 27  1  0
 62 29  1  0
 63 29  1  0
 64 30  1  0
 65 30  1  0
 66 31  1  0
 67 33  1  0
 68 34  1  0
 69 35  1  0
 70 36  1  0
 71 37  1  0
 72 38  1  0
 73 38  1  0
 74 39  1  0
 75 39  1  0
 76  8  1  0
M  CHG  1   8   1
M  END
>  <b_m_subgroup_collapsed>  (369) 
0

>  <r_i_docking_score>  (369) 
-8.1507487794984606

>  <s_m_subgroup_title>  (369) 
glide-dock_SP_D22_pv

>  <s_m_subgroupid>  (369) 
glide-dock_SP_D22_pv

>  <Molecule ChEMBL ID>  (369) 
CHEMBL6003107

>  <Standard Type>  (369) 
Ki

>  <Standard Value>  (369) 
100000.0

>  <label>  (369) 
0

$$$$
CHEMBL540241
     RDKit          3D

 54 57  0  0  1  0  0  0  0  0999 V2000
   11.5397    6.4814   -2.2465 C   0  0  0  0  0  0  0  0  0  0  0  0
   12.4173    7.6294   -2.7578 C   0  0  0  0  0  0  0  0  0  0  0  0
   12.7998    8.5718   -1.6000 C   0  0  0  0  0  0  0  0  0  0  0  0
   11.7710    8.3299   -3.9548 C   0  0  0  0  0  0  0  0  0  0  0  0
   11.4668    9.7073   -3.9433 C   0  0  0  0  0  0  0  0  0  0  0  0
   10.8864   10.3034   -5.0711 C   0  0  0  0  0  0  0  0  0  0  0  0
   10.6141    9.5439   -6.2201 C   0  0  0  0  0  0  0  0  0  0  0  0
   10.8928    8.1619   -6.2615 C   0  0  0  0  0  0  0  0  0  0  0  0
   10.5608    7.3453   -7.3967 N   0  0  0  0  0  0  0  0  0  0  0  0
   10.3726    5.9155   -7.2394 C   0  0  0  0  0  0  0  0  0  0  0  0
    9.7403    5.4565   -8.5371 C   0  0  0  0  0  0  0  0  0  0  0  0
    9.6993    6.6814   -9.3056 N   0  0  0  0  0  0  0  0  0  0  0  0
    9.1992    6.6963  -10.6837 C   0  0  0  0  0  0  0  0  0  0  0  0
    8.0927    5.6464  -10.9348 C   0  0  0  0  0  0  0  0  0  0  0  0
    7.5081    5.7657  -12.2912 N   0  0  0  0  0  0  0  0  0  0  0  0
    8.3793    5.1571  -13.3462 C   0  0  0  0  0  0  0  0  0  0  0  0
    7.6960    3.8506  -13.6460 C   0  0  0  0  0  0  0  0  0  0  0  0
    8.1998    2.7425  -14.3494 C   0  0  0  0  0  0  0  0  0  0  0  0
    7.3800    1.5954  -14.4549 C   0  0  0  0  0  0  0  0  0  0  0  0
    6.1015    1.5654  -13.8468 C   0  0  0  0  0  0  0  0  0  0  0  0
    5.6176    2.6882  -13.1386 C   0  0  0  0  0  0  0  0  0  0  0  0
    6.4356    3.8288  -13.0732 C   0  0  0  0  0  0  0  0  0  0  0  0
    6.1565    5.1369  -12.3932 C   0  0  0  0  0  0  0  0  0  0  0  0
   10.2165    7.7354   -8.6456 C   0  0  0  0  0  0  0  0  0  0  0  0
   10.3643    8.8576   -9.1313 O   0  0  0  0  0  0  0  0  0  0  0  0
   11.4690    7.5733   -5.1097 C   0  0  0  0  0  0  0  0  0  0  0  0
   11.3049    5.7729   -3.0376 H   0  0  0  0  0  0  0  0  0  0  0  0
   12.0525    5.9122   -1.4717 H   0  0  0  0  0  0  0  0  0  0  0  0
   10.5973    6.8445   -1.8396 H   0  0  0  0  0  0  0  0  0  0  0  0
   13.3354    7.1884   -3.1380 H   0  0  0  0  0  0  0  0  0  0  0  0
   13.4905    9.3445   -1.9316 H   0  0  0  0  0  0  0  0  0  0  0  0
   11.9248    9.0658   -1.1778 H   0  0  0  0  0  0  0  0  0  0  0  0
   13.2837    8.0350   -0.7857 H   0  0  0  0  0  0  0  0  0  0  0  0
   11.6639   10.3265   -3.0819 H   0  0  0  0  0  0  0  0  0  0  0  0
   10.6515   11.3561   -5.0522 H   0  0  0  0  0  0  0  0  0  0  0  0
   10.1452   10.0450   -7.0476 H   0  0  0  0  0  0  0  0  0  0  0  0
   11.3080    5.3812   -7.0499 H   0  0  0  0  0  0  0  0  0  0  0  0
    9.6928    5.7727   -6.4028 H   0  0  0  0  0  0  0  0  0  0  0  0
    8.7384    5.0618   -8.3557 H   0  0  0  0  0  0  0  0  0  0  0  0
   10.3406    4.6960   -9.0348 H   0  0  0  0  0  0  0  0  0  0  0  0
    8.8119    7.6908  -10.9129 H   0  0  0  0  0  0  0  0  0  0  0  0
   10.0474    6.5364  -11.3498 H   0  0  0  0  0  0  0  0  0  0  0  0
    8.4712    4.6338  -10.7944 H   0  0  0  0  0  0  0  0  0  0  0  0
    7.3081    5.7724  -10.1931 H   0  0  0  0  0  0  0  0  0  0  0  0
    8.3855    5.7723  -14.2456 H   0  0  0  0  0  0  0  0  0  0  0  0
    9.4101    5.0017  -13.0249 H   0  0  0  0  0  0  0  0  0  0  0  0
    9.1893    2.7598  -14.7847 H   0  0  0  0  0  0  0  0  0  0  0  0
    7.7394    0.7284  -14.9888 H   0  0  0  0  0  0  0  0  0  0  0  0
    5.4931    0.6754  -13.9234 H   0  0  0  0  0  0  0  0  0  0  0  0
    4.6438    2.6718  -12.6695 H   0  0  0  0  0  0  0  0  0  0  0  0
    5.6345    5.0077  -11.4468 H   0  0  0  0  0  0  0  0  0  0  0  0
    5.5262    5.7427  -13.0450 H   0  0  0  0  0  0  0  0  0  0  0  0
   11.7086    6.5211   -5.1077 H   0  0  0  0  0  0  0  0  0  0  0  0
    7.3933    6.7591  -12.4469 H   0  0  0  0  0  0  0  0  0  0  0  0
  2  1  1  0
  3  2  1  0
  4  2  1  0
  5  4  2  0
  6  5  1  0
  7  6  2  0
  8  7  1  0
  9  8  1  0
 10  9  1  0
 11 10  1  0
 12 11  1  0
 13 12  1  0
 14 13  1  0
 15 14  1  0
 16 15  1  0
 17 16  1  0
 18 17  2  0
 19 18  1  0
 20 19  2  0
 21 20  1  0
 22 17  1  0
 22 21  2  0
 23 15  1  0
 23 22  1  0
 24  9  1  0
 24 12  1  0
 25 24  2  0
 26  4  1  0
 26  8  2  0
 27  1  1  0
 28  1  1  0
 29  1  1  0
 30  2  1  0
 31  3  1  0
 32  3  1  0
 33  3  1  0
 34  5  1  0
 35  6  1  0
 36  7  1  0
 37 10  1  0
 38 10  1  0
 39 11  1  0
 40 11  1  0
 41 13  1  0
 42 13  1  0
 43 14  1  0
 44 14  1  0
 45 16  1  0
 46 16  1  0
 47 18  1  0
 48 19  1  0
 49 20  1  0
 50 21  1  0
 51 23  1  0
 52 23  1  0
 53 26  1  0
 54 15  1  0
M  CHG  1  15   1
M  END
>  <b_m_subgroup_collapsed>  (370) 
0

>  <r_i_docking_score>  (370) 
-8.1476060561672892

>  <s_m_subgroup_title>  (370) 
glide-dock_SP_D22_pv

>  <s_m_subgroupid>  (370) 
glide-dock_SP_D22_pv

>  <Molecule ChEMBL ID>  (370) 
CHEMBL540241

>  <Standard Type>  (370) 
Ki

>  <Standard Value>  (370) 
79.43

>  <label>  (370) 
1

$$$$
CHEMBL4242192
     RDKit          3D

 63 65  0  0  1  0  0  0  0  0999 V2000
    3.6861   -0.6287  -18.2736 C   0  0  0  0  0  0  0  0  0  0  0  0
    3.9643   -1.2388  -17.2531 C   0  0  0  0  0  0  0  0  0  0  0  0
    4.2720   -2.0112  -16.0372 C   0  0  0  0  0  0  0  0  0  0  0  0
    5.4874   -1.5216  -15.2334 C   0  0  0  0  0  0  0  0  0  0  0  0
    5.2768   -0.2274  -14.4452 C   0  0  0  0  0  0  0  0  0  0  0  0
    4.2577   -0.0705  -13.7731 O   0  0  0  0  0  0  0  0  0  0  0  0
    6.2912    0.6489  -14.5409 N   0  0  0  0  0  0  0  0  0  0  0  0
    6.4885    1.9168  -13.9294 C   0  0  0  0  0  0  0  0  0  0  0  0
    5.5912    2.5329  -13.0230 C   0  0  0  0  0  0  0  0  0  0  0  0
    5.9168    3.7745  -12.4364 C   0  0  0  0  0  0  0  0  0  0  0  0
    7.1320    4.4160  -12.7531 C   0  0  0  0  0  0  0  0  0  0  0  0
    7.4777    5.7707  -12.1655 C   0  0  0  0  0  0  0  0  0  0  0  0
    8.4714    5.7060  -10.9771 C   0  0  0  0  0  0  0  0  0  0  0  0
    8.8860    7.0536  -10.4596 N   0  0  2  0  0  0  0  0  0  0  0  0
    9.5083    7.9183  -11.5125 C   0  0  0  0  0  0  0  0  0  0  0  0
   10.8405    7.3823  -12.1007 C   0  0  0  0  0  0  0  0  0  0  0  0
   12.1169    7.8149  -11.3590 C   0  0  0  0  0  0  0  0  0  0  0  0
    9.6512    7.0577   -9.1632 C   0  0  2  0  0  0  0  0  0  0  0  0
    8.9805    6.2880   -8.0152 C   0  0  0  0  0  0  0  0  0  0  0  0
    9.9159    6.1723   -6.8113 C   0  0  0  0  0  0  0  0  0  0  0  0
   10.6166    7.4437   -6.3959 C   0  0  0  0  0  0  0  0  0  0  0  0
   11.2859    7.5311   -5.1470 C   0  0  0  0  0  0  0  0  0  0  0  0
   11.2996    6.4948   -4.2663 O   0  0  0  0  0  0  0  0  0  0  0  0
   11.9637    8.7052   -4.7811 C   0  0  0  0  0  0  0  0  0  0  0  0
   11.9814    9.7863   -5.6700 C   0  0  0  0  0  0  0  0  0  0  0  0
   11.2860    9.7159   -6.8821 C   0  0  0  0  0  0  0  0  0  0  0  0
   10.6187    8.5454   -7.2722 C   0  0  0  0  0  0  0  0  0  0  0  0
    9.9335    8.4932   -8.6315 C   0  0  0  0  0  0  0  0  0  0  0  0
    8.0181    3.8110  -13.6658 C   0  0  0  0  0  0  0  0  0  0  0  0
    7.6964    2.5723  -14.2484 C   0  0  0  0  0  0  0  0  0  0  0  0
    3.4112   -0.1016  -19.1595 H   0  0  0  0  0  0  0  0  0  0  0  0
    3.3704   -2.0578  -15.4257 H   0  0  0  0  0  0  0  0  0  0  0  0
    4.4860   -3.0287  -16.3667 H   0  0  0  0  0  0  0  0  0  0  0  0
    5.7490   -2.2859  -14.5029 H   0  0  0  0  0  0  0  0  0  0  0  0
    6.3465   -1.4275  -15.8995 H   0  0  0  0  0  0  0  0  0  0  0  0
    7.0463    0.3460  -15.1384 H   0  0  0  0  0  0  0  0  0  0  0  0
    4.6555    2.0716  -12.7501 H   0  0  0  0  0  0  0  0  0  0  0  0
    5.2320    4.2324  -11.7376 H   0  0  0  0  0  0  0  0  0  0  0  0
    7.8683    6.3455  -13.0021 H   0  0  0  0  0  0  0  0  0  0  0  0
    6.5579    6.2649  -11.8506 H   0  0  0  0  0  0  0  0  0  0  0  0
    7.9464    5.1490  -10.2065 H   0  0  0  0  0  0  0  0  0  0  0  0
    9.3455    5.1074  -11.2308 H   0  0  0  0  0  0  0  0  0  0  0  0
    8.7976    8.0580  -12.3224 H   0  0  0  0  0  0  0  0  0  0  0  0
    9.6264    8.9448  -11.1741 H   0  0  0  0  0  0  0  0  0  0  0  0
   10.8360    6.3035  -12.2436 H   0  0  0  0  0  0  0  0  0  0  0  0
   10.9232    7.7723  -13.1107 H   0  0  0  0  0  0  0  0  0  0  0  0
   12.9821    7.7073  -12.0126 H   0  0  0  0  0  0  0  0  0  0  0  0
   12.0823    8.8595  -11.0470 H   0  0  0  0  0  0  0  0  0  0  0  0
   12.3109    7.2168  -10.4718 H   0  0  0  0  0  0  0  0  0  0  0  0
   10.5961    6.5524   -9.3509 H   0  0  0  0  0  0  0  0  0  0  0  0
    8.0860    6.8175   -7.7025 H   0  0  0  0  0  0  0  0  0  0  0  0
    8.6789    5.2774   -8.2795 H   0  0  0  0  0  0  0  0  0  0  0  0
   10.6878    5.4402   -7.0469 H   0  0  0  0  0  0  0  0  0  0  0  0
    9.3303    5.8359   -5.9664 H   0  0  0  0  0  0  0  0  0  0  0  0
   10.8703    5.7127   -4.5830 H   0  0  0  0  0  0  0  0  0  0  0  0
   12.4895    8.7651   -3.8390 H   0  0  0  0  0  0  0  0  0  0  0  0
   12.5371   10.6748   -5.4469 H   0  0  0  0  0  0  0  0  0  0  0  0
   11.2861   10.5723   -7.5204 H   0  0  0  0  0  0  0  0  0  0  0  0
   10.5814    9.0494   -9.3045 H   0  0  0  0  0  0  0  0  0  0  0  0
    8.9992    9.0524   -8.5559 H   0  0  0  0  0  0  0  0  0  0  0  0
    8.9489    4.2946  -13.9241 H   0  0  0  0  0  0  0  0  0  0  0  0
    8.3961    2.1205  -14.9363 H   0  0  0  0  0  0  0  0  0  0  0  0
    7.9724    7.4803  -10.2471 H   0  0  0  0  0  0  0  0  0  0  0  0
  2  1  3  0
  3  2  1  0
  4  3  1  0
  5  4  1  0
  6  5  2  0
  7  5  1  0
  8  7  1  0
  9  8  1  0
 10  9  2  0
 11 10  1  0
 12 11  1  0
 13 12  1  0
 14 13  1  0
 15 14  1  0
 16 15  1  0
 17 16  1  0
 18 14  1  0
 19 18  1  0
 20 19  1  0
 21 20  1  0
 22 21  2  0
 23 22  1  0
 24 22  1  0
 25 24  2  0
 26 25  1  0
 27 21  1  0
 27 26  2  0
 28 18  1  0
 28 27  1  0
 29 11  2  0
 30  8  2  0
 30 29  1  0
 31  1  1  0
 32  3  1  0
 33  3  1  0
 34  4  1  0
 35  4  1  0
 36  7  1  0
 37  9  1  0
 38 10  1  0
 39 12  1  0
 40 12  1  0
 41 13  1  0
 42 13  1  0
 43 15  1  0
 44 15  1  0
 45 16  1  0
 46 16  1  0
 47 17  1  0
 48 17  1  0
 49 17  1  0
 18 50  1  6
 51 19  1  0
 52 19  1  0
 53 20  1  0
 54 20  1  0
 55 23  1  0
 56 24  1  0
 57 25  1  0
 58 26  1  0
 59 28  1  0
 60 28  1  0
 61 29  1  0
 62 30  1  0
 14 63  1  1
M  CHG  1  14   1
M  END
>  <b_m_subgroup_collapsed>  (371) 
0

>  <r_i_docking_score>  (371) 
-8.1386420330272298

>  <s_m_subgroup_title>  (371) 
glide-dock_SP_D22_pv

>  <s_m_subgroupid>  (371) 
glide-dock_SP_D22_pv

>  <Molecule ChEMBL ID>  (371) 
CHEMBL4242192

>  <Standard Type>  (371) 
Ki

>  <Standard Value>  (371) 
17.0

>  <label>  (371) 
1

$$$$
CHEMBL6064944
     RDKit          3D

 54 56  0  0  1  0  0  0  0  0999 V2000
   11.8046    6.7353   -3.4624 C   0  0  0  0  0  0  0  0  0  0  0  0
   11.5542    7.6756   -4.6227 C   0  0  0  0  0  0  0  0  0  0  0  0
   11.9642    9.0208   -4.5572 C   0  0  0  0  0  0  0  0  0  0  0  0
   11.7099    9.8418   -5.6680 C   0  0  0  0  0  0  0  0  0  0  0  0
   11.0581    9.2941   -6.7857 C   0  0  0  0  0  0  0  0  0  0  0  0
   10.6634    7.9390   -6.7627 C   0  0  0  0  0  0  0  0  0  0  0  0
    9.9790    7.3288   -7.9379 C   0  0  0  0  0  0  0  0  0  0  0  0
    9.5876    6.0368   -7.9142 C   0  0  0  0  0  0  0  0  0  0  0  0
    8.9275    5.2847   -9.0533 C   0  0  0  0  0  0  0  0  0  0  0  0
    8.4860    6.1723  -10.1609 N   0  0  2  0  0  0  0  0  0  0  0  0
    8.0438    5.4244  -11.3701 C   0  0  0  0  0  0  0  0  0  0  0  0
    9.2044    4.7936  -12.1710 C   0  0  0  0  0  0  0  0  0  0  0  0
    8.7282    4.0107  -13.3024 N   0  0  0  0  0  0  0  0  0  0  0  0
    9.5491    3.3314  -14.1170 C   0  0  0  0  0  0  0  0  0  0  0  0
   10.7736    3.3726  -14.0038 O   0  0  0  0  0  0  0  0  0  0  0  0
    8.8869    2.4773  -15.2115 C   0  0  0  0  0  0  0  0  0  0  0  0
    9.3087    2.9071  -16.6380 C   0  0  0  0  0  0  0  0  0  0  0  0
   10.7015    2.3993  -17.0534 C   0  0  0  0  0  0  0  0  0  0  0  0
   10.8226    0.8795  -16.8629 C   0  0  0  0  0  0  0  0  0  0  0  0
    9.9859    0.2550  -17.6938 F   0  0  0  0  0  0  0  0  0  0  0  0
   12.0644    0.5037  -17.1651 F   0  0  0  0  0  0  0  0  0  0  0  0
   10.5084    0.4733  -15.4160 C   0  0  0  0  0  0  0  0  0  0  0  0
    9.1111    0.9614  -14.9892 C   0  0  0  0  0  0  0  0  0  0  0  0
    9.4537    7.2595  -10.4425 C   0  0  0  0  0  0  0  0  0  0  0  0
    9.7035    8.1373   -9.2035 C   0  0  0  0  0  0  0  0  0  0  0  0
   10.9144    7.1497   -5.6892 N   0  0  0  0  0  0  0  0  0  0  0  0
   12.5677    7.1284   -2.7908 H   0  0  0  0  0  0  0  0  0  0  0  0
   10.8930    6.5722   -2.8884 H   0  0  0  0  0  0  0  0  0  0  0  0
   12.1433    5.7720   -3.8333 H   0  0  0  0  0  0  0  0  0  0  0  0
   12.4652    9.4130   -3.6845 H   0  0  0  0  0  0  0  0  0  0  0  0
   12.0145   10.8772   -5.6759 H   0  0  0  0  0  0  0  0  0  0  0  0
   10.8860    9.9168   -7.6428 H   0  0  0  0  0  0  0  0  0  0  0  0
    9.7744    5.4284   -7.0469 H   0  0  0  0  0  0  0  0  0  0  0  0
    9.6553    4.5522   -9.4018 H   0  0  0  0  0  0  0  0  0  0  0  0
    8.0841    4.7222   -8.6591 H   0  0  0  0  0  0  0  0  0  0  0  0
    7.3315    4.6558  -11.0681 H   0  0  0  0  0  0  0  0  0  0  0  0
    7.4902    6.1131  -12.0088 H   0  0  0  0  0  0  0  0  0  0  0  0
    9.8693    5.5662  -12.5591 H   0  0  0  0  0  0  0  0  0  0  0  0
    9.8072    4.1392  -11.5408 H   0  0  0  0  0  0  0  0  0  0  0  0
    7.7315    3.9354  -13.4451 H   0  0  0  0  0  0  0  0  0  0  0  0
    7.8120    2.6517  -15.1330 H   0  0  0  0  0  0  0  0  0  0  0  0
    8.5710    2.5324  -17.3483 H   0  0  0  0  0  0  0  0  0  0  0  0
    9.2831    3.9943  -16.7290 H   0  0  0  0  0  0  0  0  0  0  0  0
   10.8939    2.6593  -18.0953 H   0  0  0  0  0  0  0  0  0  0  0  0
   11.4736    2.9019  -16.4708 H   0  0  0  0  0  0  0  0  0  0  0  0
   10.5598   -0.6114  -15.3142 H   0  0  0  0  0  0  0  0  0  0  0  0
   11.2787    0.8791  -14.7555 H   0  0  0  0  0  0  0  0  0  0  0  0
    8.9348    0.7017  -13.9434 H   0  0  0  0  0  0  0  0  0  0  0  0
    8.3616    0.4090  -15.5577 H   0  0  0  0  0  0  0  0  0  0  0  0
    9.0880    7.8783  -11.2637 H   0  0  0  0  0  0  0  0  0  0  0  0
   10.4041    6.8285  -10.7609 H   0  0  0  0  0  0  0  0  0  0  0  0
    8.8646    8.8093   -9.0175 H   0  0  0  0  0  0  0  0  0  0  0  0
   10.5686    8.7561   -9.4384 H   0  0  0  0  0  0  0  0  0  0  0  0
    7.6462    6.6698   -9.8472 H   0  0  0  0  0  0  0  0  0  0  0  0
  2  1  1  0
  3  2  2  0
  4  3  1  0
  5  4  2  0
  6  5  1  0
  7  6  1  0
  8  7  2  0
  9  8  1  0
 10  9  1  0
 11 10  1  0
 12 11  1  0
 13 12  1  0
 14 13  1  0
 15 14  2  0
 16 14  1  0
 17 16  1  0
 18 17  1  0
 19 18  1  0
 20 19  1  0
 21 19  1  0
 22 19  1  0
 23 16  1  0
 23 22  1  0
 24 10  1  0
 25  7  1  0
 25 24  1  0
 26  2  1  0
 26  6  2  0
 27  1  1  0
 28  1  1  0
 29  1  1  0
 30  3  1  0
 31  4  1  0
 32  5  1  0
 33  8  1  0
 34  9  1  0
 35  9  1  0
 36 11  1  0
 37 11  1  0
 38 12  1  0
 39 12  1  0
 40 13  1  0
 41 16  1  0
 42 17  1  0
 43 17  1  0
 44 18  1  0
 45 18  1  0
 46 22  1  0
 47 22  1  0
 48 23  1  0
 49 23  1  0
 50 24  1  0
 51 24  1  0
 52 25  1  0
 53 25  1  0
 10 54  1  1
M  CHG  1  10   1
M  END
>  <b_m_subgroup_collapsed>  (372) 
0

>  <r_i_docking_score>  (372) 
-8.1385020220475504

>  <s_m_subgroup_title>  (372) 
glide-dock_SP_D22_pv

>  <s_m_subgroupid>  (372) 
glide-dock_SP_D22_pv

>  <Molecule ChEMBL ID>  (372) 
CHEMBL6064944

>  <Standard Type>  (372) 
Ki

>  <Standard Value>  (372) 
0.1

>  <label>  (372) 
1

$$$$
CHEMBL134571
     RDKit          3D

 35 36  0  0  1  0  0  0  0  0999 V2000
    9.4263    8.4621  -10.9742 C   0  0  0  0  0  0  0  0  0  0  0  0
    9.2940    7.0169  -10.4734 C   0  0  0  0  0  0  0  0  0  0  0  0
    8.8863    6.8809   -9.0444 N   0  0  1  0  0  0  0  0  0  0  0  0
    8.5170    5.4694   -8.7694 C   0  0  0  0  0  0  0  0  0  0  0  0
    9.8541    7.4958   -8.0691 C   0  0  1  0  0  0  0  0  0  0  0  0
    9.5077    8.9551   -7.7159 C   0  0  0  0  0  0  0  0  0  0  0  0
   10.7039    9.6095   -6.9988 C   0  0  0  0  0  0  0  0  0  0  0  0
   11.1745    8.8125   -5.8067 C   0  0  0  0  0  0  0  0  0  0  0  0
   11.8957    9.4641   -4.7896 C   0  0  0  0  0  0  0  0  0  0  0  0
   12.3425    8.7558   -3.6577 C   0  0  0  0  0  0  0  0  0  0  0  0
   12.0662    7.3814   -3.5463 C   0  0  0  0  0  0  0  0  0  0  0  0
   12.4755    6.6794   -2.4506 O   0  0  0  0  0  0  0  0  0  0  0  0
   11.3355    6.7352   -4.5620 C   0  0  0  0  0  0  0  0  0  0  0  0
   10.8860    7.4371   -5.6968 C   0  0  0  0  0  0  0  0  0  0  0  0
   10.0518    6.7134   -6.7444 C   0  0  0  0  0  0  0  0  0  0  0  0
    9.6062    8.4771  -12.0504 H   0  0  0  0  0  0  0  0  0  0  0  0
    8.5161    9.0359  -10.7882 H   0  0  0  0  0  0  0  0  0  0  0  0
   10.2682    8.9731  -10.5079 H   0  0  0  0  0  0  0  0  0  0  0  0
   10.2274    6.4790  -10.6437 H   0  0  0  0  0  0  0  0  0  0  0  0
    8.5419    6.5336  -11.1003 H   0  0  0  0  0  0  0  0  0  0  0  0
    9.3932    4.8203   -8.7394 H   0  0  0  0  0  0  0  0  0  0  0  0
    7.9654    5.3697   -7.8357 H   0  0  0  0  0  0  0  0  0  0  0  0
    7.8626    5.0880   -9.5536 H   0  0  0  0  0  0  0  0  0  0  0  0
   10.8304    7.4979   -8.5571 H   0  0  0  0  0  0  0  0  0  0  0  0
    9.2448    9.5426   -8.5898 H   0  0  0  0  0  0  0  0  0  0  0  0
    8.6252    8.9717   -7.0733 H   0  0  0  0  0  0  0  0  0  0  0  0
   10.4858   10.6142   -6.6468 H   0  0  0  0  0  0  0  0  0  0  0  0
   11.5415    9.7069   -7.6890 H   0  0  0  0  0  0  0  0  0  0  0  0
   12.0860   10.5193   -4.8885 H   0  0  0  0  0  0  0  0  0  0  0  0
   12.8870    9.2677   -2.8773 H   0  0  0  0  0  0  0  0  0  0  0  0
   12.1331    5.7980   -2.4228 H   0  0  0  0  0  0  0  0  0  0  0  0
   11.0928    5.6952   -4.4636 H   0  0  0  0  0  0  0  0  0  0  0  0
   10.5478    5.7692   -6.9537 H   0  0  0  0  0  0  0  0  0  0  0  0
    9.0926    6.4969   -6.2729 H   0  0  0  0  0  0  0  0  0  0  0  0
    7.9984    7.3744   -8.9626 H   0  0  0  0  0  0  0  0  0  0  0  0
  2  1  1  0
  3  2  1  0
  4  3  1  0
  5  3  1  0
  6  5  1  0
  7  6  1  0
  8  7  1  0
  9  8  1  0
 10  9  2  0
 11 10  1  0
 12 11  1  0
 13 11  2  0
 14  8  2  0
 14 13  1  0
 15  5  1  0
 15 14  1  0
 16  1  1  0
 17  1  1  0
 18  1  1  0
 19  2  1  0
 20  2  1  0
 21  4  1  0
 22  4  1  0
 23  4  1  0
  5 24  1  6
 25  6  1  0
 26  6  1  0
 27  7  1  0
 28  7  1  0
 29  9  1  0
 30 10  1  0
 31 12  1  0
 32 13  1  0
 33 15  1  0
 34 15  1  0
  3 35  1  6
M  CHG  1   3   1
M  END
>  <b_m_subgroup_collapsed>  (373) 
0

>  <r_i_docking_score>  (373) 
-8.1364853523927803

>  <s_m_subgroup_title>  (373) 
glide-dock_SP_D22_pv

>  <s_m_subgroupid>  (373) 
glide-dock_SP_D22_pv

>  <Molecule ChEMBL ID>  (373) 
CHEMBL134571

>  <Standard Type>  (373) 
Ki

>  <Standard Value>  (373) 
2.5

>  <label>  (373) 
1

$$$$
CHEMBL57019
     RDKit          3D

 54 57  0  0  1  0  0  0  0  0999 V2000
   12.4850    5.5239  -14.2455 C   0  0  0  0  0  0  0  0  0  0  0  0
   11.1791    5.1265  -13.8566 O   0  0  0  0  0  0  0  0  0  0  0  0
   10.6322    3.9842  -14.4109 C   0  0  0  0  0  0  0  0  0  0  0  0
   11.3387    3.1886  -15.3490 C   0  0  0  0  0  0  0  0  0  0  0  0
   10.7491    2.0510  -15.9286 C   0  0  0  0  0  0  0  0  0  0  0  0
   11.4641    1.2837  -16.8708 C   0  0  0  0  0  0  0  0  0  0  0  0
   10.8726    0.1451  -17.4502 C   0  0  0  0  0  0  0  0  0  0  0  0
    9.5642   -0.2275  -17.0871 C   0  0  0  0  0  0  0  0  0  0  0  0
    8.8446    0.5381  -16.1488 C   0  0  0  0  0  0  0  0  0  0  0  0
    9.4333    1.6817  -15.5715 C   0  0  0  0  0  0  0  0  0  0  0  0
    8.7189    2.4641  -14.6467 C   0  0  0  0  0  0  0  0  0  0  0  0
    9.3028    3.6096  -14.0589 C   0  0  0  0  0  0  0  0  0  0  0  0
    8.4497    4.4098  -13.1306 C   0  0  0  0  0  0  0  0  0  0  0  0
    7.2228    4.4740  -13.2307 O   0  0  0  0  0  0  0  0  0  0  0  0
    9.1493    5.0424  -12.1741 O   0  0  0  0  0  0  0  0  0  0  0  0
    8.5321    6.0623  -11.4103 C   0  0  0  0  0  0  0  0  0  0  0  0
    9.5966    6.7406  -10.5239 C   0  0  1  0  0  0  0  0  0  0  0  0
    9.3948    8.2645  -10.4448 C   0  0  0  0  0  0  0  0  0  0  0  0
    9.2962    8.5826   -8.9584 C   0  0  0  0  0  0  0  0  0  0  0  0
    8.8861    7.3206   -8.3201 N   0  0  2  0  0  0  0  0  0  0  0  0
    8.9061    7.2470   -6.8352 C   0  0  0  0  0  0  0  0  0  0  0  0
   10.1610    7.7122   -6.0856 C   0  0  0  0  0  0  0  0  0  0  0  0
   10.4882    9.0807   -6.0280 C   0  0  0  0  0  0  0  0  0  0  0  0
   11.4722    9.5618   -5.1446 C   0  0  0  0  0  0  0  0  0  0  0  0
   12.1383    8.6705   -4.2850 C   0  0  0  0  0  0  0  0  0  0  0  0
   11.8448    7.2962   -4.3485 C   0  0  0  0  0  0  0  0  0  0  0  0
   10.8857    6.8211   -5.2650 C   0  0  0  0  0  0  0  0  0  0  0  0
    9.5636    6.2458   -9.0631 C   0  0  0  0  0  0  0  0  0  0  0  0
   12.7520    6.4382  -13.7168 H   0  0  0  0  0  0  0  0  0  0  0  0
   13.2264    4.7666  -13.9887 H   0  0  0  0  0  0  0  0  0  0  0  0
   12.5342    5.7339  -15.3143 H   0  0  0  0  0  0  0  0  0  0  0  0
   12.3446    3.4352  -15.6518 H   0  0  0  0  0  0  0  0  0  0  0  0
   12.4719    1.5584  -17.1465 H   0  0  0  0  0  0  0  0  0  0  0  0
   11.4232   -0.4409  -18.1713 H   0  0  0  0  0  0  0  0  0  0  0  0
    9.1090   -1.1018  -17.5300 H   0  0  0  0  0  0  0  0  0  0  0  0
    7.8413    0.2432  -15.8780 H   0  0  0  0  0  0  0  0  0  0  0  0
    7.7088    2.1795  -14.3884 H   0  0  0  0  0  0  0  0  0  0  0  0
    7.7072    5.6668  -10.8140 H   0  0  0  0  0  0  0  0  0  0  0  0
    8.1038    6.7856  -12.1054 H   0  0  0  0  0  0  0  0  0  0  0  0
   10.5850    6.5586  -10.9467 H   0  0  0  0  0  0  0  0  0  0  0  0
    8.4861    8.5806  -10.9557 H   0  0  0  0  0  0  0  0  0  0  0  0
   10.2199    8.8028  -10.9126 H   0  0  0  0  0  0  0  0  0  0  0  0
    8.5893    9.3832   -8.7454 H   0  0  0  0  0  0  0  0  0  0  0  0
   10.2888    8.8822   -8.6254 H   0  0  0  0  0  0  0  0  0  0  0  0
    8.6444    6.2333   -6.5291 H   0  0  0  0  0  0  0  0  0  0  0  0
    8.0856    7.8765   -6.4893 H   0  0  0  0  0  0  0  0  0  0  0  0
    9.9439    9.7725   -6.6382 H   0  0  0  0  0  0  0  0  0  0  0  0
   11.6858   10.6178   -5.1065 H   0  0  0  0  0  0  0  0  0  0  0  0
   12.8781    9.0368   -3.5872 H   0  0  0  0  0  0  0  0  0  0  0  0
   12.3513    6.6030   -3.6930 H   0  0  0  0  0  0  0  0  0  0  0  0
   10.6491    5.7724   -5.2632 H   0  0  0  0  0  0  0  0  0  0  0  0
   10.5790    6.1293   -8.6797 H   0  0  0  0  0  0  0  0  0  0  0  0
    9.0543    5.2877   -8.9452 H   0  0  0  0  0  0  0  0  0  0  0  0
    7.8993    7.2308   -8.5586 H   0  0  0  0  0  0  0  0  0  0  0  0
  2  1  1  0
  3  2  1  0
  4  3  2  0
  5  4  1  0
  6  5  2  0
  7  6  1  0
  8  7  2  0
  9  8  1  0
 10  5  1  0
 10  9  2  0
 11 10  1  0
 12  3  1  0
 12 11  2  0
 13 12  1  0
 14 13  2  0
 15 13  1  0
 16 15  1  0
 17 16  1  0
 18 17  1  0
 19 18  1  0
 20 19  1  0
 21 20  1  0
 22 21  1  0
 23 22  2  0
 24 23  1  0
 25 24  2  0
 26 25  1  0
 27 22  1  0
 27 26  2  0
 28 17  1  0
 28 20  1  0
 29  1  1  0
 30  1  1  0
 31  1  1  0
 32  4  1  0
 33  6  1  0
 34  7  1  0
 35  8  1  0
 36  9  1  0
 37 11  1  0
 38 16  1  0
 39 16  1  0
 17 40  1  6
 41 18  1  0
 42 18  1  0
 43 19  1  0
 44 19  1  0
 45 21  1  0
 46 21  1  0
 47 23  1  0
 48 24  1  0
 49 25  1  0
 50 26  1  0
 51 27  1  0
 52 28  1  0
 53 28  1  0
 20 54  1  6
M  CHG  1  20   1
M  END
>  <b_m_subgroup_collapsed>  (374) 
0

>  <r_i_docking_score>  (374) 
-8.13618316704442

>  <s_m_subgroup_title>  (374) 
glide-dock_SP_D22_pv

>  <s_m_subgroupid>  (374) 
glide-dock_SP_D22_pv

>  <Molecule ChEMBL ID>  (374) 
CHEMBL57019

>  <Standard Type>  (374) 
Ki

>  <Standard Value>  (374) 
10000.0

>  <label>  (374) 
0

$$$$
CHEMBL564741
     RDKit          3D

 54 57  0  0  1  0  0  0  0  0999 V2000
    7.2775    4.7760  -12.6087 C   0  0  0  0  0  0  0  0  0  0  0  0
    8.4692    5.6907  -12.9662 C   0  0  2  0  0  0  0  0  0  0  0  0
    9.6535    4.9800  -13.6381 C   0  0  0  0  0  0  0  0  0  0  0  0
   10.9454    5.5583  -13.5976 C   0  0  0  0  0  0  0  0  0  0  0  0
   12.0261    4.9600  -14.2679 C   0  0  0  0  0  0  0  0  0  0  0  0
   11.8295    3.7721  -14.9930 C   0  0  0  0  0  0  0  0  0  0  0  0
   10.5552    3.1674  -15.0388 C   0  0  0  0  0  0  0  0  0  0  0  0
   10.3405    1.8704  -15.8068 C   0  0  0  0  0  0  0  0  0  0  0  0
   10.3787    0.8402  -14.9623 F   0  0  0  0  0  0  0  0  0  0  0  0
    9.1551    1.8836  -16.4168 F   0  0  0  0  0  0  0  0  0  0  0  0
   11.2843    1.6943  -16.7335 F   0  0  0  0  0  0  0  0  0  0  0  0
    9.4757    3.7760  -14.3624 C   0  0  0  0  0  0  0  0  0  0  0  0
    8.8599    6.5206  -11.8189 N   0  0  0  0  0  0  0  0  0  0  0  0
    8.8827    7.9706  -11.9357 C   0  0  0  0  0  0  0  0  0  0  0  0
    9.2646    8.4311  -10.5389 C   0  0  0  0  0  0  0  0  0  0  0  0
    9.4017    7.1809   -9.8155 N   0  0  0  0  0  0  0  0  0  0  0  0
    9.4975    7.1469   -8.3622 C   0  0  0  0  0  0  0  0  0  0  0  0
   10.2988    8.3258   -7.7914 C   0  0  0  0  0  0  0  0  0  0  0  0
   10.3430    8.2674   -6.3199 N   0  0  0  0  0  0  0  0  0  0  0  0
   10.8756    9.5010   -5.6735 C   0  0  0  0  0  0  0  0  0  0  0  0
   11.4967    8.9715   -4.4196 C   0  0  0  0  0  0  0  0  0  0  0  0
   11.8418    9.6810   -3.2585 C   0  0  0  0  0  0  0  0  0  0  0  0
   12.3682    8.9548   -2.1710 C   0  0  0  0  0  0  0  0  0  0  0  0
   12.4857    7.5487   -2.2461 C   0  0  0  0  0  0  0  0  0  0  0  0
   12.0876    6.8490   -3.4000 C   0  0  0  0  0  0  0  0  0  0  0  0
   11.6099    7.5937   -4.4836 C   0  0  0  0  0  0  0  0  0  0  0  0
   11.0429    7.0729   -5.7661 C   0  0  0  0  0  0  0  0  0  0  0  0
    9.1964    6.1050  -10.5866 C   0  0  0  0  0  0  0  0  0  0  0  0
    9.2861    4.9368  -10.2102 O   0  0  0  0  0  0  0  0  0  0  0  0
    6.8017    4.3647  -13.4987 H   0  0  0  0  0  0  0  0  0  0  0  0
    7.5778    3.9445  -11.9717 H   0  0  0  0  0  0  0  0  0  0  0  0
    6.5066    5.3353  -12.0762 H   0  0  0  0  0  0  0  0  0  0  0  0
    8.0863    6.3763  -13.7221 H   0  0  0  0  0  0  0  0  0  0  0  0
   11.1231    6.4837  -13.0692 H   0  0  0  0  0  0  0  0  0  0  0  0
   13.0050    5.4179  -14.2365 H   0  0  0  0  0  0  0  0  0  0  0  0
   12.6655    3.3246  -15.5091 H   0  0  0  0  0  0  0  0  0  0  0  0
    8.5066    3.3040  -14.4187 H   0  0  0  0  0  0  0  0  0  0  0  0
    9.6346    8.3000  -12.6469 H   0  0  0  0  0  0  0  0  0  0  0  0
    7.9078    8.3553  -12.2412 H   0  0  0  0  0  0  0  0  0  0  0  0
    8.4888    9.0609  -10.1008 H   0  0  0  0  0  0  0  0  0  0  0  0
   10.2101    8.9732  -10.5460 H   0  0  0  0  0  0  0  0  0  0  0  0
    9.9491    6.2010   -8.0580 H   0  0  0  0  0  0  0  0  0  0  0  0
    8.4861    7.1521   -7.9562 H   0  0  0  0  0  0  0  0  0  0  0  0
    9.8265    9.2687   -8.0693 H   0  0  0  0  0  0  0  0  0  0  0  0
   11.3121    8.3372   -8.1970 H   0  0  0  0  0  0  0  0  0  0  0  0
   10.0880   10.2171   -5.4465 H   0  0  0  0  0  0  0  0  0  0  0  0
   11.6434    9.9838   -6.2816 H   0  0  0  0  0  0  0  0  0  0  0  0
   11.6860   10.7451   -3.1781 H   0  0  0  0  0  0  0  0  0  0  0  0
   12.6545    9.4731   -1.2670 H   0  0  0  0  0  0  0  0  0  0  0  0
   12.8853    6.9952   -1.4125 H   0  0  0  0  0  0  0  0  0  0  0  0
   12.1510    5.7745   -3.4471 H   0  0  0  0  0  0  0  0  0  0  0  0
   11.8463    6.7262   -6.4162 H   0  0  0  0  0  0  0  0  0  0  0  0
   10.3473    6.2510   -5.5910 H   0  0  0  0  0  0  0  0  0  0  0  0
    9.3862    8.1861   -6.0045 H   0  0  0  0  0  0  0  0  0  0  0  0
  2  1  1  0
  3  2  1  0
  4  3  2  0
  5  4  1  0
  6  5  2  0
  7  6  1  0
  8  7  1  0
  9  8  1  0
 10  8  1  0
 11  8  1  0
 12  3  1  0
 12  7  2  0
 13  2  1  0
 14 13  1  0
 15 14  1  0
 16 15  1  0
 17 16  1  0
 18 17  1  0
 19 18  1  0
 20 19  1  0
 21 20  1  0
 22 21  2  0
 23 22  1  0
 24 23  2  0
 25 24  1  0
 26 21  1  0
 26 25  2  0
 27 19  1  0
 27 26  1  0
 28 13  1  0
 28 16  1  0
 29 28  2  0
 30  1  1  0
 31  1  1  0
 32  1  1  0
  2 33  1  6
 34  4  1  0
 35  5  1  0
 36  6  1  0
 37 12  1  0
 38 14  1  0
 39 14  1  0
 40 15  1  0
 41 15  1  0
 42 17  1  0
 43 17  1  0
 44 18  1  0
 45 18  1  0
 46 20  1  0
 47 20  1  0
 48 22  1  0
 49 23  1  0
 50 24  1  0
 51 25  1  0
 52 27  1  0
 53 27  1  0
 54 19  1  0
M  CHG  1  19   1
M  END
>  <b_m_subgroup_collapsed>  (375) 
0

>  <r_i_docking_score>  (375) 
-8.1353115511308403

>  <s_m_subgroup_title>  (375) 
glide-dock_SP_D22_pv

>  <s_m_subgroupid>  (375) 
glide-dock_SP_D22_pv

>  <Molecule ChEMBL ID>  (375) 
CHEMBL564741

>  <Standard Type>  (375) 
Ki

>  <Standard Value>  (375) 
10000.0

>  <label>  (375) 
0

$$$$
CHEMBL352182
     RDKit          3D

 59 63  0  0  1  0  0  0  0  0999 V2000
   11.4657   10.6765   -6.2468 N   0  0  0  0  0  0  0  0  0  0  0  0
   11.3899    9.3696   -5.7809 C   0  0  0  0  0  0  0  0  0  0  0  0
   11.8695    9.1160   -4.4860 C   0  0  0  0  0  0  0  0  0  0  0  0
   11.8216    7.8154   -3.9750 C   0  0  0  0  0  0  0  0  0  0  0  0
   12.4817    7.4829   -2.2450 Br  0  0  0  0  0  0  0  0  0  0  0  0
   11.2860    6.7620   -4.7282 C   0  0  0  0  0  0  0  0  0  0  0  0
   10.8141    7.0020   -6.0272 C   0  0  0  0  0  0  0  0  0  0  0  0
   10.8742    8.3034   -6.5604 C   0  0  0  0  0  0  0  0  0  0  0  0
   10.3854    8.4981   -7.9355 C   0  0  0  0  0  0  0  0  0  0  0  0
    9.2865    8.9723   -8.2016 O   0  0  0  0  0  0  0  0  0  0  0  0
   11.3768    8.0764   -9.0210 C   0  0  0  0  0  0  0  0  0  0  0  0
   11.1440    8.7005  -10.4118 C   0  0  0  0  0  0  0  0  0  0  0  0
    9.8326    8.3616  -11.1769 C   0  0  0  0  0  0  0  0  0  0  0  0
    9.8178    7.0661  -11.8935 N   0  0  1  0  0  0  0  0  0  0  0  0
   10.9346    6.8738  -12.8550 C   0  0  0  0  0  0  0  0  0  0  0  0
   10.6223    5.7001  -13.7910 C   0  0  0  0  0  0  0  0  0  0  0  0
   10.4908    4.4048  -12.9871 C   0  0  1  0  0  0  0  0  0  0  0  0
    9.5392    4.5839  -11.8004 C   0  0  1  0  0  0  0  0  0  0  0  0
    9.6404    5.8963  -11.0104 C   0  0  0  0  0  0  0  0  0  0  0  0
    8.2134    4.2875  -12.4291 C   0  0  0  0  0  0  0  0  0  0  0  0
    6.8998    4.5878  -12.0433 C   0  0  0  0  0  0  0  0  0  0  0  0
    5.8485    3.9742  -12.7471 C   0  0  0  0  0  0  0  0  0  0  0  0
    6.1181    3.0700  -13.8005 C   0  0  0  0  0  0  0  0  0  0  0  0
    7.4277    2.7721  -14.2474 C   0  0  0  0  0  0  0  0  0  0  0  0
    8.4428    3.4490  -13.5268 C   0  0  0  0  0  0  0  0  0  0  0  0
    9.8519    3.3468  -13.7614 N   0  0  0  0  0  0  0  0  0  0  0  0
   10.2990    3.0014  -15.1079 C   0  0  0  0  0  0  0  0  0  0  0  0
   10.4263    1.4853  -15.3254 C   0  0  0  0  0  0  0  0  0  0  0  0
    9.1712    0.6807  -14.9731 C   0  0  0  0  0  0  0  0  0  0  0  0
    7.6679    1.5407  -15.4916 S   0  0  0  0  0  0  0  0  0  0  0  0
   11.6848   11.4268   -5.6075 H   0  0  0  0  0  0  0  0  0  0  0  0
   10.9087   10.9531   -7.0434 H   0  0  0  0  0  0  0  0  0  0  0  0
   12.2797    9.9088   -3.8787 H   0  0  0  0  0  0  0  0  0  0  0  0
   11.2440    5.7723   -4.3041 H   0  0  0  0  0  0  0  0  0  0  0  0
   10.4055    6.1838   -6.6022 H   0  0  0  0  0  0  0  0  0  0  0  0
   12.3644    8.3934   -8.6802 H   0  0  0  0  0  0  0  0  0  0  0  0
   11.4308    6.9921   -9.0499 H   0  0  0  0  0  0  0  0  0  0  0  0
   11.1663    9.7727  -10.2463 H   0  0  0  0  0  0  0  0  0  0  0  0
   12.0185    8.5176  -11.0338 H   0  0  0  0  0  0  0  0  0  0  0  0
    8.9451    8.4360  -10.5505 H   0  0  0  0  0  0  0  0  0  0  0  0
    9.6856    9.1118  -11.9499 H   0  0  0  0  0  0  0  0  0  0  0  0
   11.1138    7.7726  -13.4427 H   0  0  0  0  0  0  0  0  0  0  0  0
   11.8647    6.6740  -12.3224 H   0  0  0  0  0  0  0  0  0  0  0  0
    9.7024    5.8545  -14.3522 H   0  0  0  0  0  0  0  0  0  0  0  0
   11.4176    5.6051  -14.5306 H   0  0  0  0  0  0  0  0  0  0  0  0
   11.4948    4.1720  -12.6600 H   0  0  0  0  0  0  0  0  0  0  0  0
    9.7118    3.7722  -11.0936 H   0  0  0  0  0  0  0  0  0  0  0  0
   10.4860    5.8055  -10.3437 H   0  0  0  0  0  0  0  0  0  0  0  0
    8.7686    6.0313  -10.3663 H   0  0  0  0  0  0  0  0  0  0  0  0
    6.6937    5.2312  -11.1987 H   0  0  0  0  0  0  0  0  0  0  0  0
    4.8302    4.1638  -12.4472 H   0  0  0  0  0  0  0  0  0  0  0  0
    5.2862    2.5566  -14.2452 H   0  0  0  0  0  0  0  0  0  0  0  0
    9.6340    3.4492  -15.8478 H   0  0  0  0  0  0  0  0  0  0  0  0
   11.2752    3.4493  -15.2873 H   0  0  0  0  0  0  0  0  0  0  0  0
   10.6810    1.3099  -16.3709 H   0  0  0  0  0  0  0  0  0  0  0  0
   11.2671    1.1033  -14.7469 H   0  0  0  0  0  0  0  0  0  0  0  0
    9.2080   -0.3024  -15.4451 H   0  0  0  0  0  0  0  0  0  0  0  0
    9.1154    0.5125  -13.8968 H   0  0  0  0  0  0  0  0  0  0  0  0
    8.9738    7.0968  -12.4494 H   0  0  0  0  0  0  0  0  0  0  0  0
  2  1  1  0
  3  2  1  0
  4  3  2  0
  5  4  1  0
  6  4  1  0
  7  6  2  0
  8  2  2  0
  8  7  1  0
  9  8  1  0
 10  9  2  0
 11  9  1  0
 12 11  1  0
 13 12  1  0
 14 13  1  0
 15 14  1  0
 16 15  1  0
 17 16  1  0
 18 17  1  0
 19 14  1  0
 19 18  1  0
 20 18  1  0
 21 20  2  0
 22 21  1  0
 23 22  2  0
 24 23  1  0
 25 20  1  0
 25 24  2  0
 26 17  1  0
 26 25  1  0
 27 26  1  0
 28 27  1  0
 29 28  1  0
 30 24  1  0
 30 29  1  0
 31  1  1  0
 32  1  1  0
 33  3  1  0
 34  6  1  0
 35  7  1  0
 36 11  1  0
 37 11  1  0
 38 12  1  0
 39 12  1  0
 40 13  1  0
 41 13  1  0
 42 15  1  0
 43 15  1  0
 44 16  1  0
 45 16  1  0
 17 46  1  1
 18 47  1  1
 48 19  1  0
 49 19  1  0
 50 21  1  0
 51 22  1  0
 52 23  1  0
 53 27  1  0
 54 27  1  0
 55 28  1  0
 56 28  1  0
 57 29  1  0
 58 29  1  0
 14 59  1  6
M  CHG  1  14   1
M  END
>  <b_m_subgroup_collapsed>  (376) 
0

>  <r_i_docking_score>  (376) 
-8.1347060382690195

>  <s_m_subgroup_title>  (376) 
glide-dock_SP_D22_pv

>  <s_m_subgroupid>  (376) 
glide-dock_SP_D22_pv

>  <Molecule ChEMBL ID>  (376) 
CHEMBL352182

>  <Standard Type>  (376) 
Ki

>  <Standard Value>  (376) 
4.7

>  <label>  (376) 
1

$$$$
CHEMBL4572887
     RDKit          3D

 59 62  0  0  1  0  0  0  0  0999 V2000
   12.8860    8.9723   -1.4869 N   0  0  0  0  0  0  0  0  0  0  0  0
   12.3876    8.6690   -2.7320 C   0  0  0  0  0  0  0  0  0  0  0  0
   12.0860    9.5680   -3.6707 N   0  0  0  0  0  0  0  0  0  0  0  0
   11.4979    8.9722   -4.7872 C   0  0  0  0  0  0  0  0  0  0  0  0
   11.3326    7.6280   -4.6469 C   0  0  0  0  0  0  0  0  0  0  0  0
   12.0835    7.0140   -3.1969 S   0  0  0  0  0  0  0  0  0  0  0  0
   10.5922    6.7504   -5.5654 C   0  0  0  0  0  0  0  0  0  0  0  0
   11.1167    6.7238   -7.0000 C   0  0  0  0  0  0  0  0  0  0  0  0
   10.7569    7.9512   -7.7661 N   0  0  2  0  0  0  0  0  0  0  0  0
   10.8688    7.7737   -9.2434 C   0  0  0  0  0  0  0  0  0  0  0  0
   10.0258    6.6128   -9.8068 C   0  0  0  0  0  0  0  0  0  0  0  0
    9.9816    6.5853  -11.3369 C   0  0  0  0  0  0  0  0  0  0  0  0
    9.4508    5.2401  -11.8481 C   0  0  0  0  0  0  0  0  0  0  0  0
    9.4407    5.2579  -13.3074 N   0  0  0  0  0  0  0  0  0  0  0  0
   10.1057    4.1048  -13.9231 C   0  0  0  0  0  0  0  0  0  0  0  0
    9.3063    2.8060  -13.7089 C   0  0  0  0  0  0  0  0  0  0  0  0
    7.9389    2.9683  -14.1930 N   0  0  0  0  0  0  0  0  0  0  0  0
    7.2787    1.8397  -14.7175 C   0  0  0  0  0  0  0  0  0  0  0  0
    7.8532    1.2644  -15.8727 C   0  0  0  0  0  0  0  0  0  0  0  0
    7.2619    0.1602  -16.5065 C   0  0  0  0  0  0  0  0  0  0  0  0
    6.0859   -0.3988  -15.9823 C   0  0  0  0  0  0  0  0  0  0  0  0
    5.5012    0.1459  -14.8259 C   0  0  0  0  0  0  0  0  0  0  0  0
    4.0270   -0.5495  -14.2469 Cl  0  0  0  0  0  0  0  0  0  0  0  0
    6.0860    1.2640  -14.1819 C   0  0  0  0  0  0  0  0  0  0  0  0
    5.2868    1.8896  -12.7721 Cl  0  0  0  0  0  0  0  0  0  0  0  0
    7.2290    4.1230  -13.6610 C   0  0  0  0  0  0  0  0  0  0  0  0
    8.0861    5.3978  -13.8469 C   0  0  0  0  0  0  0  0  0  0  0  0
   11.4846    9.1809   -7.3255 C   0  0  0  0  0  0  0  0  0  0  0  0
   11.0292    9.7588   -5.9662 C   0  0  0  0  0  0  0  0  0  0  0  0
   13.2810    9.9032   -1.3633 H   0  0  0  0  0  0  0  0  0  0  0  0
   13.2795    8.2495   -0.9054 H   0  0  0  0  0  0  0  0  0  0  0  0
   10.6496    5.7723   -5.1325 H   0  0  0  0  0  0  0  0  0  0  0  0
    9.5330    7.0087   -5.5583 H   0  0  0  0  0  0  0  0  0  0  0  0
   10.6444    5.8479   -7.4351 H   0  0  0  0  0  0  0  0  0  0  0  0
   12.1879    6.5358   -7.0435 H   0  0  0  0  0  0  0  0  0  0  0  0
   11.9167    7.6365   -9.5159 H   0  0  0  0  0  0  0  0  0  0  0  0
   10.5395    8.6923   -9.7319 H   0  0  0  0  0  0  0  0  0  0  0  0
    9.0058    6.6576   -9.4200 H   0  0  0  0  0  0  0  0  0  0  0  0
   10.4450    5.6595   -9.4895 H   0  0  0  0  0  0  0  0  0  0  0  0
   10.9810    6.7516  -11.7409 H   0  0  0  0  0  0  0  0  0  0  0  0
    9.3578    7.4030  -11.7018 H   0  0  0  0  0  0  0  0  0  0  0  0
    8.4590    5.0519  -11.4360 H   0  0  0  0  0  0  0  0  0  0  0  0
   10.0861    4.4340  -11.4814 H   0  0  0  0  0  0  0  0  0  0  0  0
   11.1149    4.0032  -13.5223 H   0  0  0  0  0  0  0  0  0  0  0  0
   10.2152    4.2933  -14.9918 H   0  0  0  0  0  0  0  0  0  0  0  0
    9.2865    2.5723  -12.6471 H   0  0  0  0  0  0  0  0  0  0  0  0
    9.8093    1.9731  -14.2006 H   0  0  0  0  0  0  0  0  0  0  0  0
    8.7525    1.6874  -16.2966 H   0  0  0  0  0  0  0  0  0  0  0  0
    7.7121   -0.2638  -17.3920 H   0  0  0  0  0  0  0  0  0  0  0  0
    5.6309   -1.2501  -16.4682 H   0  0  0  0  0  0  0  0  0  0  0  0
    6.2742    4.2423  -14.1745 H   0  0  0  0  0  0  0  0  0  0  0  0
    7.0086    3.9635  -12.6059 H   0  0  0  0  0  0  0  0  0  0  0  0
    7.5993    6.2602  -13.3901 H   0  0  0  0  0  0  0  0  0  0  0  0
    8.1804    5.6153  -14.9097 H   0  0  0  0  0  0  0  0  0  0  0  0
   12.5639    9.0177   -7.3405 H   0  0  0  0  0  0  0  0  0  0  0  0
   11.2860    9.9544   -8.0647 H   0  0  0  0  0  0  0  0  0  0  0  0
   11.3617   10.7945   -5.8811 H   0  0  0  0  0  0  0  0  0  0  0  0
    9.9437    9.7723   -5.9467 H   0  0  0  0  0  0  0  0  0  0  0  0
    9.7733    8.1146   -7.5967 H   0  0  0  0  0  0  0  0  0  0  0  0
  2  1  1  0
  3  2  2  0
  4  3  1  0
  5  4  2  0
  6  2  1  0
  6  5  1  0
  7  5  1  0
  8  7  1  0
  9  8  1  0
 10  9  1  0
 11 10  1  0
 12 11  1  0
 13 12  1  0
 14 13  1  0
 15 14  1  0
 16 15  1  0
 17 16  1  0
 18 17  1  0
 19 18  2  0
 20 19  1  0
 21 20  2  0
 22 21  1  0
 23 22  1  0
 24 18  1  0
 24 22  2  0
 25 24  1  0
 26 17  1  0
 27 14  1  0
 27 26  1  0
 28  9  1  0
 29  4  1  0
 29 28  1  0
 30  1  1  0
 31  1  1  0
 32  7  1  0
 33  7  1  0
 34  8  1  0
 35  8  1  0
 36 10  1  0
 37 10  1  0
 38 11  1  0
 39 11  1  0
 40 12  1  0
 41 12  1  0
 42 13  1  0
 43 13  1  0
 44 15  1  0
 45 15  1  0
 46 16  1  0
 47 16  1  0
 48 19  1  0
 49 20  1  0
 50 21  1  0
 51 26  1  0
 52 26  1  0
 53 27  1  0
 54 27  1  0
 55 28  1  0
 56 28  1  0
 57 29  1  0
 58 29  1  0
  9 59  1  6
M  CHG  1   9   1
M  END
>  <b_m_subgroup_collapsed>  (377) 
0

>  <r_i_docking_score>  (377) 
-8.1339684159919994

>  <s_m_subgroup_title>  (377) 
glide-dock_SP_D22_pv

>  <s_m_subgroupid>  (377) 
glide-dock_SP_D22_pv

>  <Molecule ChEMBL ID>  (377) 
CHEMBL4572887

>  <Standard Type>  (377) 
Ki

>  <Standard Value>  (377) 
22.39

>  <label>  (377) 
1

$$$$
CHEMBL4291172
     RDKit          3D

 53 55  0  0  1  0  0  0  0  0999 V2000
    4.0571   -0.8086  -14.4746 C   0  0  0  0  0  0  0  0  0  0  0  0
    5.4778   -0.7475  -14.5253 O   0  0  0  0  0  0  0  0  0  0  0  0
    6.0668    0.4705  -14.2631 C   0  0  0  0  0  0  0  0  0  0  0  0
    5.4538    1.4782  -13.4757 C   0  0  0  0  0  0  0  0  0  0  0  0
    6.0868    2.7248  -13.2850 C   0  0  0  0  0  0  0  0  0  0  0  0
    7.3620    2.9658  -13.8469 C   0  0  0  0  0  0  0  0  0  0  0  0
    7.9757    1.9614  -14.6195 C   0  0  0  0  0  0  0  0  0  0  0  0
    7.3435    0.7196  -14.8146 C   0  0  0  0  0  0  0  0  0  0  0  0
    7.9907   -0.2276  -15.5555 O   0  0  0  0  0  0  0  0  0  0  0  0
    8.1184    4.2597  -13.5817 C   0  0  0  0  0  0  0  0  0  0  0  0
    7.5904    5.0298  -12.4242 N   0  0  1  0  0  0  0  0  0  0  0  0
    8.2454    6.3552  -12.2833 C   0  0  0  0  0  0  0  0  0  0  0  0
    9.6965    6.3158  -11.7647 C   0  0  0  0  0  0  0  0  0  0  0  0
    9.8632    6.0458  -10.2547 C   0  0  0  0  0  0  0  0  0  0  0  0
    9.0573    6.9836   -9.3408 C   0  0  0  0  0  0  0  0  0  0  0  0
    9.6782    7.1602   -8.0337 N   0  0  0  0  0  0  0  0  0  0  0  0
   10.5383    8.1462   -7.7405 C   0  0  0  0  0  0  0  0  0  0  0  0
   10.9299    8.9722   -8.5636 O   0  0  0  0  0  0  0  0  0  0  0  0
   10.9612    8.2352   -6.3051 C   0  0  0  0  0  0  0  0  0  0  0  0
   11.1355    9.5015   -5.7038 C   0  0  0  0  0  0  0  0  0  0  0  0
   11.5732    9.5999   -4.3695 C   0  0  0  0  0  0  0  0  0  0  0  0
   11.8639    8.4345   -3.6360 C   0  0  0  0  0  0  0  0  0  0  0  0
   12.4860    8.5722   -1.8469 Br  0  0  0  0  0  0  0  0  0  0  0  0
   11.6866    7.1683   -4.2250 C   0  0  0  0  0  0  0  0  0  0  0  0
   11.2379    7.0684   -5.5558 C   0  0  0  0  0  0  0  0  0  0  0  0
    6.1114    5.1445  -12.4954 C   0  0  0  0  0  0  0  0  0  0  0  0
    5.4483    3.7626  -12.3884 C   0  0  0  0  0  0  0  0  0  0  0  0
    3.7256   -1.7439  -14.9260 H   0  0  0  0  0  0  0  0  0  0  0  0
    3.6885   -0.7865  -13.4494 H   0  0  0  0  0  0  0  0  0  0  0  0
    3.5978    0.0064  -15.0364 H   0  0  0  0  0  0  0  0  0  0  0  0
    4.4884    1.3129  -13.0220 H   0  0  0  0  0  0  0  0  0  0  0  0
    8.9552    2.1272  -15.0443 H   0  0  0  0  0  0  0  0  0  0  0  0
    7.6852   -1.1282  -15.4504 H   0  0  0  0  0  0  0  0  0  0  0  0
    9.1649    4.0116  -13.4032 H   0  0  0  0  0  0  0  0  0  0  0  0
    8.0852    4.8695  -14.4861 H   0  0  0  0  0  0  0  0  0  0  0  0
    8.1933    6.8726  -13.2402 H   0  0  0  0  0  0  0  0  0  0  0  0
    7.6860    6.9722  -11.6000 H   0  0  0  0  0  0  0  0  0  0  0  0
   10.3023    5.6134  -12.3366 H   0  0  0  0  0  0  0  0  0  0  0  0
   10.1361    7.2937  -11.9631 H   0  0  0  0  0  0  0  0  0  0  0  0
    9.6223    5.0088  -10.0199 H   0  0  0  0  0  0  0  0  0  0  0  0
   10.9146    6.1730  -10.0150 H   0  0  0  0  0  0  0  0  0  0  0  0
    8.8879    7.9544   -9.8092 H   0  0  0  0  0  0  0  0  0  0  0  0
    8.0808    6.5458   -9.1711 H   0  0  0  0  0  0  0  0  0  0  0  0
    9.3625    6.5644   -7.2837 H   0  0  0  0  0  0  0  0  0  0  0  0
   10.9301   10.4024   -6.2644 H   0  0  0  0  0  0  0  0  0  0  0  0
   11.6858   10.5706   -3.9068 H   0  0  0  0  0  0  0  0  0  0  0  0
   11.9042    6.2730   -3.6592 H   0  0  0  0  0  0  0  0  0  0  0  0
   11.1281    6.0899   -6.0002 H   0  0  0  0  0  0  0  0  0  0  0  0
    5.8277    5.6163  -13.4390 H   0  0  0  0  0  0  0  0  0  0  0  0
    5.7324    5.7836  -11.6952 H   0  0  0  0  0  0  0  0  0  0  0  0
    4.3926    3.8343  -12.6469 H   0  0  0  0  0  0  0  0  0  0  0  0
    5.5064    3.3956  -11.3652 H   0  0  0  0  0  0  0  0  0  0  0  0
    7.7901    4.5072  -11.5829 H   0  0  0  0  0  0  0  0  0  0  0  0
  2  1  1  0
  3  2  1  0
  4  3  2  0
  5  4  1  0
  6  5  2  0
  7  6  1  0
  8  3  1  0
  8  7  2  0
  9  8  1  0
 10  6  1  0
 11 10  1  0
 12 11  1  0
 13 12  1  0
 14 13  1  0
 15 14  1  0
 16 15  1  0
 17 16  1  0
 18 17  2  0
 19 17  1  0
 20 19  1  0
 21 20  2  0
 22 21  1  0
 23 22  1  0
 24 22  2  0
 25 19  2  0
 25 24  1  0
 26 11  1  0
 27  5  1  0
 27 26  1  0
 28  1  1  0
 29  1  1  0
 30  1  1  0
 31  4  1  0
 32  7  1  0
 33  9  1  0
 34 10  1  0
 35 10  1  0
 36 12  1  0
 37 12  1  0
 38 13  1  0
 39 13  1  0
 40 14  1  0
 41 14  1  0
 42 15  1  0
 43 15  1  0
 44 16  1  0
 45 20  1  0
 46 21  1  0
 47 24  1  0
 48 25  1  0
 49 26  1  0
 50 26  1  0
 51 27  1  0
 52 27  1  0
 11 53  1  1
M  CHG  1  11   1
M  END
>  <b_m_subgroup_collapsed>  (378) 
0

>  <r_i_docking_score>  (378) 
-8.1300006957476398

>  <s_m_subgroup_title>  (378) 
glide-dock_SP_D22_pv

>  <s_m_subgroupid>  (378) 
glide-dock_SP_D22_pv

>  <Molecule ChEMBL ID>  (378) 
CHEMBL4291172

>  <Standard Type>  (378) 
Ki

>  <Standard Value>  (378) 
10000.0

>  <label>  (378) 
0

$$$$
CHEMBL4645793
     RDKit          3D

 61 64  0  0  1  0  0  0  0  0999 V2000
    4.7523   -0.4869  -14.3928 O   0  0  0  0  0  0  0  0  0  0  0  0
    5.4681   -0.2700  -15.3721 C   0  0  0  0  0  0  0  0  0  0  0  0
    6.6524    0.3586  -15.3066 N   0  0  0  0  0  0  0  0  0  0  0  0
    7.0766    1.1979  -14.1941 C   0  0  0  0  0  0  0  0  0  0  0  0
    6.9487    2.6788  -14.6007 C   0  0  0  0  0  0  0  0  0  0  0  0
    6.7363    3.6429  -13.4271 C   0  0  0  0  0  0  0  0  0  0  0  0
    8.0394    4.1808  -12.8351 C   0  0  0  0  0  0  0  0  0  0  0  0
    7.7989    4.9274  -11.5204 C   0  0  0  0  0  0  0  0  0  0  0  0
    9.1121    5.4465  -10.9397 C   0  0  0  0  0  0  0  0  0  0  0  0
    8.8860    6.1973   -9.6825 N   0  0  0  0  0  0  0  0  0  0  0  0
    9.3922    5.4721   -8.4838 C   0  0  0  0  0  0  0  0  0  0  0  0
    9.2482    6.2903   -7.1849 C   0  0  0  0  0  0  0  0  0  0  0  0
    9.7875    7.6272   -7.3583 N   0  0  0  0  0  0  0  0  0  0  0  0
   10.7463    8.2742   -6.5304 C   0  0  0  0  0  0  0  0  0  0  0  0
   11.1832    9.4282   -6.9809 N   0  0  0  0  0  0  0  0  0  0  0  0
   12.0860   10.2012   -5.8469 S   0  0  0  0  0  0  0  0  0  0  0  0
   11.9802    8.9548   -4.6539 C   0  0  0  0  0  0  0  0  0  0  0  0
   12.4860    8.9679   -3.3441 C   0  0  0  0  0  0  0  0  0  0  0  0
   12.3936    7.8168   -2.5544 C   0  0  0  0  0  0  0  0  0  0  0  0
   11.8131    6.6659   -3.1036 C   0  0  0  0  0  0  0  0  0  0  0  0
   11.2850    6.6815   -4.4125 C   0  0  0  0  0  0  0  0  0  0  0  0
   11.2864    7.8449   -5.2283 C   0  0  0  0  0  0  0  0  0  0  0  0
    9.1480    8.3377   -8.4671 C   0  0  0  0  0  0  0  0  0  0  0  0
    9.3883    7.5879   -9.7756 C   0  0  0  0  0  0  0  0  0  0  0  0
    5.0360   -0.6684  -16.7533 C   0  0  0  0  0  0  0  0  0  0  0  0
    4.2992   -1.8544  -16.9468 C   0  0  0  0  0  0  0  0  0  0  0  0
    3.8317   -2.2080  -18.2281 C   0  0  0  0  0  0  0  0  0  0  0  0
    4.0862   -1.3674  -19.3275 C   0  0  0  0  0  0  0  0  0  0  0  0
    4.8126   -0.1757  -19.1442 C   0  0  0  0  0  0  0  0  0  0  0  0
    5.2860    0.1728  -17.8638 C   0  0  0  0  0  0  0  0  0  0  0  0
    7.1987    0.4046  -16.1531 H   0  0  0  0  0  0  0  0  0  0  0  0
    6.4805    0.9860  -13.3043 H   0  0  0  0  0  0  0  0  0  0  0  0
    8.1080    0.9616  -13.9312 H   0  0  0  0  0  0  0  0  0  0  0  0
    7.8112    2.9732  -15.1982 H   0  0  0  0  0  0  0  0  0  0  0  0
    6.0940    2.8044  -15.2565 H   0  0  0  0  0  0  0  0  0  0  0  0
    6.1451    4.4937  -13.7709 H   0  0  0  0  0  0  0  0  0  0  0  0
    6.1312    3.1633  -12.6569 H   0  0  0  0  0  0  0  0  0  0  0  0
    8.7480    3.3722  -12.6647 H   0  0  0  0  0  0  0  0  0  0  0  0
    8.5116    4.8444  -13.5599 H   0  0  0  0  0  0  0  0  0  0  0  0
    7.1108    5.7589  -11.6869 H   0  0  0  0  0  0  0  0  0  0  0  0
    7.3187    4.2608  -10.8032 H   0  0  0  0  0  0  0  0  0  0  0  0
    9.7954    4.6123  -10.7745 H   0  0  0  0  0  0  0  0  0  0  0  0
    9.5985    6.0795  -11.6830 H   0  0  0  0  0  0  0  0  0  0  0  0
    8.8679    4.5201   -8.3838 H   0  0  0  0  0  0  0  0  0  0  0  0
   10.4487    5.2387   -8.6310 H   0  0  0  0  0  0  0  0  0  0  0  0
    8.1965    6.3698   -6.9018 H   0  0  0  0  0  0  0  0  0  0  0  0
    9.7507    5.7723   -6.3856 H   0  0  0  0  0  0  0  0  0  0  0  0
   12.9638    9.8522   -2.9570 H   0  0  0  0  0  0  0  0  0  0  0  0
   12.7848    7.8100   -1.5477 H   0  0  0  0  0  0  0  0  0  0  0  0
   11.7497    5.7723   -2.5039 H   0  0  0  0  0  0  0  0  0  0  0  0
   10.8333    5.7725   -4.7529 H   0  0  0  0  0  0  0  0  0  0  0  0
    8.0860    8.3998   -8.2465 H   0  0  0  0  0  0  0  0  0  0  0  0
    9.4627    9.3720   -8.5907 H   0  0  0  0  0  0  0  0  0  0  0  0
   10.4555    7.5842  -10.0052 H   0  0  0  0  0  0  0  0  0  0  0  0
    8.8870    8.1056  -10.5939 H   0  0  0  0  0  0  0  0  0  0  0  0
    4.0860   -2.5065  -16.1110 H   0  0  0  0  0  0  0  0  0  0  0  0
    3.2662   -3.1216  -18.3534 H   0  0  0  0  0  0  0  0  0  0  0  0
    3.7173   -1.6320  -20.3078 H   0  0  0  0  0  0  0  0  0  0  0  0
    4.9955    0.4764  -19.9846 H   0  0  0  0  0  0  0  0  0  0  0  0
    5.8164    1.1060  -17.7392 H   0  0  0  0  0  0  0  0  0  0  0  0
    7.8834    6.3116   -9.5722 H   0  0  0  0  0  0  0  0  0  0  0  0
  2  1  2  0
  3  2  1  0
  4  3  1  0
  5  4  1  0
  6  5  1  0
  7  6  1  0
  8  7  1  0
  9  8  1  0
 10  9  1  0
 11 10  1  0
 12 11  1  0
 13 12  1  0
 14 13  1  0
 15 14  2  0
 16 15  1  0
 17 16  1  0
 18 17  2  0
 19 18  1  0
 20 19  2  0
 21 20  1  0
 22 14  1  0
 22 17  1  0
 22 21  2  0
 23 13  1  0
 24 10  1  0
 24 23  1  0
 25  2  1  0
 26 25  2  0
 27 26  1  0
 28 27  2  0
 29 28  1  0
 30 25  1  0
 30 29  2  0
 31  3  1  0
 32  4  1  0
 33  4  1  0
 34  5  1  0
 35  5  1  0
 36  6  1  0
 37  6  1  0
 38  7  1  0
 39  7  1  0
 40  8  1  0
 41  8  1  0
 42  9  1  0
 43  9  1  0
 44 11  1  0
 45 11  1  0
 46 12  1  0
 47 12  1  0
 48 18  1  0
 49 19  1  0
 50 20  1  0
 51 21  1  0
 52 23  1  0
 53 23  1  0
 54 24  1  0
 55 24  1  0
 56 26  1  0
 57 27  1  0
 58 28  1  0
 59 29  1  0
 60 30  1  0
 61 10  1  0
M  CHG  1  10   1
M  END
>  <b_m_subgroup_collapsed>  (379) 
0

>  <r_i_docking_score>  (379) 
-8.1266186691996491

>  <s_m_subgroup_title>  (379) 
glide-dock_SP_D22_pv

>  <s_m_subgroupid>  (379) 
glide-dock_SP_D22_pv

>  <Molecule ChEMBL ID>  (379) 
CHEMBL4645793

>  <Standard Type>  (379) 
Ki

>  <Standard Value>  (379) 
14.0

>  <label>  (379) 
1

$$$$
CHEMBL160626
     RDKit          3D

 44 47  0  0  1  0  0  0  0  0999 V2000
    8.5112    1.4308  -14.9656 N   0  0  0  0  0  0  0  0  0  0  0  0
    9.0932    2.3751  -14.6361 C   0  0  0  0  0  0  0  0  0  0  0  0
    9.8309    3.5630  -14.2245 C   0  0  0  0  0  0  0  0  0  0  0  0
   11.1383    3.7340  -14.6277 C   0  0  0  0  0  0  0  0  0  0  0  0
   11.8663    4.8845  -14.2405 C   0  0  0  0  0  0  0  0  0  0  0  0
   11.2834    5.8456  -13.4469 C   0  0  0  0  0  0  0  0  0  0  0  0
    9.9420    5.6747  -13.0095 C   0  0  0  0  0  0  0  0  0  0  0  0
    9.0738    6.3926  -12.2222 C   0  0  0  0  0  0  0  0  0  0  0  0
    9.2859    7.6828  -11.4777 C   0  0  0  0  0  0  0  0  0  0  0  0
    9.2862    7.4784  -10.0074 N   0  0  0  0  0  0  0  0  0  0  0  0
   10.3648    6.5606   -9.5408 C   0  0  0  0  0  0  0  0  0  0  0  0
   10.3909    6.3745   -8.0080 C   0  0  0  0  0  0  0  0  0  0  0  0
   10.3409    7.6676   -7.3402 N   0  0  0  0  0  0  0  0  0  0  0  0
   10.8909    7.8722   -6.0556 C   0  0  0  0  0  0  0  0  0  0  0  0
   11.0630    9.1859   -5.5541 C   0  0  0  0  0  0  0  0  0  0  0  0
   11.5629    9.4022   -4.2564 C   0  0  0  0  0  0  0  0  0  0  0  0
   11.9223    8.3101   -3.4487 C   0  0  0  0  0  0  0  0  0  0  0  0
   12.4859    8.5724   -1.8466 Cl  0  0  0  0  0  0  0  0  0  0  0  0
   11.7887    7.0017   -3.9406 C   0  0  0  0  0  0  0  0  0  0  0  0
   11.2853    6.7889   -5.2361 C   0  0  0  0  0  0  0  0  0  0  0  0
    9.1968    8.4656   -7.7491 C   0  0  0  0  0  0  0  0  0  0  0  0
    9.2860    8.7542   -9.2529 C   0  0  0  0  0  0  0  0  0  0  0  0
    7.8774    5.6294  -12.2537 C   0  0  0  0  0  0  0  0  0  0  0  0
    7.9590    4.5238  -12.9560 N   0  0  0  0  0  0  0  0  0  0  0  0
    9.2481    4.5200  -13.4369 N   0  0  0  0  0  0  0  0  0  0  0  0
   11.6169    2.9843  -15.2512 H   0  0  0  0  0  0  0  0  0  0  0  0
   12.8955    5.0137  -14.5679 H   0  0  0  0  0  0  0  0  0  0  0  0
   11.8440    6.7245  -13.1482 H   0  0  0  0  0  0  0  0  0  0  0  0
   10.2203    8.1606  -11.7819 H   0  0  0  0  0  0  0  0  0  0  0  0
    8.4852    8.3797  -11.7355 H   0  0  0  0  0  0  0  0  0  0  0  0
   10.2558    5.5823  -10.0082 H   0  0  0  0  0  0  0  0  0  0  0  0
   11.3252    6.9613   -9.8646 H   0  0  0  0  0  0  0  0  0  0  0  0
    9.5375    5.7748   -7.6868 H   0  0  0  0  0  0  0  0  0  0  0  0
   11.2860    5.8206   -7.7351 H   0  0  0  0  0  0  0  0  0  0  0  0
   10.8124   10.0485   -6.1531 H   0  0  0  0  0  0  0  0  0  0  0  0
   11.6488   10.4078   -3.8708 H   0  0  0  0  0  0  0  0  0  0  0  0
   12.0561    6.1582   -3.3199 H   0  0  0  0  0  0  0  0  0  0  0  0
   11.1800    5.7723   -5.5746 H   0  0  0  0  0  0  0  0  0  0  0  0
    8.2864    7.9047   -7.5320 H   0  0  0  0  0  0  0  0  0  0  0  0
    9.1037    9.3727   -7.1749 H   0  0  0  0  0  0  0  0  0  0  0  0
   10.1887    9.3244   -9.4758 H   0  0  0  0  0  0  0  0  0  0  0  0
    8.4375    9.3677   -9.5575 H   0  0  0  0  0  0  0  0  0  0  0  0
    6.9462    5.8684  -11.7562 H   0  0  0  0  0  0  0  0  0  0  0  0
    8.3868    7.0559   -9.7955 H   0  0  0  0  0  0  0  0  0  0  0  0
  2  1  3  0
  3  2  1  0
  4  3  2  0
  5  4  1  0
  6  5  2  0
  7  6  1  0
  8  7  2  0
  9  8  1  0
 10  9  1  0
 11 10  1  0
 12 11  1  0
 13 12  1  0
 14 13  1  0
 15 14  1  0
 16 15  2  0
 17 16  1  0
 18 17  1  0
 19 17  2  0
 20 14  2  0
 20 19  1  0
 21 13  1  0
 22 10  1  0
 22 21  1  0
 23  8  1  0
 24 23  2  0
 25  3  1  0
 25  7  1  0
 25 24  1  0
 26  4  1  0
 27  5  1  0
 28  6  1  0
 29  9  1  0
 30  9  1  0
 31 11  1  0
 32 11  1  0
 33 12  1  0
 34 12  1  0
 35 15  1  0
 36 16  1  0
 37 19  1  0
 38 20  1  0
 39 21  1  0
 40 21  1  0
 41 22  1  0
 42 22  1  0
 43 23  1  0
 44 10  1  0
M  CHG  1  10   1
M  END
>  <b_m_subgroup_collapsed>  (380) 
0

>  <r_i_docking_score>  (380) 
-8.1264250403179705

>  <s_m_subgroup_title>  (380) 
glide-dock_SP_D22_pv

>  <s_m_subgroupid>  (380) 
glide-dock_SP_D22_pv

>  <Molecule ChEMBL ID>  (380) 
CHEMBL160626

>  <Standard Type>  (380) 
Ki

>  <Standard Value>  (380) 
44000.0

>  <label>  (380) 
0

$$$$
CHEMBL353087
     RDKit          3D

 56 58  0  0  1  0  0  0  0  0999 V2000
    5.2865    4.1312  -12.1017 C   0  0  0  0  0  0  0  0  0  0  0  0
    6.3637    4.5305  -12.9320 O   0  0  0  0  0  0  0  0  0  0  0  0
    7.1061    3.5159  -13.4911 C   0  0  0  0  0  0  0  0  0  0  0  0
    6.4867    2.3204  -13.9363 C   0  0  0  0  0  0  0  0  0  0  0  0
    7.2465    1.2663  -14.5019 C   0  0  0  0  0  0  0  0  0  0  0  0
    6.6670    0.0454  -14.9572 N   0  0  0  0  0  0  0  0  0  0  0  0
    5.4817   -0.5107  -14.6483 C   0  0  0  0  0  0  0  0  0  0  0  0
    5.1513   -1.8001  -15.3861 C   0  0  0  0  0  0  0  0  0  0  0  0
    4.6937   -0.0751  -13.8108 O   0  0  0  0  0  0  0  0  0  0  0  0
    8.6388    1.4403  -14.6640 C   0  0  0  0  0  0  0  0  0  0  0  0
    9.6162    0.1917  -15.3596 Cl  0  0  0  0  0  0  0  0  0  0  0  0
    9.2549    2.6331  -14.2457 C   0  0  0  0  0  0  0  0  0  0  0  0
    8.5141    3.6693  -13.6313 C   0  0  0  0  0  0  0  0  0  0  0  0
    9.2563    4.8889  -13.1350 C   0  0  0  0  0  0  0  0  0  0  0  0
   10.3391    5.2039  -13.6284 O   0  0  0  0  0  0  0  0  0  0  0  0
    8.7120    5.5467  -12.0988 N   0  0  0  0  0  0  0  0  0  0  0  0
    9.2578    6.7382  -11.4582 C   0  0  0  0  0  0  0  0  0  0  0  0
    9.7708    6.4437  -10.0374 C   0  0  2  0  0  0  0  0  0  0  0  0
    8.7057    6.0355   -9.0036 C   0  0  0  0  0  0  0  0  0  0  0  0
    8.9792    6.8987   -7.7586 C   0  0  0  0  0  0  0  0  0  0  0  0
   10.3347    7.4593   -7.9491 N   0  0  2  0  0  0  0  0  0  0  0  0
   10.6586    8.6749   -7.1596 C   0  0  0  0  0  0  0  0  0  0  0  0
   11.1087    8.4230   -5.7233 C   0  0  0  0  0  0  0  0  0  0  0  0
   11.3896    9.5428   -4.9097 C   0  0  0  0  0  0  0  0  0  0  0  0
   11.8479    9.3719   -3.5889 C   0  0  0  0  0  0  0  0  0  0  0  0
   12.0124    8.0790   -3.0589 C   0  0  0  0  0  0  0  0  0  0  0  0
   11.7038    6.9583   -3.8527 C   0  0  0  0  0  0  0  0  0  0  0  0
   11.2814    7.1246   -5.1851 C   0  0  0  0  0  0  0  0  0  0  0  0
   10.4774    7.6450   -9.4041 C   0  0  0  0  0  0  0  0  0  0  0  0
    4.9952    4.9605  -11.4583 H   0  0  0  0  0  0  0  0  0  0  0  0
    4.4225    3.8375  -12.6965 H   0  0  0  0  0  0  0  0  0  0  0  0
    5.5637    3.3008  -11.4492 H   0  0  0  0  0  0  0  0  0  0  0  0
    5.4188    2.2193  -13.8472 H   0  0  0  0  0  0  0  0  0  0  0  0
    7.2600   -0.5142  -15.5551 H   0  0  0  0  0  0  0  0  0  0  0  0
    5.4372   -1.7316  -16.4369 H   0  0  0  0  0  0  0  0  0  0  0  0
    5.6850   -2.6396  -14.9402 H   0  0  0  0  0  0  0  0  0  0  0  0
    4.0802   -2.0057  -15.3475 H   0  0  0  0  0  0  0  0  0  0  0  0
   10.3232    2.7304  -14.3633 H   0  0  0  0  0  0  0  0  0  0  0  0
    7.8079    5.2278  -11.7781 H   0  0  0  0  0  0  0  0  0  0  0  0
    8.4814    7.5010  -11.4274 H   0  0  0  0  0  0  0  0  0  0  0  0
   10.0635    7.1643  -12.0582 H   0  0  0  0  0  0  0  0  0  0  0  0
   10.4857    5.6259  -10.0934 H   0  0  0  0  0  0  0  0  0  0  0  0
    8.8084    4.9747   -8.7625 H   0  0  0  0  0  0  0  0  0  0  0  0
    7.6895    6.1708   -9.3707 H   0  0  0  0  0  0  0  0  0  0  0  0
    8.8905    6.3344   -6.8285 H   0  0  0  0  0  0  0  0  0  0  0  0
    8.2583    7.7176   -7.7165 H   0  0  0  0  0  0  0  0  0  0  0  0
    9.8163    9.3673   -7.1712 H   0  0  0  0  0  0  0  0  0  0  0  0
   11.4864    9.1916   -7.6494 H   0  0  0  0  0  0  0  0  0  0  0  0
   11.2712   10.5430   -5.3001 H   0  0  0  0  0  0  0  0  0  0  0  0
   12.0680   10.2331   -2.9757 H   0  0  0  0  0  0  0  0  0  0  0  0
   12.3552    7.9501   -2.0420 H   0  0  0  0  0  0  0  0  0  0  0  0
   11.8216    5.9649   -3.4443 H   0  0  0  0  0  0  0  0  0  0  0  0
   11.0786    6.2376   -5.7660 H   0  0  0  0  0  0  0  0  0  0  0  0
    9.9796    8.5715   -9.7012 H   0  0  0  0  0  0  0  0  0  0  0  0
   11.5250    7.7131   -9.7044 H   0  0  0  0  0  0  0  0  0  0  0  0
   10.9951    6.7385   -7.6959 H   0  0  0  0  0  0  0  0  0  0  0  0
  2  1  1  0
  3  2  1  0
  4  3  1  0
  5  4  2  0
  6  5  1  0
  7  6  1  0
  8  7  1  0
  9  7  2  0
 10  5  1  0
 11 10  1  0
 12 10  2  0
 13  3  2  0
 13 12  1  0
 14 13  1  0
 15 14  2  0
 16 14  1  0
 17 16  1  0
 18 17  1  0
 19 18  1  0
 20 19  1  0
 21 20  1  0
 22 21  1  0
 23 22  1  0
 24 23  2  0
 25 24  1  0
 26 25  2  0
 27 26  1  0
 28 23  1  0
 28 27  2  0
 29 18  1  0
 29 21  1  0
 30  1  1  0
 31  1  1  0
 32  1  1  0
 33  4  1  0
 34  6  1  0
 35  8  1  0
 36  8  1  0
 37  8  1  0
 38 12  1  0
 39 16  1  0
 40 17  1  0
 41 17  1  0
 18 42  1  6
 43 19  1  0
 44 19  1  0
 45 20  1  0
 46 20  1  0
 47 22  1  0
 48 22  1  0
 49 24  1  0
 50 25  1  0
 51 26  1  0
 52 27  1  0
 53 28  1  0
 54 29  1  0
 55 29  1  0
 21 56  1  1
M  CHG  1  21   1
M  END
>  <b_m_subgroup_collapsed>  (381) 
0

>  <r_i_docking_score>  (381) 
-8.1262096303610107

>  <s_m_subgroup_title>  (381) 
glide-dock_SP_D22_pv

>  <s_m_subgroupid>  (381) 
glide-dock_SP_D22_pv

>  <Molecule ChEMBL ID>  (381) 
CHEMBL353087

>  <Standard Type>  (381) 
Ki

>  <Standard Value>  (381) 
19000.0

>  <label>  (381) 
0

$$$$
CHEMBL381019
     RDKit          3D

 52 55  0  0  1  0  0  0  0  0999 V2000
   12.5897    8.9724   -1.5280 C   0  0  0  0  0  0  0  0  0  0  0  0
   12.1298    8.4029   -2.8519 C   0  0  0  0  0  0  0  0  0  0  0  0
   12.1514    9.1891   -4.0182 C   0  0  0  0  0  0  0  0  0  0  0  0
   11.7074    8.6902   -5.2582 C   0  0  0  0  0  0  0  0  0  0  0  0
   11.2858    7.3483   -5.3461 C   0  0  0  0  0  0  0  0  0  0  0  0
   10.9132    6.6561   -6.6491 C   0  0  0  0  0  0  0  0  0  0  0  0
   10.5798    7.5675   -7.7591 N   0  0  2  0  0  0  0  0  0  0  0  0
    9.2761    8.2452   -7.6462 C   0  0  0  0  0  0  0  0  0  0  0  0
    9.1014    8.8647   -9.0277 C   0  0  0  0  0  0  0  0  0  0  0  0
    9.7846    7.8927   -9.9895 C   0  0  2  0  0  0  0  0  0  0  0  0
    8.8860    7.1814  -10.8918 N   0  0  0  0  0  0  0  0  0  0  0  0
    9.3428    6.4699  -11.9327 C   0  0  0  0  0  0  0  0  0  0  0  0
   10.5111    6.5594  -12.3130 O   0  0  0  0  0  0  0  0  0  0  0  0
    8.4233    5.4530  -12.5499 C   0  0  0  0  0  0  0  0  0  0  0  0
    7.0188    5.5209  -12.4146 C   0  0  0  0  0  0  0  0  0  0  0  0
    6.2073    4.5369  -13.0117 C   0  0  0  0  0  0  0  0  0  0  0  0
    6.7867    3.4854  -13.7483 C   0  0  0  0  0  0  0  0  0  0  0  0
    8.1904    3.3965  -13.8953 C   0  0  0  0  0  0  0  0  0  0  0  0
    8.8333    2.3148  -14.6469 C   0  0  0  0  0  0  0  0  0  0  0  0
   10.1237    2.2458  -15.1163 C   0  0  0  0  0  0  0  0  0  0  0  0
   10.4171    1.0229  -15.7857 C   0  0  0  0  0  0  0  0  0  0  0  0
    9.3459    0.1723  -15.8234 C   0  0  0  0  0  0  0  0  0  0  0  0
    7.9548    0.8500  -15.0248 S   0  0  0  0  0  0  0  0  0  0  0  0
    8.9874    4.3925  -13.2926 C   0  0  0  0  0  0  0  0  0  0  0  0
   10.5381    6.9130   -9.0783 C   0  0  0  0  0  0  0  0  0  0  0  0
   11.2860    6.5723   -4.1793 C   0  0  0  0  0  0  0  0  0  0  0  0
   11.6877    7.0759   -2.9336 C   0  0  0  0  0  0  0  0  0  0  0  0
   11.9907    8.5727   -0.7122 H   0  0  0  0  0  0  0  0  0  0  0  0
   13.6365    8.7349   -1.3447 H   0  0  0  0  0  0  0  0  0  0  0  0
   12.4837   10.0548   -1.5155 H   0  0  0  0  0  0  0  0  0  0  0  0
   12.5543   10.1723   -3.9603 H   0  0  0  0  0  0  0  0  0  0  0  0
   11.7636    9.3266   -6.1285 H   0  0  0  0  0  0  0  0  0  0  0  0
   10.0728    5.9827   -6.4798 H   0  0  0  0  0  0  0  0  0  0  0  0
   11.7613    6.0345   -6.9400 H   0  0  0  0  0  0  0  0  0  0  0  0
    9.2508    8.9730   -6.8376 H   0  0  0  0  0  0  0  0  0  0  0  0
    8.4859    7.5147   -7.4614 H   0  0  0  0  0  0  0  0  0  0  0  0
    9.6878    9.7723   -9.0529 H   0  0  0  0  0  0  0  0  0  0  0  0
    8.0860    9.1410   -9.2855 H   0  0  0  0  0  0  0  0  0  0  0  0
   10.4992    8.4667  -10.5847 H   0  0  0  0  0  0  0  0  0  0  0  0
    7.8906    7.1840  -10.6489 H   0  0  0  0  0  0  0  0  0  0  0  0
    6.5488    6.3145  -11.8513 H   0  0  0  0  0  0  0  0  0  0  0  0
    5.1343    4.5866  -12.9042 H   0  0  0  0  0  0  0  0  0  0  0  0
    6.1355    2.7512  -14.1982 H   0  0  0  0  0  0  0  0  0  0  0  0
   10.8693    3.0192  -15.0073 H   0  0  0  0  0  0  0  0  0  0  0  0
   11.3893    0.8150  -16.2088 H   0  0  0  0  0  0  0  0  0  0  0  0
    9.2855   -0.8117  -16.2629 H   0  0  0  0  0  0  0  0  0  0  0  0
   10.0615    4.3341  -13.3865 H   0  0  0  0  0  0  0  0  0  0  0  0
   10.0063    5.9620   -8.9966 H   0  0  0  0  0  0  0  0  0  0  0  0
   11.5388    6.7100   -9.4563 H   0  0  0  0  0  0  0  0  0  0  0  0
   10.9600    5.5528   -4.2469 H   0  0  0  0  0  0  0  0  0  0  0  0
   11.6660    6.4399   -2.0599 H   0  0  0  0  0  0  0  0  0  0  0  0
   11.2937    8.2796   -7.8068 H   0  0  0  0  0  0  0  0  0  0  0  0
  2  1  1  0
  3  2  1  0
  4  3  2  0
  5  4  1  0
  6  5  1  0
  7  6  1  0
  8  7  1  0
  9  8  1  0
 10  9  1  0
 11 10  1  0
 12 11  1  0
 13 12  2  0
 14 12  1  0
 15 14  1  0
 16 15  2  0
 17 16  1  0
 18 17  2  0
 19 18  1  0
 20 19  2  0
 21 20  1  0
 22 21  2  0
 23 19  1  0
 23 22  1  0
 24 14  2  0
 24 18  1  0
 25  7  1  0
 25 10  1  0
 26  5  2  0
 27  2  2  0
 27 26  1  0
 28  1  1  0
 29  1  1  0
 30  1  1  0
 31  3  1  0
 32  4  1  0
 33  6  1  0
 34  6  1  0
 35  8  1  0
 36  8  1  0
 37  9  1  0
 38  9  1  0
 10 39  1  6
 40 11  1  0
 41 15  1  0
 42 16  1  0
 43 17  1  0
 44 20  1  0
 45 21  1  0
 46 22  1  0
 47 24  1  0
 48 25  1  0
 49 25  1  0
 50 26  1  0
 51 27  1  0
  7 52  1  6
M  CHG  1   7   1
M  END
>  <b_m_subgroup_collapsed>  (382) 
0

>  <r_i_docking_score>  (382) 
-8.12534014990967

>  <s_m_subgroup_title>  (382) 
glide-dock_SP_D22_pv

>  <s_m_subgroupid>  (382) 
glide-dock_SP_D22_pv

>  <Molecule ChEMBL ID>  (382) 
CHEMBL381019

>  <Standard Type>  (382) 
Ki

>  <Standard Value>  (382) 
60.0

>  <label>  (382) 
1

$$$$
CHEMBL78923
     RDKit          3D

 51 54  0  0  1  0  0  0  0  0999 V2000
   12.7021    5.8718  -15.0453 N   0  0  0  0  0  0  0  0  0  0  0  0
   11.6281    5.7466  -14.2102 C   0  0  0  0  0  0  0  0  0  0  0  0
   10.7882    4.7501  -14.4740 N   0  0  0  0  0  0  0  0  0  0  0  0
    9.7303    4.6050  -13.6453 C   0  0  0  0  0  0  0  0  0  0  0  0
    8.7743    3.5178  -13.9381 C   0  0  0  0  0  0  0  0  0  0  0  0
    9.2049    2.2727  -14.4547 C   0  0  0  0  0  0  0  0  0  0  0  0
    8.2965    1.2120  -14.6469 C   0  0  0  0  0  0  0  0  0  0  0  0
    6.9367    1.3837  -14.3304 C   0  0  0  0  0  0  0  0  0  0  0  0
    5.8287    0.0727  -14.5067 Cl  0  0  0  0  0  0  0  0  0  0  0  0
    6.4855    2.6266  -13.8470 C   0  0  0  0  0  0  0  0  0  0  0  0
    7.3965    3.6839  -13.6585 C   0  0  0  0  0  0  0  0  0  0  0  0
    9.5572    5.4679  -12.5441 C   0  0  0  0  0  0  0  0  0  0  0  0
   10.5136    6.4877  -12.3560 C   0  0  0  0  0  0  0  0  0  0  0  0
   10.4188    7.5130  -11.2228 C   0  0  1  0  0  0  0  0  0  0  0  0
    9.4956    7.0508  -10.0778 C   0  0  0  0  0  0  0  0  0  0  0  0
    9.4145    8.0748   -8.9444 C   0  0  0  0  0  0  0  0  0  0  0  0
   10.7615    8.3626   -8.3954 N   0  0  2  0  0  0  0  0  0  0  0  0
   10.7067    9.2702   -7.2248 C   0  0  0  0  0  0  0  0  0  0  0  0
   11.2260    8.6393   -5.9508 C   0  0  0  0  0  0  0  0  0  0  0  0
   12.0114    9.4095   -5.0711 C   0  0  0  0  0  0  0  0  0  0  0  0
   12.4316    8.8780   -3.8372 C   0  0  0  0  0  0  0  0  0  0  0  0
   12.0884    7.5586   -3.4897 C   0  0  0  0  0  0  0  0  0  0  0  0
   11.3322    6.7778   -4.3812 C   0  0  0  0  0  0  0  0  0  0  0  0
   10.8864    7.3139   -5.6021 C   0  0  0  0  0  0  0  0  0  0  0  0
   11.6859    8.8459   -9.4472 C   0  0  0  0  0  0  0  0  0  0  0  0
   11.7949    7.8566  -10.6121 C   0  0  0  0  0  0  0  0  0  0  0  0
   11.5488    6.6235  -13.2133 N   0  0  0  0  0  0  0  0  0  0  0  0
   12.8974    5.1115  -15.6782 H   0  0  0  0  0  0  0  0  0  0  0  0
   13.4875    6.4107  -14.7098 H   0  0  0  0  0  0  0  0  0  0  0  0
   10.2511    2.1164  -14.6772 H   0  0  0  0  0  0  0  0  0  0  0  0
    8.6452    0.2590  -15.0190 H   0  0  0  0  0  0  0  0  0  0  0  0
    5.4420    2.7682  -13.6070 H   0  0  0  0  0  0  0  0  0  0  0  0
    7.0299    4.6242  -13.2733 H   0  0  0  0  0  0  0  0  0  0  0  0
    8.7151    5.3309  -11.8831 H   0  0  0  0  0  0  0  0  0  0  0  0
    9.9991    8.4198  -11.6621 H   0  0  0  0  0  0  0  0  0  0  0  0
    8.4857    6.9002  -10.4538 H   0  0  0  0  0  0  0  0  0  0  0  0
    9.8277    6.0882   -9.6857 H   0  0  0  0  0  0  0  0  0  0  0  0
    8.7641    7.6913   -8.1538 H   0  0  0  0  0  0  0  0  0  0  0  0
    8.9560    8.9977   -9.3070 H   0  0  0  0  0  0  0  0  0  0  0  0
    9.6861    9.5976   -7.0458 H   0  0  0  0  0  0  0  0  0  0  0  0
   11.2876   10.1723   -7.4220 H   0  0  0  0  0  0  0  0  0  0  0  0
   12.2740   10.4223   -5.3346 H   0  0  0  0  0  0  0  0  0  0  0  0
   13.0085    9.4848   -3.1554 H   0  0  0  0  0  0  0  0  0  0  0  0
   12.4091    7.1433   -2.5445 H   0  0  0  0  0  0  0  0  0  0  0  0
   11.0611    5.7722   -4.1096 H   0  0  0  0  0  0  0  0  0  0  0  0
   10.2645    6.7075   -6.2455 H   0  0  0  0  0  0  0  0  0  0  0  0
   11.3587    9.8190   -9.8151 H   0  0  0  0  0  0  0  0  0  0  0  0
   12.6783    8.9729   -9.0089 H   0  0  0  0  0  0  0  0  0  0  0  0
   12.4543    8.2789  -11.3706 H   0  0  0  0  0  0  0  0  0  0  0  0
   12.2858    6.9604  -10.2480 H   0  0  0  0  0  0  0  0  0  0  0  0
   11.1311    7.4874   -8.0569 H   0  0  0  0  0  0  0  0  0  0  0  0
  2  1  1  0
  3  2  2  0
  4  3  1  0
  5  4  1  0
  6  5  1  0
  7  6  2  0
  8  7  1  0
  9  8  1  0
 10  8  2  0
 11  5  2  0
 11 10  1  0
 12  4  2  0
 13 12  1  0
 14 13  1  0
 15 14  1  0
 16 15  1  0
 17 16  1  0
 18 17  1  0
 19 18  1  0
 20 19  2  0
 21 20  1  0
 22 21  2  0
 23 22  1  0
 24 19  1  0
 24 23  2  0
 25 17  1  0
 26 14  1  0
 26 25  1  0
 27  2  1  0
 27 13  2  0
 28  1  1  0
 29  1  1  0
 30  6  1  0
 31  7  1  0
 32 10  1  0
 33 11  1  0
 34 12  1  0
 14 35  1  6
 36 15  1  0
 37 15  1  0
 38 16  1  0
 39 16  1  0
 40 18  1  0
 41 18  1  0
 42 20  1  0
 43 21  1  0
 44 22  1  0
 45 23  1  0
 46 24  1  0
 47 25  1  0
 48 25  1  0
 49 26  1  0
 50 26  1  0
 17 51  1  1
M  CHG  1  17   1
M  END
>  <b_m_subgroup_collapsed>  (383) 
0

>  <r_i_docking_score>  (383) 
-8.1252635065057994

>  <s_m_subgroup_title>  (383) 
glide-dock_SP_D22_pv

>  <s_m_subgroupid>  (383) 
glide-dock_SP_D22_pv

>  <Molecule ChEMBL ID>  (383) 
CHEMBL78923

>  <Standard Type>  (383) 
Ki

>  <Standard Value>  (383) 
8.6

>  <label>  (383) 
1

$$$$
CHEMBL149723
     RDKit          3D

 57 60  0  0  1  0  0  0  0  0999 V2000
   10.4586    1.9596  -14.3490 C   0  0  0  0  0  0  0  0  0  0  0  0
   11.0185    2.4732  -15.9950 S   0  0  0  0  0  0  0  0  0  0  0  0
   11.6774    4.1135  -15.8874 C   0  0  0  0  0  0  0  0  0  0  0  0
   12.2597    4.6825  -17.0387 C   0  0  0  0  0  0  0  0  0  0  0  0
   12.7598    5.9918  -16.9486 C   0  0  0  0  0  0  0  0  0  0  0  0
   12.6970    6.7313  -15.7799 C   0  0  0  0  0  0  0  0  0  0  0  0
   12.1055    6.1894  -14.6184 C   0  0  0  0  0  0  0  0  0  0  0  0
   12.0163    6.9750  -13.3404 C   0  0  0  0  0  0  0  0  0  0  0  0
   12.8860    7.7722  -12.9903 O   0  0  0  0  0  0  0  0  0  0  0  0
   10.8908    6.7587  -12.6489 N   0  0  0  0  0  0  0  0  0  0  0  0
   10.6160    7.1769  -11.2889 C   0  0  0  0  0  0  0  0  0  0  0  0
    9.1091    7.0548  -10.9301 C   0  0  1  0  0  0  0  0  0  0  0  0
    8.3383    5.9135  -11.6122 C   0  0  0  0  0  0  0  0  0  0  0  0
    8.5614    4.7177  -10.6986 C   0  0  0  0  0  0  0  0  0  0  0  0
    8.8473    5.3197   -9.3167 C   0  0  0  0  0  0  0  0  0  0  0  0
    8.8861    6.7915   -9.4877 N   0  0  1  0  0  0  0  0  0  0  0  0
    9.7644    7.5069   -8.5323 C   0  0  0  0  0  0  0  0  0  0  0  0
    9.3139    7.3554   -7.0721 C   0  0  0  0  0  0  0  0  0  0  0  0
   10.3133    7.9948   -6.1304 C   0  0  0  0  0  0  0  0  0  0  0  0
   10.9704    7.2292   -5.1438 C   0  0  0  0  0  0  0  0  0  0  0  0
   11.8634    7.8477   -4.2468 C   0  0  0  0  0  0  0  0  0  0  0  0
   12.1205    9.2291   -4.3484 C   0  0  0  0  0  0  0  0  0  0  0  0
   11.4855    9.9877   -5.3510 C   0  0  0  0  0  0  0  0  0  0  0  0
   10.5833    9.3725   -6.2337 C   0  0  0  0  0  0  0  0  0  0  0  0
   11.6121    4.8588  -14.6836 C   0  0  0  0  0  0  0  0  0  0  0  0
   13.2276    7.9837  -15.9280 O   0  0  0  0  0  0  0  0  0  0  0  0
   13.7305    8.1050  -17.2697 C   0  0  0  0  0  0  0  0  0  0  0  0
   13.3928    6.8015  -18.0245 C   0  0  0  0  0  0  0  0  0  0  0  0
   10.0712    0.9409  -14.3876 H   0  0  0  0  0  0  0  0  0  0  0  0
   11.2855    1.9805  -13.6410 H   0  0  0  0  0  0  0  0  0  0  0  0
    9.6639    2.6108  -13.9860 H   0  0  0  0  0  0  0  0  0  0  0  0
   12.3132    4.1297  -17.9649 H   0  0  0  0  0  0  0  0  0  0  0  0
   10.2156    6.1417  -13.0738 H   0  0  0  0  0  0  0  0  0  0  0  0
   10.9458    8.2071  -11.1425 H   0  0  0  0  0  0  0  0  0  0  0  0
   11.2393    6.5725  -10.6385 H   0  0  0  0  0  0  0  0  0  0  0  0
    8.6328    8.0008  -11.1946 H   0  0  0  0  0  0  0  0  0  0  0  0
    8.5936    5.7150  -12.6527 H   0  0  0  0  0  0  0  0  0  0  0  0
    7.2761    6.1622  -11.6071 H   0  0  0  0  0  0  0  0  0  0  0  0
    9.4195    4.1390  -11.0435 H   0  0  0  0  0  0  0  0  0  0  0  0
    7.6860    4.0691  -10.6894 H   0  0  0  0  0  0  0  0  0  0  0  0
    9.8027    4.9443   -8.9476 H   0  0  0  0  0  0  0  0  0  0  0  0
    8.0860    5.0446   -8.5875 H   0  0  0  0  0  0  0  0  0  0  0  0
    9.7833    8.5613   -8.8109 H   0  0  0  0  0  0  0  0  0  0  0  0
   10.7875    7.1376   -8.6065 H   0  0  0  0  0  0  0  0  0  0  0  0
    9.1993    6.3057   -6.8028 H   0  0  0  0  0  0  0  0  0  0  0  0
    8.3379    7.8197   -6.9247 H   0  0  0  0  0  0  0  0  0  0  0  0
   10.7737    6.1722   -5.0506 H   0  0  0  0  0  0  0  0  0  0  0  0
   12.3523    7.2615   -3.4819 H   0  0  0  0  0  0  0  0  0  0  0  0
   12.8077    9.7050   -3.6637 H   0  0  0  0  0  0  0  0  0  0  0  0
   11.6853   11.0437   -5.4469 H   0  0  0  0  0  0  0  0  0  0  0  0
   10.0893    9.9624   -6.9899 H   0  0  0  0  0  0  0  0  0  0  0  0
   11.1752    4.4135  -13.8042 H   0  0  0  0  0  0  0  0  0  0  0  0
   13.2860    8.9702  -17.7590 H   0  0  0  0  0  0  0  0  0  0  0  0
   14.8084    8.2590  -17.2388 H   0  0  0  0  0  0  0  0  0  0  0  0
   14.2830    6.3076  -18.4134 H   0  0  0  0  0  0  0  0  0  0  0  0
   12.6869    6.9728  -18.8377 H   0  0  0  0  0  0  0  0  0  0  0  0
    7.9286    7.1149   -9.3427 H   0  0  0  0  0  0  0  0  0  0  0  0
  2  1  1  0
  3  2  1  0
  4  3  1  0
  5  4  2  0
  6  5  1  0
  7  6  2  0
  8  7  1  0
  9  8  2  0
 10  8  1  0
 11 10  1  0
 12 11  1  0
 13 12  1  0
 14 13  1  0
 15 14  1  0
 16 12  1  0
 16 15  1  0
 17 16  1  0
 18 17  1  0
 19 18  1  0
 20 19  2  0
 21 20  1  0
 22 21  2  0
 23 22  1  0
 24 19  1  0
 24 23  2  0
 25  3  2  0
 25  7  1  0
 26  6  1  0
 27 26  1  0
 28  5  1  0
 28 27  1  0
 29  1  1  0
 30  1  1  0
 31  1  1  0
 32  4  1  0
 33 10  1  0
 34 11  1  0
 35 11  1  0
 12 36  1  6
 37 13  1  0
 38 13  1  0
 39 14  1  0
 40 14  1  0
 41 15  1  0
 42 15  1  0
 43 17  1  0
 44 17  1  0
 45 18  1  0
 46 18  1  0
 47 20  1  0
 48 21  1  0
 49 22  1  0
 50 23  1  0
 51 24  1  0
 52 25  1  0
 53 27  1  0
 54 27  1  0
 55 28  1  0
 56 28  1  0
 16 57  1  1
M  CHG  1  16   1
M  END
>  <b_m_subgroup_collapsed>  (384) 
0

>  <r_i_docking_score>  (384) 
-8.1244642542454599

>  <s_m_subgroup_title>  (384) 
glide-dock_SP_D22_pv

>  <s_m_subgroupid>  (384) 
glide-dock_SP_D22_pv

>  <Molecule ChEMBL ID>  (384) 
CHEMBL149723

>  <Standard Type>  (384) 
Ki

>  <Standard Value>  (384) 
6.7

>  <label>  (384) 
1

$$$$
CHEMBL5091775
     RDKit          3D

 37 39  0  0  1  0  0  0  0  0999 V2000
   12.0860   10.1723   -2.8332 O   0  0  0  0  0  0  0  0  0  0  0  0
   11.9041    9.0336   -3.5376 C   0  0  0  0  0  0  0  0  0  0  0  0
   12.0943    7.8038   -2.8971 C   0  0  0  0  0  0  0  0  0  0  0  0
   11.9160    6.6279   -3.6299 C   0  0  0  0  0  0  0  0  0  0  0  0
   11.5421    6.6881   -4.9855 C   0  0  0  0  0  0  0  0  0  0  0  0
   11.3231    7.9182   -5.6470 C   0  0  0  0  0  0  0  0  0  0  0  0
   10.9390    7.9919   -7.1452 C   0  0  2  0  0  0  0  0  0  0  0  0
   12.1850    8.4402   -7.9623 C   0  0  0  0  0  0  0  0  0  0  0  0
   12.0024    8.5519   -9.4840 C   0  0  0  0  0  0  0  0  0  0  0  0
   11.2274    7.3723  -10.0907 C   0  0  0  0  0  0  0  0  0  0  0  0
   10.0919    6.8008   -9.2109 C   0  0  2  0  0  0  0  0  0  0  0  0
    8.8860    7.6331   -9.2561 N   0  0  0  0  0  0  0  0  0  0  0  0
    9.0460    8.9723   -8.6690 C   0  0  0  0  0  0  0  0  0  0  0  0
    9.7522    8.9723   -7.2958 C   0  0  0  0  0  0  0  0  0  0  0  0
   10.4857    6.6301   -7.7343 C   0  0  2  0  0  0  0  0  0  0  0  0
    9.3281    6.1723   -7.0560 O   0  0  0  0  0  0  0  0  0  0  0  0
   11.5263    9.0997   -4.8935 C   0  0  0  0  0  0  0  0  0  0  0  0
   12.6433   10.0992   -2.0700 H   0  0  0  0  0  0  0  0  0  0  0  0
   12.3803    7.7570   -1.8566 H   0  0  0  0  0  0  0  0  0  0  0  0
   12.0860    5.6836   -3.1436 H   0  0  0  0  0  0  0  0  0  0  0  0
   11.4513    5.7665   -5.5179 H   0  0  0  0  0  0  0  0  0  0  0  0
   12.5927    9.3723   -7.5697 H   0  0  0  0  0  0  0  0  0  0  0  0
   12.9675    7.6948   -7.8469 H   0  0  0  0  0  0  0  0  0  0  0  0
   11.5642    9.5100   -9.7514 H   0  0  0  0  0  0  0  0  0  0  0  0
   12.9880    8.5723   -9.9506 H   0  0  0  0  0  0  0  0  0  0  0  0
   10.8603    7.6292  -11.0852 H   0  0  0  0  0  0  0  0  0  0  0  0
   11.9437    6.5725  -10.2469 H   0  0  0  0  0  0  0  0  0  0  0  0
    9.8070    5.8278   -9.6145 H   0  0  0  0  0  0  0  0  0  0  0  0
    8.5015    7.7092  -10.1895 H   0  0  0  0  0  0  0  0  0  0  0  0
    9.5361    9.6253   -9.3840 H   0  0  0  0  0  0  0  0  0  0  0  0
    8.0617    9.4118   -8.5483 H   0  0  0  0  0  0  0  0  0  0  0  0
    8.9962    8.7241   -6.5482 H   0  0  0  0  0  0  0  0  0  0  0  0
   10.0860    9.9780   -7.0469 H   0  0  0  0  0  0  0  0  0  0  0  0
   11.2751    5.8811   -7.6636 H   0  0  0  0  0  0  0  0  0  0  0  0
    9.5135    6.1221   -6.1285 H   0  0  0  0  0  0  0  0  0  0  0  0
   11.4122   10.0731   -5.3452 H   0  0  0  0  0  0  0  0  0  0  0  0
    8.1864    7.1565   -8.6957 H   0  0  0  0  0  0  0  0  0  0  0  0
  2  1  1  0
  3  2  1  0
  4  3  2  0
  5  4  1  0
  6  5  2  0
  7  6  1  1
  8  7  1  0
  9  8  1  0
 10  9  1  0
 11 10  1  0
 12 11  1  0
 13 12  1  0
 14  7  1  0
 14 13  1  0
 15  7  1  0
 15 11  1  0
 16 15  1  0
 17  2  2  0
 17  6  1  0
 18  1  1  0
 19  3  1  0
 20  4  1  0
 21  5  1  0
 22  8  1  0
 23  8  1  0
 24  9  1  0
 25  9  1  0
 26 10  1  0
 27 10  1  0
 11 28  1  6
 29 12  1  0
 30 13  1  0
 31 13  1  0
 32 14  1  0
 33 14  1  0
 15 34  1  6
 35 16  1  0
 36 17  1  0
 37 12  1  0
M  CHG  1  12   1
M  END
>  <b_m_subgroup_collapsed>  (385) 
0

>  <r_i_docking_score>  (385) 
-8.1225750587870795

>  <s_m_subgroup_title>  (385) 
glide-dock_SP_D22_pv

>  <s_m_subgroupid>  (385) 
glide-dock_SP_D22_pv

>  <Molecule ChEMBL ID>  (385) 
CHEMBL5091775

>  <Standard Type>  (385) 
Ki

>  <Standard Value>  (385) 
100000.0

>  <label>  (385) 
0

$$$$
CHEMBL303538
     RDKit          3D

 44 46  0  0  1  0  0  0  0  0999 V2000
    8.5669    1.9311  -15.7281 N   0  0  0  0  0  0  0  0  0  0  0  0
    7.8266    2.1671  -14.8701 C   0  0  0  0  0  0  0  0  0  0  0  0
    6.8793    2.4589  -13.8474 C   0  0  0  0  0  0  0  0  0  0  0  0
    5.7622    1.6025  -13.6342 C   0  0  0  0  0  0  0  0  0  0  0  0
    4.8857    0.8713  -13.4462 N   0  0  0  0  0  0  0  0  0  0  0  0
    7.0280    3.5347  -13.0471 C   0  0  0  0  0  0  0  0  0  0  0  0
    8.1024    4.4802  -12.9651 C   0  0  0  0  0  0  0  0  0  0  0  0
    9.3677    4.5105  -13.4901 C   0  0  0  0  0  0  0  0  0  0  0  0
   10.0145    5.6893  -13.0242 C   0  0  0  0  0  0  0  0  0  0  0  0
    9.1286    6.3811  -12.2465 C   0  0  0  0  0  0  0  0  0  0  0  0
    9.2741    7.6801  -11.5228 C   0  0  0  0  0  0  0  0  0  0  0  0
    9.2860    7.5395  -10.0461 N   0  0  0  0  0  0  0  0  0  0  0  0
   10.3398    6.6183   -9.5413 C   0  0  0  0  0  0  0  0  0  0  0  0
   10.3814    6.5422   -8.0053 C   0  0  0  0  0  0  0  0  0  0  0  0
   10.4014    7.8737   -7.4062 N   0  0  0  0  0  0  0  0  0  0  0  0
   10.8870    8.0341   -6.0878 C   0  0  0  0  0  0  0  0  0  0  0  0
   11.1971    6.9186   -5.2703 C   0  0  0  0  0  0  0  0  0  0  0  0
   11.6893    7.0819   -3.9643 C   0  0  0  0  0  0  0  0  0  0  0  0
   11.8843    8.3717   -3.4458 C   0  0  0  0  0  0  0  0  0  0  0  0
   12.4859    8.5723   -1.8465 Cl  0  0  0  0  0  0  0  0  0  0  0  0
   11.5687    9.4936   -4.2310 C   0  0  0  0  0  0  0  0  0  0  0  0
   11.0914    9.3275   -5.5455 C   0  0  0  0  0  0  0  0  0  0  0  0
    9.3155    8.7381   -7.8563 C   0  0  0  0  0  0  0  0  0  0  0  0
    9.3312    8.8630   -9.3840 C   0  0  0  0  0  0  0  0  0  0  0  0
    7.9629    5.6383  -12.2232 N   0  0  0  0  0  0  0  0  0  0  0  0
    6.2438    3.6984  -12.3197 H   0  0  0  0  0  0  0  0  0  0  0  0
    9.8112    3.7544  -14.1199 H   0  0  0  0  0  0  0  0  0  0  0  0
   11.0246    6.0003  -13.2456 H   0  0  0  0  0  0  0  0  0  0  0  0
   10.1908    8.1735  -11.8461 H   0  0  0  0  0  0  0  0  0  0  0  0
    8.4545    8.3405  -11.8120 H   0  0  0  0  0  0  0  0  0  0  0  0
   10.1853    5.6143   -9.9380 H   0  0  0  0  0  0  0  0  0  0  0  0
   11.3090    6.9625   -9.9068 H   0  0  0  0  0  0  0  0  0  0  0  0
    9.5131    5.9950   -7.6304 H   0  0  0  0  0  0  0  0  0  0  0  0
   11.2699    5.9749   -7.7245 H   0  0  0  0  0  0  0  0  0  0  0  0
   11.0531    5.9076   -5.6141 H   0  0  0  0  0  0  0  0  0  0  0  0
   11.9153    6.2149   -3.3611 H   0  0  0  0  0  0  0  0  0  0  0  0
   11.6859   10.4855   -3.8219 H   0  0  0  0  0  0  0  0  0  0  0  0
   10.8959   10.2149   -6.1266 H   0  0  0  0  0  0  0  0  0  0  0  0
    8.3653    8.3213   -7.5173 H   0  0  0  0  0  0  0  0  0  0  0  0
    9.3808    9.7397   -7.4473 H   0  0  0  0  0  0  0  0  0  0  0  0
   10.2342    9.3898   -9.6944 H   0  0  0  0  0  0  0  0  0  0  0  0
    8.4791    9.4588   -9.7105 H   0  0  0  0  0  0  0  0  0  0  0  0
    7.1244    5.9080  -11.7209 H   0  0  0  0  0  0  0  0  0  0  0  0
    8.3777    7.1558   -9.7995 H   0  0  0  0  0  0  0  0  0  0  0  0
  2  1  3  0
  3  2  1  0
  4  3  1  0
  5  4  3  0
  6  3  2  3
  7  6  1  0
  8  7  2  0
  9  8  1  0
 10  9  2  0
 11 10  1  0
 12 11  1  0
 13 12  1  0
 14 13  1  0
 15 14  1  0
 16 15  1  0
 17 16  1  0
 18 17  2  0
 19 18  1  0
 20 19  1  0
 21 19  2  0
 22 16  2  0
 22 21  1  0
 23 15  1  0
 24 12  1  0
 24 23  1  0
 25  7  1  0
 25 10  1  0
 26  6  1  0
 27  8  1  0
 28  9  1  0
 29 11  1  0
 30 11  1  0
 31 13  1  0
 32 13  1  0
 33 14  1  0
 34 14  1  0
 35 17  1  0
 36 18  1  0
 37 21  1  0
 38 22  1  0
 39 23  1  0
 40 23  1  0
 41 24  1  0
 42 24  1  0
 43 25  1  0
 44 12  1  0
M  CHG  1  12   1
M  END
>  <b_m_subgroup_collapsed>  (386) 
0

>  <r_i_docking_score>  (386) 
-8.1221704110460795

>  <s_m_subgroup_title>  (386) 
glide-dock_SP_D22_pv

>  <s_m_subgroupid>  (386) 
glide-dock_SP_D22_pv

>  <Molecule ChEMBL ID>  (386) 
CHEMBL303538

>  <Standard Type>  (386) 
Ki

>  <Standard Value>  (386) 
48500.0

>  <label>  (386) 
0

$$$$
CHEMBL3764251
     RDKit          3D

 57 60  0  0  1  0  0  0  0  0999 V2000
    4.7184   -1.0902  -17.6871 C   0  0  0  0  0  0  0  0  0  0  0  0
    4.7411   -0.7248  -16.2841 N   0  0  0  0  0  0  0  0  0  0  0  0
    3.8410   -1.0892  -15.3600 C   0  0  0  0  0  0  0  0  0  0  0  0
    4.0816   -0.6269  -14.1391 N   0  0  0  0  0  0  0  0  0  0  0  0
    5.2561    0.1038  -14.2890 C   0  0  0  0  0  0  0  0  0  0  0  0
    5.6688    0.0671  -15.6045 C   0  0  0  0  0  0  0  0  0  0  0  0
    6.8066    0.7209  -16.2495 C   0  0  0  0  0  0  0  0  0  0  0  0
    6.7176    1.3406  -17.4322 N   0  0  0  0  0  0  0  0  0  0  0  0
    7.9649    1.8617  -17.6822 N   0  0  0  0  0  0  0  0  0  0  0  0
    8.7152    1.5106  -16.6372 C   0  0  0  0  0  0  0  0  0  0  0  0
   10.4118    1.9857  -16.4961 S   0  0  0  0  0  0  0  0  0  0  0  0
   10.4663    2.7140  -14.8251 C   0  0  0  0  0  0  0  0  0  0  0  0
    9.3497    3.7429  -14.5394 C   0  0  0  0  0  0  0  0  0  0  0  0
    9.4383    4.3326  -13.1173 C   0  0  0  0  0  0  0  0  0  0  0  0
   10.0579    5.6534  -13.0193 N   0  0  0  0  0  0  0  0  0  0  0  0
   11.4207    5.6671  -13.5462 C   0  0  0  0  0  0  0  0  0  0  0  0
   12.0866    7.0345  -13.3911 C   0  0  0  0  0  0  0  0  0  0  0  0
   12.0850    7.3740  -12.0160 O   0  0  0  0  0  0  0  0  0  0  0  0
   10.7820    7.4764  -11.4362 C   0  0  2  0  0  0  0  0  0  0  0  0
   10.8810    7.8938   -9.9708 C   0  0  0  0  0  0  0  0  0  0  0  0
   12.1439    8.1778   -9.4078 C   0  0  0  0  0  0  0  0  0  0  0  0
   12.2599    8.5723   -8.0656 C   0  0  0  0  0  0  0  0  0  0  0  0
   11.1173    8.6810   -7.2491 C   0  0  0  0  0  0  0  0  0  0  0  0
   11.2558    9.0513   -5.7786 C   0  0  0  0  0  0  0  0  0  0  0  0
   10.4862   10.0903   -5.4687 F   0  0  0  0  0  0  0  0  0  0  0  0
   10.8894    8.0027   -5.0468 F   0  0  0  0  0  0  0  0  0  0  0  0
   12.5062    9.3722   -5.4529 F   0  0  0  0  0  0  0  0  0  0  0  0
    9.8484    8.4072   -7.8071 C   0  0  0  0  0  0  0  0  0  0  0  0
    9.7302    8.0215   -9.1605 C   0  0  0  0  0  0  0  0  0  0  0  0
   10.0395    6.1342  -11.6325 C   0  0  0  0  0  0  0  0  0  0  0  0
    8.0497    0.7690  -15.7275 N   0  0  0  0  0  0  0  0  0  0  0  0
    8.5205    0.1756  -14.4924 C   0  0  0  0  0  0  0  0  0  0  0  0
    4.3865   -0.2388  -18.2831 H   0  0  0  0  0  0  0  0  0  0  0  0
    5.7162   -1.3904  -18.0086 H   0  0  0  0  0  0  0  0  0  0  0  0
    4.0326   -1.9245  -17.8472 H   0  0  0  0  0  0  0  0  0  0  0  0
    2.9879   -1.7129  -15.5885 H   0  0  0  0  0  0  0  0  0  0  0  0
    5.7008    0.6175  -13.4492 H   0  0  0  0  0  0  0  0  0  0  0  0
   10.4679    1.9231  -14.0782 H   0  0  0  0  0  0  0  0  0  0  0  0
   11.4435    3.1840  -14.7306 H   0  0  0  0  0  0  0  0  0  0  0  0
    9.3451    4.5339  -15.2907 H   0  0  0  0  0  0  0  0  0  0  0  0
    8.3789    3.2573  -14.6239 H   0  0  0  0  0  0  0  0  0  0  0  0
    8.4212    4.4108  -12.7296 H   0  0  0  0  0  0  0  0  0  0  0  0
    9.9442    3.6271  -12.4554 H   0  0  0  0  0  0  0  0  0  0  0  0
   12.0262    4.9070  -13.0521 H   0  0  0  0  0  0  0  0  0  0  0  0
   11.4152    5.4230  -14.6079 H   0  0  0  0  0  0  0  0  0  0  0  0
   13.1124    7.0017  -13.7563 H   0  0  0  0  0  0  0  0  0  0  0  0
   11.5718    7.7984  -13.9713 H   0  0  0  0  0  0  0  0  0  0  0  0
   10.2262    8.2568  -11.9566 H   0  0  0  0  0  0  0  0  0  0  0  0
   13.0457    8.1176   -9.9988 H   0  0  0  0  0  0  0  0  0  0  0  0
   13.2410    8.7964   -7.6737 H   0  0  0  0  0  0  0  0  0  0  0  0
    8.9607    8.4830   -7.1949 H   0  0  0  0  0  0  0  0  0  0  0  0
    8.7502    7.8168   -9.5681 H   0  0  0  0  0  0  0  0  0  0  0  0
    9.0047    6.2420  -11.3043 H   0  0  0  0  0  0  0  0  0  0  0  0
   10.4800    5.3904  -10.9714 H   0  0  0  0  0  0  0  0  0  0  0  0
    8.5109    0.9188  -13.6977 H   0  0  0  0  0  0  0  0  0  0  0  0
    7.8539   -0.6277  -14.2000 H   0  0  0  0  0  0  0  0  0  0  0  0
    9.5253   -0.2274  -14.6218 H   0  0  0  0  0  0  0  0  0  0  0  0
  2  1  1  0
  3  2  1  0
  4  3  2  0
  5  4  1  0
  6  2  1  0
  6  5  2  0
  7  6  1  0
  8  7  2  0
  9  8  1  0
 10  9  2  0
 11 10  1  0
 12 11  1  0
 13 12  1  0
 14 13  1  0
 15 14  1  0
 16 15  1  0
 17 16  1  0
 18 17  1  0
 19 18  1  0
 20 19  1  0
 21 20  1  0
 22 21  2  0
 23 22  1  0
 24 23  1  0
 25 24  1  0
 26 24  1  0
 27 24  1  0
 28 23  2  0
 29 20  2  0
 29 28  1  0
 30 15  1  0
 30 19  1  0
 31  7  1  0
 31 10  1  0
 32 31  1  0
 33  1  1  0
 34  1  1  0
 35  1  1  0
 36  3  1  0
 37  5  1  0
 38 12  1  0
 39 12  1  0
 40 13  1  0
 41 13  1  0
 42 14  1  0
 43 14  1  0
 44 16  1  0
 45 16  1  0
 46 17  1  0
 47 17  1  0
 19 48  1  6
 49 21  1  0
 50 22  1  0
 51 28  1  0
 52 29  1  0
 53 30  1  0
 54 30  1  0
 55 32  1  0
 56 32  1  0
 57 32  1  0
M  END
>  <b_m_subgroup_collapsed>  (387) 
0

>  <r_i_docking_score>  (387) 
-8.1192666106150106

>  <s_m_subgroup_title>  (387) 
glide-dock_SP_D22_pv

>  <s_m_subgroupid>  (387) 
glide-dock_SP_D22_pv

>  <Molecule ChEMBL ID>  (387) 
CHEMBL3764251

>  <Standard Type>  (387) 
Ki

>  <Standard Value>  (387) 
10000.0

>  <label>  (387) 
0

$$$$
CHEMBL328119
     RDKit          3D

 51 53  0  0  1  0  0  0  0  0999 V2000
    7.0055   -0.2278  -13.5941 O   0  0  0  0  0  0  0  0  0  0  0  0
    5.8088    0.6134  -13.4461 S   0  0  0  0  0  0  0  0  0  0  0  0
    5.2861    0.9474  -12.1131 O   0  0  0  0  0  0  0  0  0  0  0  0
    6.0871    2.0750  -14.2469 O   0  0  0  0  0  0  0  0  0  0  0  0
    7.1841    2.7902  -13.8524 C   0  0  0  0  0  0  0  0  0  0  0  0
    8.4621    2.3805  -14.2831 C   0  0  0  0  0  0  0  0  0  0  0  0
    9.6079    3.0632  -13.8478 C   0  0  0  0  0  0  0  0  0  0  0  0
    9.4764    4.1780  -13.0037 C   0  0  0  0  0  0  0  0  0  0  0  0
    8.1989    4.6272  -12.5936 C   0  0  0  0  0  0  0  0  0  0  0  0
    8.0814    5.9046  -11.7625 C   0  0  2  0  0  0  0  0  0  0  0  0
    8.5507    7.0863  -12.6194 C   0  0  0  0  0  0  0  0  0  0  0  0
    8.6702    8.4038  -11.8532 C   0  0  0  0  0  0  0  0  0  0  0  0
    9.4528    8.2155  -10.5491 C   0  0  0  0  0  0  0  0  0  0  0  0
    8.8861    7.1297   -9.7025 N   0  0  2  0  0  0  0  0  0  0  0  0
    9.5962    6.9968   -8.3973 C   0  0  0  0  0  0  0  0  0  0  0  0
    9.4788    8.2094   -7.4383 C   0  0  0  0  0  0  0  0  0  0  0  0
   10.4112    8.1379   -6.2265 C   0  0  0  0  0  0  0  0  0  0  0  0
   10.8027    6.9025   -5.6663 C   0  0  0  0  0  0  0  0  0  0  0  0
   11.6316    6.8489   -4.5296 C   0  0  0  0  0  0  0  0  0  0  0  0
   12.0856    8.0367   -3.9314 C   0  0  0  0  0  0  0  0  0  0  0  0
   11.7110    9.2734   -4.4852 C   0  0  0  0  0  0  0  0  0  0  0  0
   10.8859    9.3284   -5.6284 C   0  0  0  0  0  0  0  0  0  0  0  0
    8.8693    5.8295  -10.4327 C   0  0  0  0  0  0  0  0  0  0  0  0
    7.0497    3.9250  -13.0225 C   0  0  0  0  0  0  0  0  0  0  0  0
    4.4433   -0.0730  -14.4796 C   0  0  0  0  0  0  0  0  0  0  0  0
    4.3865   -1.3923  -14.2889 F   0  0  0  0  0  0  0  0  0  0  0  0
    3.2884    0.4867  -14.1183 F   0  0  0  0  0  0  0  0  0  0  0  0
    4.7039    0.1723  -15.7622 F   0  0  0  0  0  0  0  0  0  0  0  0
    8.5658    1.5201  -14.9284 H   0  0  0  0  0  0  0  0  0  0  0  0
   10.5863    2.7350  -14.1644 H   0  0  0  0  0  0  0  0  0  0  0  0
   10.3711    4.6971  -12.6931 H   0  0  0  0  0  0  0  0  0  0  0  0
    7.0301    6.0580  -11.5169 H   0  0  0  0  0  0  0  0  0  0  0  0
    7.8569    7.2097  -13.4465 H   0  0  0  0  0  0  0  0  0  0  0  0
    9.5305    6.8536  -13.0365 H   0  0  0  0  0  0  0  0  0  0  0  0
    7.6869    8.8325  -11.6631 H   0  0  0  0  0  0  0  0  0  0  0  0
    9.1746    9.1390  -12.4804 H   0  0  0  0  0  0  0  0  0  0  0  0
    9.4312    9.1682  -10.0257 H   0  0  0  0  0  0  0  0  0  0  0  0
   10.4983    8.0015  -10.7717 H   0  0  0  0  0  0  0  0  0  0  0  0
   10.6493    6.7934   -8.6002 H   0  0  0  0  0  0  0  0  0  0  0  0
    9.1962    6.1186   -7.8923 H   0  0  0  0  0  0  0  0  0  0  0  0
    8.4521    8.2974   -7.0793 H   0  0  0  0  0  0  0  0  0  0  0  0
    9.7031    9.1459   -7.9429 H   0  0  0  0  0  0  0  0  0  0  0  0
   10.4598    5.9727   -6.0895 H   0  0  0  0  0  0  0  0  0  0  0  0
   11.9105    5.8927   -4.1112 H   0  0  0  0  0  0  0  0  0  0  0  0
   12.7130    7.9981   -3.0528 H   0  0  0  0  0  0  0  0  0  0  0  0
   12.0657   10.1724   -4.0136 H   0  0  0  0  0  0  0  0  0  0  0  0
   10.6061   10.2907   -6.0301 H   0  0  0  0  0  0  0  0  0  0  0  0
    9.8996    5.5253  -10.6137 H   0  0  0  0  0  0  0  0  0  0  0  0
    8.4192    5.0606   -9.8027 H   0  0  0  0  0  0  0  0  0  0  0  0
    6.0662    4.2523  -12.7161 H   0  0  0  0  0  0  0  0  0  0  0  0
    7.9028    7.3721   -9.5515 H   0  0  0  0  0  0  0  0  0  0  0  0
  2  1  2  0
  3  2  2  0
  4  2  1  0
  5  4  1  0
  6  5  1  0
  7  6  2  0
  8  7  1  0
  9  8  2  0
 10  9  1  0
 11 10  1  0
 12 11  1  0
 13 12  1  0
 14 13  1  0
 15 14  1  0
 16 15  1  0
 17 16  1  0
 18 17  2  0
 19 18  1  0
 20 19  2  0
 21 20  1  0
 22 17  1  0
 22 21  2  0
 23 10  1  0
 23 14  1  0
 24  5  2  0
 24  9  1  0
 25  2  1  0
 26 25  1  0
 27 25  1  0
 28 25  1  0
 29  6  1  0
 30  7  1  0
 31  8  1  0
 10 32  1  1
 33 11  1  0
 34 11  1  0
 35 12  1  0
 36 12  1  0
 37 13  1  0
 38 13  1  0
 39 15  1  0
 40 15  1  0
 41 16  1  0
 42 16  1  0
 43 18  1  0
 44 19  1  0
 45 20  1  0
 46 21  1  0
 47 22  1  0
 48 23  1  0
 49 23  1  0
 50 24  1  0
 14 51  1  1
M  CHG  1  14   1
M  END
>  <b_m_subgroup_collapsed>  (388) 
0

>  <r_i_docking_score>  (388) 
-8.1171491662327107

>  <s_m_subgroup_title>  (388) 
glide-dock_SP_D22_pv

>  <s_m_subgroupid>  (388) 
glide-dock_SP_D22_pv

>  <Molecule ChEMBL ID>  (388) 
CHEMBL328119

>  <Standard Type>  (388) 
Ki

>  <Standard Value>  (388) 
73.0

>  <label>  (388) 
1

$$$$
CHEMBL542877
     RDKit          3D

 43 46  0  0  1  0  0  0  0  0999 V2000
   11.2866    6.1724   -7.0469 O   0  0  0  0  0  0  0  0  0  0  0  0
   10.9022    7.3382   -7.0111 C   0  0  0  0  0  0  0  0  0  0  0  0
   10.8944    8.2456   -5.8830 C   0  0  0  0  0  0  0  0  0  0  0  0
   11.4869    8.1077   -4.5457 C   0  0  0  0  0  0  0  0  0  0  0  0
   11.7811    9.2729   -3.8022 C   0  0  0  0  0  0  0  0  0  0  0  0
   12.2742    9.1718   -2.4937 C   0  0  0  0  0  0  0  0  0  0  0  0
   12.4859    7.9097   -1.9211 C   0  0  0  0  0  0  0  0  0  0  0  0
   12.1859    6.7436   -2.6478 C   0  0  0  0  0  0  0  0  0  0  0  0
   11.6863    6.8400   -3.9599 C   0  0  0  0  0  0  0  0  0  0  0  0
   10.2998    9.3431   -6.3490 C   0  0  0  0  0  0  0  0  0  0  0  0
    9.8866    9.3135   -7.6482 O   0  0  0  0  0  0  0  0  0  0  0  0
   10.3655    8.1057   -8.2168 C   0  0  1  0  0  0  0  0  0  0  0  0
   11.4923    8.4409   -9.2048 C   0  0  0  0  0  0  0  0  0  0  0  0
   11.0986    7.7724  -10.5132 C   0  0  0  0  0  0  0  0  0  0  0  0
    9.9883    6.8381  -10.2185 N   0  0  2  0  0  0  0  0  0  0  0  0
    9.1136    6.5507  -11.3827 C   0  0  0  0  0  0  0  0  0  0  0  0
    9.8168    5.6578  -12.3990 C   0  0  0  0  0  0  0  0  0  0  0  0
   10.8565    6.1608  -13.2186 C   0  0  0  0  0  0  0  0  0  0  0  0
   11.5097    5.3163  -14.1369 C   0  0  0  0  0  0  0  0  0  0  0  0
   11.1245    3.9670  -14.2516 C   0  0  0  0  0  0  0  0  0  0  0  0
   10.0857    3.4627  -13.4468 C   0  0  0  0  0  0  0  0  0  0  0  0
    9.4382    4.3033  -12.5201 C   0  0  0  0  0  0  0  0  0  0  0  0
    9.2879    7.3673   -9.0292 C   0  0  0  0  0  0  0  0  0  0  0  0
   11.6267   10.2560   -4.2167 H   0  0  0  0  0  0  0  0  0  0  0  0
   12.4858   10.0652   -1.9272 H   0  0  0  0  0  0  0  0  0  0  0  0
   12.8870    7.8398   -0.9229 H   0  0  0  0  0  0  0  0  0  0  0  0
   12.3384    5.7737   -2.1967 H   0  0  0  0  0  0  0  0  0  0  0  0
   11.4442    5.9333   -4.4949 H   0  0  0  0  0  0  0  0  0  0  0  0
   10.0943   10.2636   -5.8284 H   0  0  0  0  0  0  0  0  0  0  0  0
   11.5976    9.5172   -9.3471 H   0  0  0  0  0  0  0  0  0  0  0  0
   12.4649    8.0747   -8.8694 H   0  0  0  0  0  0  0  0  0  0  0  0
   10.7590    8.5430  -11.2072 H   0  0  0  0  0  0  0  0  0  0  0  0
   11.9498    7.2613  -10.9636 H   0  0  0  0  0  0  0  0  0  0  0  0
    8.2098    6.0506  -11.0290 H   0  0  0  0  0  0  0  0  0  0  0  0
    8.7809    7.4740  -11.8593 H   0  0  0  0  0  0  0  0  0  0  0  0
   11.1576    7.1948  -13.1618 H   0  0  0  0  0  0  0  0  0  0  0  0
   12.3040    5.7047  -14.7578 H   0  0  0  0  0  0  0  0  0  0  0  0
   11.6246    3.3205  -14.9570 H   0  0  0  0  0  0  0  0  0  0  0  0
    9.7938    2.4252  -13.5283 H   0  0  0  0  0  0  0  0  0  0  0  0
    8.6513    3.8969  -11.9012 H   0  0  0  0  0  0  0  0  0  0  0  0
    8.8025    6.5630   -8.4726 H   0  0  0  0  0  0  0  0  0  0  0  0
    8.4973    8.0627   -9.3287 H   0  0  0  0  0  0  0  0  0  0  0  0
   10.4008    5.9616   -9.9298 H   0  0  0  0  0  0  0  0  0  0  0  0
  2  1  2  0
  3  2  1  0
  4  3  1  0
  5  4  2  0
  6  5  1  0
  7  6  2  0
  8  7  1  0
  9  4  1  0
  9  8  2  0
 10  3  2  0
 11 10  1  0
 12  2  1  0
 12 11  1  1
 13 12  1  0
 14 13  1  0
 15 14  1  0
 16 15  1  0
 17 16  1  0
 18 17  2  0
 19 18  1  0
 20 19  2  0
 21 20  1  0
 22 17  1  0
 22 21  2  0
 23 12  1  0
 23 15  1  0
 24  5  1  0
 25  6  1  0
 26  7  1  0
 27  8  1  0
 28  9  1  0
 29 10  1  0
 30 13  1  0
 31 13  1  0
 32 14  1  0
 33 14  1  0
 34 16  1  0
 35 16  1  0
 36 18  1  0
 37 19  1  0
 38 20  1  0
 39 21  1  0
 40 22  1  0
 41 23  1  0
 42 23  1  0
 15 43  1  1
M  CHG  1  15   1
M  END
>  <b_m_subgroup_collapsed>  (389) 
0

>  <r_i_docking_score>  (389) 
-8.1160248532342596

>  <s_m_subgroup_title>  (389) 
glide-dock_SP_D22_pv

>  <s_m_subgroupid>  (389) 
glide-dock_SP_D22_pv

>  <Molecule ChEMBL ID>  (389) 
CHEMBL542877

>  <Standard Type>  (389) 
Ki

>  <Standard Value>  (389) 
20000.0

>  <label>  (389) 
0

$$$$
CHEMBL1257927
     RDKit          3D

 62 64  0  0  1  0  0  0  0  0999 V2000
   12.5539    6.1723   -2.1735 C   0  0  0  0  0  0  0  0  0  0  0  0
   12.2085    7.3390   -3.0481 C   0  0  0  0  0  0  0  0  0  0  0  0
   12.3619    8.6493   -2.5719 C   0  0  0  0  0  0  0  0  0  0  0  0
   11.9909    9.7231   -3.3900 C   0  0  0  0  0  0  0  0  0  0  0  0
   11.4882    9.5023   -4.6880 C   0  0  0  0  0  0  0  0  0  0  0  0
   11.1407   10.7048   -5.5386 C   0  0  0  0  0  0  0  0  0  0  0  0
   11.3115    8.1750   -5.1673 C   0  0  0  0  0  0  0  0  0  0  0  0
   10.6472    7.8830   -6.4723 C   0  0  0  0  0  0  0  0  0  0  0  0
    9.7075    8.5441   -6.9150 O   0  0  0  0  0  0  0  0  0  0  0  0
   11.1834    6.7025   -7.2946 C   0  0  0  0  0  0  0  0  0  0  0  0
   10.1450    6.1362   -8.2751 C   0  0  0  0  0  0  0  0  0  0  0  0
   10.0368    6.9292   -9.5966 C   0  0  0  0  0  0  0  0  0  0  0  0
    8.8875    6.5459  -10.4609 N   0  0  2  0  0  0  0  0  0  0  0  0
    8.6103    5.0915  -10.5066 C   0  0  0  0  0  0  0  0  0  0  0  0
    7.2869    4.8955  -11.2181 C   0  0  0  0  0  0  0  0  0  0  0  0
    7.3113    5.2824  -12.6887 C   0  0  2  0  0  0  0  0  0  0  0  0
    5.9489    5.3947  -13.0438 O   0  0  0  0  0  0  0  0  0  0  0  0
    8.0462    4.2322  -13.5575 C   0  0  0  0  0  0  0  0  0  0  0  0
    9.3563    4.4991  -14.0325 C   0  0  0  0  0  0  0  0  0  0  0  0
   10.0895    3.5536  -14.7732 C   0  0  0  0  0  0  0  0  0  0  0  0
   11.4991    3.8760  -15.2272 C   0  0  0  0  0  0  0  0  0  0  0  0
    9.5092    2.3140  -15.0816 C   0  0  0  0  0  0  0  0  0  0  0  0
    8.2038    2.0331  -14.6500 C   0  0  0  0  0  0  0  0  0  0  0  0
    7.4637    2.9687  -13.8933 C   0  0  0  0  0  0  0  0  0  0  0  0
    6.0700    2.5251  -13.4543 C   0  0  0  0  0  0  0  0  0  0  0  0
    7.8468    6.7396  -12.7637 C   0  0  0  0  0  0  0  0  0  0  0  0
    9.0377    7.0924  -11.8340 C   0  0  0  0  0  0  0  0  0  0  0  0
   11.6819    7.1016   -4.3275 C   0  0  0  0  0  0  0  0  0  0  0  0
   12.8888    6.5037   -1.1999 H   0  0  0  0  0  0  0  0  0  0  0  0
   11.6571    5.5943   -2.0162 H   0  0  0  0  0  0  0  0  0  0  0  0
   13.3176    5.5461   -2.6301 H   0  0  0  0  0  0  0  0  0  0  0  0
   12.7431    8.8400   -1.5790 H   0  0  0  0  0  0  0  0  0  0  0  0
   12.0837   10.7203   -2.9933 H   0  0  0  0  0  0  0  0  0  0  0  0
   11.2850   11.6591   -5.0473 H   0  0  0  0  0  0  0  0  0  0  0  0
   11.6943   10.7043   -6.4780 H   0  0  0  0  0  0  0  0  0  0  0  0
   10.0874   10.6598   -5.7429 H   0  0  0  0  0  0  0  0  0  0  0  0
   11.4977    5.8981   -6.6358 H   0  0  0  0  0  0  0  0  0  0  0  0
   12.0792    7.0140   -7.8326 H   0  0  0  0  0  0  0  0  0  0  0  0
    9.1717    6.0800   -7.7833 H   0  0  0  0  0  0  0  0  0  0  0  0
   10.4356    5.1078   -8.4923 H   0  0  0  0  0  0  0  0  0  0  0  0
   10.9684    6.7933  -10.1468 H   0  0  0  0  0  0  0  0  0  0  0  0
    9.9536    7.9987   -9.4041 H   0  0  0  0  0  0  0  0  0  0  0  0
    8.4808    4.6767   -9.5082 H   0  0  0  0  0  0  0  0  0  0  0  0
    9.4208    4.5416  -10.9878 H   0  0  0  0  0  0  0  0  0  0  0  0
    6.6033    5.6032  -10.7493 H   0  0  0  0  0  0  0  0  0  0  0  0
    6.9000    3.8931  -11.0531 H   0  0  0  0  0  0  0  0  0  0  0  0
    5.5376    6.0113  -12.4544 H   0  0  0  0  0  0  0  0  0  0  0  0
    9.8413    5.4383  -13.8447 H   0  0  0  0  0  0  0  0  0  0  0  0
   11.9438    3.0454  -15.7759 H   0  0  0  0  0  0  0  0  0  0  0  0
   11.4948    4.7502  -15.8775 H   0  0  0  0  0  0  0  0  0  0  0  0
   12.1339    4.0913  -14.3668 H   0  0  0  0  0  0  0  0  0  0  0  0
   10.0569    1.5764  -15.6496 H   0  0  0  0  0  0  0  0  0  0  0  0
    7.7743    1.0731  -14.8986 H   0  0  0  0  0  0  0  0  0  0  0  0
    5.8551    1.5114  -13.7928 H   0  0  0  0  0  0  0  0  0  0  0  0
    5.9648    2.5165  -12.3728 H   0  0  0  0  0  0  0  0  0  0  0  0
    5.2896    3.1595  -13.8701 H   0  0  0  0  0  0  0  0  0  0  0  0
    8.0845    6.9707  -13.7938 H   0  0  0  0  0  0  0  0  0  0  0  0
    7.0480    7.4309  -12.4873 H   0  0  0  0  0  0  0  0  0  0  0  0
    9.1283    8.1777  -11.7757 H   0  0  0  0  0  0  0  0  0  0  0  0
    9.9810    6.7417  -12.2474 H   0  0  0  0  0  0  0  0  0  0  0  0
   11.5236    6.0760   -4.6226 H   0  0  0  0  0  0  0  0  0  0  0  0
    8.0420    6.9778  -10.0803 H   0  0  0  0  0  0  0  0  0  0  0  0
  2  1  1  0
  3  2  1  0
  4  3  2  0
  5  4  1  0
  6  5  1  0
  7  5  2  0
  8  7  1  0
  9  8  2  0
 10  8  1  0
 11 10  1  0
 12 11  1  0
 13 12  1  0
 14 13  1  0
 15 14  1  0
 16 15  1  0
 16 17  1  6
 18 16  1  0
 19 18  1  0
 20 19  2  0
 21 20  1  0
 22 20  1  0
 23 22  2  0
 24 18  2  0
 24 23  1  0
 25 24  1  0
 26 16  1  0
 27 13  1  0
 27 26  1  0
 28  2  2  0
 28  7  1  0
 29  1  1  0
 30  1  1  0
 31  1  1  0
 32  3  1  0
 33  4  1  0
 34  6  1  0
 35  6  1  0
 36  6  1  0
 37 10  1  0
 38 10  1  0
 39 11  1  0
 40 11  1  0
 41 12  1  0
 42 12  1  0
 43 14  1  0
 44 14  1  0
 45 15  1  0
 46 15  1  0
 47 17  1  0
 48 19  1  0
 49 21  1  0
 50 21  1  0
 51 21  1  0
 52 22  1  0
 53 23  1  0
 54 25  1  0
 55 25  1  0
 56 25  1  0
 57 26  1  0
 58 26  1  0
 59 27  1  0
 60 27  1  0
 61 28  1  0
 13 62  1  1
M  CHG  1  13   1
M  END
>  <b_m_subgroup_collapsed>  (390) 
0

>  <r_i_docking_score>  (390) 
-8.1149994712495701

>  <s_m_subgroup_title>  (390) 
glide-dock_SP_D22_pv

>  <s_m_subgroupid>  (390) 
glide-dock_SP_D22_pv

>  <Molecule ChEMBL ID>  (390) 
CHEMBL1257927

>  <Standard Type>  (390) 
Ki

>  <Standard Value>  (390) 
46.0

>  <label>  (390) 
1

$$$$
CHEMBL542646
     RDKit          3D

 43 46  0  0  1  0  0  0  0  0999 V2000
    6.9778    5.1797  -12.1986 C   0  0  0  0  0  0  0  0  0  0  0  0
    7.7792    6.1723  -11.4471 N   0  0  1  0  0  0  0  0  0  0  0  0
    8.8727    5.6190  -10.6356 C   0  0  1  0  0  0  0  0  0  0  0  0
   10.0861    5.6062  -11.5686 C   0  0  0  0  0  0  0  0  0  0  0  0
    9.7036    6.4530  -12.7599 C   0  0  0  0  0  0  0  0  0  0  0  0
    8.4718    7.1951  -12.2472 C   0  0  2  0  0  0  0  0  0  0  0  0
    8.8695    8.4089  -11.3475 C   0  0  0  0  0  0  0  0  0  0  0  0
    9.4900    8.0731   -9.9471 C   0  0  1  0  0  0  0  0  0  0  0  0
   10.9887    8.4949   -9.9253 C   0  0  0  0  0  0  0  0  0  0  0  0
   11.5872    8.3723   -8.5295 C   0  0  0  0  0  0  0  0  0  0  0  0
   12.7934    8.1717   -8.4158 O   0  0  0  0  0  0  0  0  0  0  0  0
   10.6609    8.5373   -7.3927 C   0  0  0  0  0  0  0  0  0  0  0  0
   11.0815    8.3997   -5.9919 C   0  0  0  0  0  0  0  0  0  0  0  0
   11.3051    9.5443   -5.1972 C   0  0  0  0  0  0  0  0  0  0  0  0
   11.7326    9.3967   -3.8614 C   0  0  0  0  0  0  0  0  0  0  0  0
   11.9348    8.1125   -3.3200 C   0  0  0  0  0  0  0  0  0  0  0  0
   11.6907    6.9714   -4.1085 C   0  0  0  0  0  0  0  0  0  0  0  0
   11.2738    7.1130   -5.4462 C   0  0  0  0  0  0  0  0  0  0  0  0
    9.3870    8.8572   -7.6988 C   0  0  0  0  0  0  0  0  0  0  0  0
    8.8865    8.9393   -8.9809 O   0  0  0  0  0  0  0  0  0  0  0  0
    9.1363    6.6046   -9.4829 C   0  0  0  0  0  0  0  0  0  0  0  0
    7.5985    4.5579  -12.8443 H   0  0  0  0  0  0  0  0  0  0  0  0
    6.4543    4.5229  -11.5024 H   0  0  0  0  0  0  0  0  0  0  0  0
    6.2290    5.6773  -12.8175 H   0  0  0  0  0  0  0  0  0  0  0  0
    8.6312    4.6287  -10.2457 H   0  0  0  0  0  0  0  0  0  0  0  0
   10.8860    6.1702  -11.1040 H   0  0  0  0  0  0  0  0  0  0  0  0
   10.4350    4.6099  -11.8461 H   0  0  0  0  0  0  0  0  0  0  0  0
   10.5186    7.1165  -13.0466 H   0  0  0  0  0  0  0  0  0  0  0  0
    9.4576    5.8176  -13.6130 H   0  0  0  0  0  0  0  0  0  0  0  0
    7.8283    7.5514  -13.0469 H   0  0  0  0  0  0  0  0  0  0  0  0
    7.9959    9.0392  -11.2034 H   0  0  0  0  0  0  0  0  0  0  0  0
    9.5404    9.0494  -11.9168 H   0  0  0  0  0  0  0  0  0  0  0  0
   11.0725    9.5439  -10.2069 H   0  0  0  0  0  0  0  0  0  0  0  0
   11.6087    7.9567  -10.6372 H   0  0  0  0  0  0  0  0  0  0  0  0
   11.1585   10.5318   -5.6103 H   0  0  0  0  0  0  0  0  0  0  0  0
   11.9060   10.2670   -3.2457 H   0  0  0  0  0  0  0  0  0  0  0  0
   12.2595    8.0033   -2.2955 H   0  0  0  0  0  0  0  0  0  0  0  0
   11.8330    5.9855   -3.6902 H   0  0  0  0  0  0  0  0  0  0  0  0
   11.1004    6.2328   -6.0489 H   0  0  0  0  0  0  0  0  0  0  0  0
    8.6072    8.9740   -6.9603 H   0  0  0  0  0  0  0  0  0  0  0  0
    9.9036    6.1947   -8.8261 H   0  0  0  0  0  0  0  0  0  0  0  0
    8.2266    6.6236   -8.8781 H   0  0  0  0  0  0  0  0  0  0  0  0
    7.1370    6.7069  -10.8409 H   0  0  0  0  0  0  0  0  0  0  0  0
  2  1  1  0
  3  2  1  0
  4  3  1  0
  5  4  1  0
  6  2  1  0
  6  5  1  0
  7  6  1  0
  8  7  1  0
  9  8  1  0
 10  9  1  0
 11 10  2  0
 12 10  1  0
 13 12  1  0
 14 13  2  0
 15 14  1  0
 16 15  2  0
 17 16  1  0
 18 13  1  0
 18 17  2  0
 19 12  2  0
  8 20  1  1
 20 19  1  0
 21  3  1  0
 21  8  1  0
 22  1  1  0
 23  1  1  0
 24  1  1  0
  3 25  1  1
 26  4  1  0
 27  4  1  0
 28  5  1  0
 29  5  1  0
  6 30  1  6
 31  7  1  0
 32  7  1  0
 33  9  1  0
 34  9  1  0
 35 14  1  0
 36 15  1  0
 37 16  1  0
 38 17  1  0
 39 18  1  0
 40 19  1  0
 41 21  1  0
 42 21  1  0
  2 43  1  1
M  CHG  1   2   1
M  END
>  <b_m_subgroup_collapsed>  (391) 
0

>  <r_i_docking_score>  (391) 
-8.1149962463228906

>  <s_m_subgroup_title>  (391) 
glide-dock_SP_D22_pv

>  <s_m_subgroupid>  (391) 
glide-dock_SP_D22_pv

>  <Molecule ChEMBL ID>  (391) 
CHEMBL542646

>  <Standard Type>  (391) 
Ki

>  <Standard Value>  (391) 
10000.0

>  <label>  (391) 
0

$$$$
CHEMBL4545775
     RDKit          3D

 63 66  0  0  1  0  0  0  0  0999 V2000
   15.6543   -0.4981  -20.3769 C   0  0  0  0  0  0  0  0  0  0  0  0
   14.3325   -0.0703  -19.7707 C   0  0  0  0  0  0  0  0  0  0  0  0
   13.3361   -1.0266  -19.4993 C   0  0  0  0  0  0  0  0  0  0  0  0
   12.1156   -0.6279  -18.9176 C   0  0  0  0  0  0  0  0  0  0  0  0
   11.8694    0.7217  -18.5736 C   0  0  0  0  0  0  0  0  0  0  0  0
   10.6325    1.0896  -17.9947 N   0  0  0  0  0  0  0  0  0  0  0  0
   10.1905    2.4809  -17.9910 C   0  0  0  0  0  0  0  0  0  0  0  0
   10.4253    3.1209  -16.6116 C   0  0  0  0  0  0  0  0  0  0  0  0
    9.7840    2.3160  -15.5346 N   0  0  0  0  0  0  0  0  0  0  0  0
    9.9371    2.9116  -14.1827 C   0  0  0  0  0  0  0  0  0  0  0  0
    9.0888    4.1795  -13.9553 C   0  0  0  0  0  0  0  0  0  0  0  0
    9.2863    4.7340  -12.5351 C   0  0  0  0  0  0  0  0  0  0  0  0
    8.5361    6.0556  -12.2694 C   0  0  0  0  0  0  0  0  0  0  0  0
    8.8861    6.6157  -10.9682 N   0  0  0  0  0  0  0  0  0  0  0  0
   10.0773    7.1560  -10.6621 C   0  0  0  0  0  0  0  0  0  0  0  0
   10.9483    7.3724  -11.5060 O   0  0  0  0  0  0  0  0  0  0  0  0
   10.3255    7.4838   -9.2153 C   0  0  0  0  0  0  0  0  0  0  0  0
   11.3034    8.4445   -8.8712 C   0  0  0  0  0  0  0  0  0  0  0  0
   11.6481    8.6643   -7.5240 C   0  0  0  0  0  0  0  0  0  0  0  0
   11.0245    7.9269   -6.4961 C   0  0  0  0  0  0  0  0  0  0  0  0
   11.4440    8.0940   -5.1040 C   0  0  0  0  0  0  0  0  0  0  0  0
   11.6853    9.3872   -4.5434 C   0  0  0  0  0  0  0  0  0  0  0  0
   12.0825    9.3449   -3.2328 C   0  0  0  0  0  0  0  0  0  0  0  0
   12.1570    7.7114   -2.6394 S   0  0  0  0  0  0  0  0  0  0  0  0
   11.6846    7.0918   -4.1964 C   0  0  0  0  0  0  0  0  0  0  0  0
   10.0280    6.9874   -6.8331 C   0  0  0  0  0  0  0  0  0  0  0  0
    9.6812    6.7648   -8.1801 C   0  0  0  0  0  0  0  0  0  0  0  0
   10.2339    0.8964  -15.5613 C   0  0  0  0  0  0  0  0  0  0  0  0
   10.0439    0.2536  -16.9485 C   0  0  0  0  0  0  0  0  0  0  0  0
   12.8855    1.6710  -18.8479 C   0  0  0  0  0  0  0  0  0  0  0  0
   14.1000    1.2810  -19.4472 C   0  0  0  0  0  0  0  0  0  0  0  0
   16.0766    0.2947  -20.9954 H   0  0  0  0  0  0  0  0  0  0  0  0
   16.3696   -0.7375  -19.5897 H   0  0  0  0  0  0  0  0  0  0  0  0
   15.5299   -1.3838  -21.0010 H   0  0  0  0  0  0  0  0  0  0  0  0
   13.5082   -2.0650  -19.7456 H   0  0  0  0  0  0  0  0  0  0  0  0
   11.3622   -1.3820  -18.7524 H   0  0  0  0  0  0  0  0  0  0  0  0
    9.1249    2.4928  -18.2208 H   0  0  0  0  0  0  0  0  0  0  0  0
   10.6614    3.0629  -18.7829 H   0  0  0  0  0  0  0  0  0  0  0  0
   10.0269    4.1359  -16.6221 H   0  0  0  0  0  0  0  0  0  0  0  0
   11.4965    3.2028  -16.4145 H   0  0  0  0  0  0  0  0  0  0  0  0
   10.9932    3.1102  -13.9871 H   0  0  0  0  0  0  0  0  0  0  0  0
    9.6237    2.1720  -13.4470 H   0  0  0  0  0  0  0  0  0  0  0  0
    8.0329    3.9582  -14.1193 H   0  0  0  0  0  0  0  0  0  0  0  0
    9.3624    4.9573  -14.6692 H   0  0  0  0  0  0  0  0  0  0  0  0
   10.3548    4.8838  -12.3772 H   0  0  0  0  0  0  0  0  0  0  0  0
    8.9750    3.9894  -11.8025 H   0  0  0  0  0  0  0  0  0  0  0  0
    7.4589    5.8857  -12.2951 H   0  0  0  0  0  0  0  0  0  0  0  0
    8.7532    6.7880  -13.0464 H   0  0  0  0  0  0  0  0  0  0  0  0
    8.1513    6.6424  -10.2705 H   0  0  0  0  0  0  0  0  0  0  0  0
   11.8273    8.9933   -9.6428 H   0  0  0  0  0  0  0  0  0  0  0  0
   12.4285    9.3727   -7.2874 H   0  0  0  0  0  0  0  0  0  0  0  0
   11.5592   10.2955   -5.1152 H   0  0  0  0  0  0  0  0  0  0  0  0
   12.3284   10.1708   -2.5800 H   0  0  0  0  0  0  0  0  0  0  0  0
   11.5929    6.0259   -4.3468 H   0  0  0  0  0  0  0  0  0  0  0  0
    9.5365    6.4165   -6.0587 H   0  0  0  0  0  0  0  0  0  0  0  0
    8.9365    6.0145   -8.4034 H   0  0  0  0  0  0  0  0  0  0  0  0
   11.2861    0.8509  -15.2800 H   0  0  0  0  0  0  0  0  0  0  0  0
    9.6863    0.3145  -14.8180 H   0  0  0  0  0  0  0  0  0  0  0  0
    8.9816    0.1367  -17.1648 H   0  0  0  0  0  0  0  0  0  0  0  0
   10.4621   -0.7517  -16.9287 H   0  0  0  0  0  0  0  0  0  0  0  0
   12.7625    2.7124  -18.5958 H   0  0  0  0  0  0  0  0  0  0  0  0
   14.8591    2.0231  -19.6444 H   0  0  0  0  0  0  0  0  0  0  0  0
    8.7942    2.2935  -15.7357 H   0  0  0  0  0  0  0  0  0  0  0  0
  2  1  1  0
  3  2  1  0
  4  3  2  0
  5  4  1  0
  6  5  1  0
  7  6  1  0
  8  7  1  0
  9  8  1  0
 10  9  1  0
 11 10  1  0
 12 11  1  0
 13 12  1  0
 14 13  1  0
 15 14  1  0
 16 15  2  0
 17 15  1  0
 18 17  1  0
 19 18  2  0
 20 19  1  0
 21 20  1  0
 22 21  1  0
 23 22  2  0
 24 23  1  0
 25 21  2  0
 25 24  1  0
 26 20  2  0
 27 17  2  0
 27 26  1  0
 28  9  1  0
 29  6  1  0
 29 28  1  0
 30  5  2  0
 31  2  2  0
 31 30  1  0
 32  1  1  0
 33  1  1  0
 34  1  1  0
 35  3  1  0
 36  4  1  0
 37  7  1  0
 38  7  1  0
 39  8  1  0
 40  8  1  0
 41 10  1  0
 42 10  1  0
 43 11  1  0
 44 11  1  0
 45 12  1  0
 46 12  1  0
 47 13  1  0
 48 13  1  0
 49 14  1  0
 50 18  1  0
 51 19  1  0
 52 22  1  0
 53 23  1  0
 54 25  1  0
 55 26  1  0
 56 27  1  0
 57 28  1  0
 58 28  1  0
 59 29  1  0
 60 29  1  0
 61 30  1  0
 62 31  1  0
 63  9  1  0
M  CHG  1   9   1
M  END
>  <b_m_subgroup_collapsed>  (392) 
0

>  <r_i_docking_score>  (392) 
-8.1128706160700208

>  <s_m_subgroup_title>  (392) 
glide-dock_SP_D22_pv

>  <s_m_subgroupid>  (392) 
glide-dock_SP_D22_pv

>  <Molecule ChEMBL ID>  (392) 
CHEMBL4545775

>  <Standard Type>  (392) 
Ki

>  <Standard Value>  (392) 
24994.0

>  <label>  (392) 
0

$$$$
CHEMBL156369
     RDKit          3D

 46 49  0  0  1  0  0  0  0  0999 V2000
   11.9347    6.7002  -13.2970 C   0  0  0  0  0  0  0  0  0  0  0  0
   11.0444    5.4857  -13.4870 C   0  0  0  0  0  0  0  0  0  0  0  0
   11.5144    4.4225  -14.2306 C   0  0  0  0  0  0  0  0  0  0  0  0
   10.7101    3.2783  -14.4467 C   0  0  0  0  0  0  0  0  0  0  0  0
    9.4378    3.2174  -13.9306 C   0  0  0  0  0  0  0  0  0  0  0  0
    8.9699    4.2662  -13.2009 N   0  0  0  0  0  0  0  0  0  0  0  0
    7.7222    4.3396  -12.6472 N   0  0  0  0  0  0  0  0  0  0  0  0
    7.7147    5.5008  -12.0367 C   0  0  0  0  0  0  0  0  0  0  0  0
    8.9266    6.2332  -12.1496 C   0  0  0  0  0  0  0  0  0  0  0  0
    9.1788    7.5790  -11.5282 C   0  0  0  0  0  0  0  0  0  0  0  0
    9.2862    7.5065  -10.0489 N   0  0  0  0  0  0  0  0  0  0  0  0
   10.3733    6.6228   -9.5559 C   0  0  0  0  0  0  0  0  0  0  0  0
   10.4079    6.5585   -8.0198 C   0  0  0  0  0  0  0  0  0  0  0  0
   10.4238    7.8949   -7.4257 N   0  0  0  0  0  0  0  0  0  0  0  0
   10.8894    8.0569   -6.0981 C   0  0  0  0  0  0  0  0  0  0  0  0
   11.0892    9.3490   -5.5498 C   0  0  0  0  0  0  0  0  0  0  0  0
   11.5657    9.5135   -4.2336 C   0  0  0  0  0  0  0  0  0  0  0  0
   11.8824    8.3916   -3.4483 C   0  0  0  0  0  0  0  0  0  0  0  0
   12.4863    8.5898   -1.8467 Cl  0  0  0  0  0  0  0  0  0  0  0  0
   11.6897    7.1029   -3.9716 C   0  0  0  0  0  0  0  0  0  0  0  0
   11.1975    6.9416   -5.2795 C   0  0  0  0  0  0  0  0  0  0  0  0
    9.3426    8.7628   -7.8891 C   0  0  0  0  0  0  0  0  0  0  0  0
    9.3326    8.8506   -9.4250 C   0  0  0  0  0  0  0  0  0  0  0  0
    9.7292    5.4277  -12.9296 C   0  0  0  0  0  0  0  0  0  0  0  0
   11.4640    7.5907  -13.7112 H   0  0  0  0  0  0  0  0  0  0  0  0
   12.1453    6.8713  -12.2423 H   0  0  0  0  0  0  0  0  0  0  0  0
   12.8884    6.5746  -13.8090 H   0  0  0  0  0  0  0  0  0  0  0  0
   12.5130    4.4575  -14.6565 H   0  0  0  0  0  0  0  0  0  0  0  0
   11.0948    2.4440  -15.0259 H   0  0  0  0  0  0  0  0  0  0  0  0
    8.7739    2.3691  -14.0625 H   0  0  0  0  0  0  0  0  0  0  0  0
    6.8259    5.8050  -11.4991 H   0  0  0  0  0  0  0  0  0  0  0  0
   10.0757    8.0482  -11.9294 H   0  0  0  0  0  0  0  0  0  0  0  0
    8.3555    8.2471  -11.7892 H   0  0  0  0  0  0  0  0  0  0  0  0
   10.2488    5.6121   -9.9451 H   0  0  0  0  0  0  0  0  0  0  0  0
   11.3289    6.9950   -9.9265 H   0  0  0  0  0  0  0  0  0  0  0  0
    9.5368    6.0162   -7.6479 H   0  0  0  0  0  0  0  0  0  0  0  0
   11.2901    5.9899   -7.7293 H   0  0  0  0  0  0  0  0  0  0  0  0
   10.8977   10.2387   -6.1288 H   0  0  0  0  0  0  0  0  0  0  0  0
   11.6847   10.5043   -3.8226 H   0  0  0  0  0  0  0  0  0  0  0  0
   11.9156    6.2338   -3.3705 H   0  0  0  0  0  0  0  0  0  0  0  0
   11.0571    5.9305   -5.6250 H   0  0  0  0  0  0  0  0  0  0  0  0
    8.3936    8.3619   -7.5286 H   0  0  0  0  0  0  0  0  0  0  0  0
    9.4209    9.7700   -7.4909 H   0  0  0  0  0  0  0  0  0  0  0  0
   10.2245    9.3741   -9.7697 H   0  0  0  0  0  0  0  0  0  0  0  0
    8.4701    9.4309   -9.7511 H   0  0  0  0  0  0  0  0  0  0  0  0
    8.4005    7.1163   -9.7435 H   0  0  0  0  0  0  0  0  0  0  0  0
  2  1  1  0
  3  2  2  0
  4  3  1  0
  5  4  2  0
  6  5  1  0
  7  6  1  0
  8  7  2  0
  9  8  1  0
 10  9  1  0
 11 10  1  0
 12 11  1  0
 13 12  1  0
 14 13  1  0
 15 14  1  0
 16 15  1  0
 17 16  2  0
 18 17  1  0
 19 18  1  0
 20 18  2  0
 21 15  2  0
 21 20  1  0
 22 14  1  0
 23 11  1  0
 23 22  1  0
 24  2  1  0
 24  6  1  0
 24  9  2  0
 25  1  1  0
 26  1  1  0
 27  1  1  0
 28  3  1  0
 29  4  1  0
 30  5  1  0
 31  8  1  0
 32 10  1  0
 33 10  1  0
 34 12  1  0
 35 12  1  0
 36 13  1  0
 37 13  1  0
 38 16  1  0
 39 17  1  0
 40 20  1  0
 41 21  1  0
 42 22  1  0
 43 22  1  0
 44 23  1  0
 45 23  1  0
 46 11  1  0
M  CHG  1  11   1
M  END
>  <b_m_subgroup_collapsed>  (393) 
0

>  <r_i_docking_score>  (393) 
-8.1107204702765596

>  <s_m_subgroup_title>  (393) 
glide-dock_SP_D22_pv

>  <s_m_subgroupid>  (393) 
glide-dock_SP_D22_pv

>  <Molecule ChEMBL ID>  (393) 
CHEMBL156369

>  <Standard Type>  (393) 
Ki

>  <Standard Value>  (393) 
12000.0

>  <label>  (393) 
0

$$$$
CHEMBL3896746
     RDKit          3D

 56 59  0  0  1  0  0  0  0  0999 V2000
   12.0900    9.3794   -1.6013 O   0  0  0  0  0  0  0  0  0  0  0  0
   12.0859    8.8245   -2.6874 C   0  0  0  0  0  0  0  0  0  0  0  0
   12.5157    7.3700   -2.7552 C   0  0  0  0  0  0  0  0  0  0  0  0
   11.6817    6.5715   -3.7365 C   0  0  0  0  0  0  0  0  0  0  0  0
   11.4546    7.3071   -5.0302 C   0  0  0  0  0  0  0  0  0  0  0  0
   11.3003    6.5839   -6.2184 C   0  0  0  0  0  0  0  0  0  0  0  0
   11.1842    7.2576   -7.4333 C   0  0  0  0  0  0  0  0  0  0  0  0
   11.1402    8.6694   -7.4798 C   0  0  0  0  0  0  0  0  0  0  0  0
   10.9832    9.3723   -8.6558 O   0  0  0  0  0  0  0  0  0  0  0  0
   10.9464    8.6641   -9.8918 C   0  0  0  0  0  0  0  0  0  0  0  0
    9.6798    7.8479  -10.0480 C   0  0  0  0  0  0  0  0  0  0  0  0
    9.6971    6.5626  -10.4339 C   0  0  0  0  0  0  0  0  0  0  0  0
    8.4995    5.6393  -10.4652 C   0  0  0  0  0  0  0  0  0  0  0  0
    8.1342    5.2091  -11.8351 N   0  0  0  0  0  0  0  0  0  0  0  0
    9.1899    4.3798  -12.4846 C   0  0  0  0  0  0  0  0  0  0  0  0
    8.7768    3.8896  -13.8846 C   0  0  0  0  0  0  0  0  0  0  0  0
    7.4578    3.2685  -13.8460 N   0  0  0  0  0  0  0  0  0  0  0  0
    7.1676    2.1760  -14.6966 C   0  0  0  0  0  0  0  0  0  0  0  0
    7.8015    2.1143  -15.9621 C   0  0  0  0  0  0  0  0  0  0  0  0
    7.5418    1.0663  -16.8604 C   0  0  0  0  0  0  0  0  0  0  0  0
    6.6357    0.0531  -16.5092 C   0  0  0  0  0  0  0  0  0  0  0  0
    6.0043    0.0842  -15.2538 C   0  0  0  0  0  0  0  0  0  0  0  0
    4.8739   -1.1629  -14.8688 Cl  0  0  0  0  0  0  0  0  0  0  0  0
    6.2747    1.1234  -14.3335 C   0  0  0  0  0  0  0  0  0  0  0  0
    5.4894    1.0674  -12.7914 Cl  0  0  0  0  0  0  0  0  0  0  0  0
    6.3990    4.0827  -13.2555 C   0  0  0  0  0  0  0  0  0  0  0  0
    6.8046    4.5420  -11.8470 C   0  0  0  0  0  0  0  0  0  0  0  0
   11.2761    9.3984   -6.2716 C   0  0  0  0  0  0  0  0  0  0  0  0
   11.4637    8.7177   -5.0458 C   0  0  0  0  0  0  0  0  0  0  0  0
   11.6746    9.4193   -3.8255 N   0  0  0  0  0  0  0  0  0  0  0  0
   13.5504    7.3704   -3.0920 H   0  0  0  0  0  0  0  0  0  0  0  0
   12.4931    6.9063   -1.7699 H   0  0  0  0  0  0  0  0  0  0  0  0
   10.7333    6.2582   -3.2971 H   0  0  0  0  0  0  0  0  0  0  0  0
   12.2217    5.6566   -3.9563 H   0  0  0  0  0  0  0  0  0  0  0  0
   11.3761    5.5136   -6.2246 H   0  0  0  0  0  0  0  0  0  0  0  0
   11.1398    6.6419   -8.3130 H   0  0  0  0  0  0  0  0  0  0  0  0
   11.8337    8.0401  -10.0041 H   0  0  0  0  0  0  0  0  0  0  0  0
   10.9861    9.3728  -10.7089 H   0  0  0  0  0  0  0  0  0  0  0  0
    8.7497    8.3354   -9.7967 H   0  0  0  0  0  0  0  0  0  0  0  0
   10.6511    6.1475  -10.7027 H   0  0  0  0  0  0  0  0  0  0  0  0
    8.7072    4.7696   -9.8397 H   0  0  0  0  0  0  0  0  0  0  0  0
    7.6851    6.1701   -9.9915 H   0  0  0  0  0  0  0  0  0  0  0  0
   10.1199    4.9410  -12.5740 H   0  0  0  0  0  0  0  0  0  0  0  0
    9.4060    3.5177  -11.8490 H   0  0  0  0  0  0  0  0  0  0  0  0
    8.7552    4.7241  -14.5875 H   0  0  0  0  0  0  0  0  0  0  0  0
    9.5269    3.1838  -14.2447 H   0  0  0  0  0  0  0  0  0  0  0  0
    8.4912    2.8823  -16.2764 H   0  0  0  0  0  0  0  0  0  0  0  0
    8.0332    1.0375  -17.8222 H   0  0  0  0  0  0  0  0  0  0  0  0
    6.4240   -0.7515  -17.1998 H   0  0  0  0  0  0  0  0  0  0  0  0
    6.2510    4.9715  -13.8558 H   0  0  0  0  0  0  0  0  0  0  0  0
    5.4346    3.5799  -13.2375 H   0  0  0  0  0  0  0  0  0  0  0  0
    6.8271    3.6834  -11.1745 H   0  0  0  0  0  0  0  0  0  0  0  0
    6.0525    5.2295  -11.4554 H   0  0  0  0  0  0  0  0  0  0  0  0
   11.2683   10.4783   -6.2986 H   0  0  0  0  0  0  0  0  0  0  0  0
   11.4575   10.4039   -3.7940 H   0  0  0  0  0  0  0  0  0  0  0  0
    8.0280    6.0508  -12.3820 H   0  0  0  0  0  0  0  0  0  0  0  0
  2  1  2  0
  3  2  1  0
  4  3  1  0
  5  4  1  0
  6  5  1  0
  7  6  2  0
  8  7  1  0
  9  8  1  0
 10  9  1  0
 11 10  1  0
 12 11  2  0
 13 12  1  0
 14 13  1  0
 15 14  1  0
 16 15  1  0
 17 16  1  0
 18 17  1  0
 19 18  2  0
 20 19  1  0
 21 20  2  0
 22 21  1  0
 23 22  1  0
 24 18  1  0
 24 22  2  0
 25 24  1  0
 26 17  1  0
 27 14  1  0
 27 26  1  0
 28  8  2  0
 29  5  2  0
 29 28  1  0
 30  2  1  0
 30 29  1  0
 31  3  1  0
 32  3  1  0
 33  4  1  0
 34  4  1  0
 35  6  1  0
 36  7  1  0
 37 10  1  0
 38 10  1  0
 39 11  1  0
 40 12  1  0
 41 13  1  0
 42 13  1  0
 43 15  1  0
 44 15  1  0
 45 16  1  0
 46 16  1  0
 47 19  1  0
 48 20  1  0
 49 21  1  0
 50 26  1  0
 51 26  1  0
 52 27  1  0
 53 27  1  0
 54 28  1  0
 55 30  1  0
 56 14  1  0
M  CHG  1  14   1
M  END
>  <b_m_subgroup_collapsed>  (394) 
0

>  <r_i_docking_score>  (394) 
-8.1100204046302409

>  <s_m_subgroup_title>  (394) 
glide-dock_SP_D22_pv

>  <s_m_subgroupid>  (394) 
glide-dock_SP_D22_pv

>  <Molecule ChEMBL ID>  (394) 
CHEMBL3896746

>  <Standard Type>  (394) 
Ki

>  <Standard Value>  (394) 
15.0

>  <label>  (394) 
1

$$$$
CHEMBL164604
     RDKit          3D

 58 61  0  0  1  0  0  0  0  0999 V2000
   10.5265    7.5885   -8.6229 C   0  0  0  0  0  0  0  0  0  0  0  0
   10.1399    7.3173   -7.3653 C   0  0  0  0  0  0  0  0  0  0  0  0
   10.7449    8.0121   -6.2196 C   0  0  0  0  0  0  0  0  0  0  0  0
   10.8030    9.4187   -6.2059 C   0  0  0  0  0  0  0  0  0  0  0  0
   11.2859   10.0968   -5.0707 C   0  0  0  0  0  0  0  0  0  0  0  0
   11.7500    9.3692   -3.9594 C   0  0  0  0  0  0  0  0  0  0  0  0
   11.7245    7.9603   -3.9853 C   0  0  0  0  0  0  0  0  0  0  0  0
   11.2228    7.2788   -5.1116 C   0  0  0  0  0  0  0  0  0  0  0  0
    8.9413    6.4234   -7.1388 C   0  0  0  0  0  0  0  0  0  0  0  0
    8.6786    5.4664   -8.3055 C   0  0  0  0  0  0  0  0  0  0  0  0
    8.7026    6.1334   -9.6318 N   0  0  2  0  0  0  0  0  0  0  0  0
    8.5074    5.1165  -10.6987 C   0  0  0  0  0  0  0  0  0  0  0  0
    8.2225    5.7089  -12.0938 C   0  0  0  0  0  0  0  0  0  0  0  0
    7.9196    4.6552  -13.1865 C   0  0  1  0  0  0  0  0  0  0  0  0
    9.0705    3.6472  -13.4098 C   0  0  0  0  0  0  0  0  0  0  0  0
    8.7488    2.6543  -14.5400 C   0  0  0  0  0  0  0  0  0  0  0  0
    7.4120    1.9136  -14.3235 C   0  0  2  0  0  0  0  0  0  0  0  0
    7.1412    1.0487  -15.4638 N   0  0  0  0  0  0  0  0  0  0  0  0
    6.0836    0.1711  -15.5758 C   0  0  0  0  0  0  0  0  0  0  0  0
    5.3621   -0.1155  -14.4869 N   0  0  0  0  0  0  0  0  0  0  0  0
    4.2884   -0.9100  -14.6649 C   0  0  0  0  0  0  0  0  0  0  0  0
    3.9530   -1.4293  -15.9255 C   0  0  0  0  0  0  0  0  0  0  0  0
    4.7975   -1.0753  -16.9913 C   0  0  0  0  0  0  0  0  0  0  0  0
    5.8557   -0.2591  -16.8138 N   0  0  0  0  0  0  0  0  0  0  0  0
    6.2723    2.9318  -14.0949 C   0  0  0  0  0  0  0  0  0  0  0  0
    6.5829    3.9203  -12.9602 C   0  0  0  0  0  0  0  0  0  0  0  0
    9.9132    6.9716   -9.8712 C   0  0  0  0  0  0  0  0  0  0  0  0
   11.3454    8.2720   -8.7930 H   0  0  0  0  0  0  0  0  0  0  0  0
   10.4322    9.9855   -7.0448 H   0  0  0  0  0  0  0  0  0  0  0  0
   11.2862   11.1757   -5.0505 H   0  0  0  0  0  0  0  0  0  0  0  0
   12.1236    9.8877   -3.0884 H   0  0  0  0  0  0  0  0  0  0  0  0
   12.0813    7.3995   -3.1332 H   0  0  0  0  0  0  0  0  0  0  0  0
   11.1838    6.1986   -5.1122 H   0  0  0  0  0  0  0  0  0  0  0  0
    9.0943    5.8183   -6.2482 H   0  0  0  0  0  0  0  0  0  0  0  0
    8.0859    7.0669   -6.9441 H   0  0  0  0  0  0  0  0  0  0  0  0
    9.4320    4.6771   -8.2923 H   0  0  0  0  0  0  0  0  0  0  0  0
    7.7081    4.9895   -8.1520 H   0  0  0  0  0  0  0  0  0  0  0  0
    9.3908    4.4793  -10.7367 H   0  0  0  0  0  0  0  0  0  0  0  0
    7.6856    4.4673  -10.4103 H   0  0  0  0  0  0  0  0  0  0  0  0
    7.3792    6.3991  -12.0257 H   0  0  0  0  0  0  0  0  0  0  0  0
    9.0728    6.3081  -12.4219 H   0  0  0  0  0  0  0  0  0  0  0  0
    7.8129    5.2117  -14.1173 H   0  0  0  0  0  0  0  0  0  0  0  0
    9.9896    4.1824  -13.6511 H   0  0  0  0  0  0  0  0  0  0  0  0
    9.2852    3.0851  -12.5031 H   0  0  0  0  0  0  0  0  0  0  0  0
    9.5618    1.9320  -14.6274 H   0  0  0  0  0  0  0  0  0  0  0  0
    8.7217    3.1982  -15.4855 H   0  0  0  0  0  0  0  0  0  0  0  0
    7.4955    1.2676  -13.4484 H   0  0  0  0  0  0  0  0  0  0  0  0
    7.6439    1.2240  -16.3181 H   0  0  0  0  0  0  0  0  0  0  0  0
    3.6957   -1.1406  -13.7920 H   0  0  0  0  0  0  0  0  0  0  0  0
    3.1110   -2.0914  -16.0636 H   0  0  0  0  0  0  0  0  0  0  0  0
    4.6170   -1.4385  -17.9928 H   0  0  0  0  0  0  0  0  0  0  0  0
    5.3415    2.4214  -13.8477 H   0  0  0  0  0  0  0  0  0  0  0  0
    6.0858    3.4714  -15.0208 H   0  0  0  0  0  0  0  0  0  0  0  0
    6.5953    3.3748  -12.0164 H   0  0  0  0  0  0  0  0  0  0  0  0
    5.7683    4.6428  -12.8809 H   0  0  0  0  0  0  0  0  0  0  0  0
    9.6571    7.7707  -10.5686 H   0  0  0  0  0  0  0  0  0  0  0  0
   10.6956    6.3774  -10.3431 H   0  0  0  0  0  0  0  0  0  0  0  0
    7.8958    6.7565   -9.6578 H   0  0  0  0  0  0  0  0  0  0  0  0
  2  1  2  0
  3  2  1  0
  4  3  2  0
  5  4  1  0
  6  5  2  0
  7  6  1  0
  8  3  1  0
  8  7  2  0
  9  2  1  0
 10  9  1  0
 11 10  1  0
 12 11  1  0
 13 12  1  0
 14 13  1  0
 15 14  1  0
 16 15  1  0
 17 16  1  0
 18 17  1  0
 19 18  1  0
 20 19  2  0
 21 20  1  0
 22 21  2  0
 23 22  1  0
 24 19  1  0
 24 23  2  0
 25 17  1  0
 26 14  1  0
 26 25  1  0
 27  1  1  0
 27 11  1  0
 28  1  1  0
 29  4  1  0
 30  5  1  0
 31  6  1  0
 32  7  1  0
 33  8  1  0
 34  9  1  0
 35  9  1  0
 36 10  1  0
 37 10  1  0
 38 12  1  0
 39 12  1  0
 40 13  1  0
 41 13  1  0
 14 42  1  6
 43 15  1  0
 44 15  1  0
 45 16  1  0
 46 16  1  0
 17 47  1  1
 48 18  1  0
 49 21  1  0
 50 22  1  0
 51 23  1  0
 52 25  1  0
 53 25  1  0
 54 26  1  0
 55 26  1  0
 56 27  1  0
 57 27  1  0
 11 58  1  1
M  CHG  1  11   1
M  END
>  <b_m_subgroup_collapsed>  (395) 
0

>  <r_i_docking_score>  (395) 
-8.1087327063522192

>  <s_m_subgroup_title>  (395) 
glide-dock_SP_D22_pv

>  <s_m_subgroupid>  (395) 
glide-dock_SP_D22_pv

>  <Molecule ChEMBL ID>  (395) 
CHEMBL164604

>  <Standard Type>  (395) 
Ki

>  <Standard Value>  (395) 
4.7

>  <label>  (395) 
1

$$$$
CHEMBL4751170
     RDKit          3D

 55 59  0  0  1  0  0  0  0  0999 V2000
   12.5394    8.2829   -1.7461 F   0  0  0  0  0  0  0  0  0  0  0  0
   12.0804    8.2043   -3.0166 C   0  0  0  0  0  0  0  0  0  0  0  0
   11.7656    9.3732   -3.7280 C   0  0  0  0  0  0  0  0  0  0  0  0
   11.2861    9.2909   -5.0508 C   0  0  0  0  0  0  0  0  0  0  0  0
   11.1029    8.0382   -5.6880 C   0  0  0  0  0  0  0  0  0  0  0  0
   10.6347    7.9547   -7.0905 C   0  0  0  0  0  0  0  0  0  0  0  0
   10.9875    8.9526   -8.0250 C   0  0  0  0  0  0  0  0  0  0  0  0
   10.5732    8.9753   -9.3058 N   0  0  0  0  0  0  0  0  0  0  0  0
    9.7700    7.9855   -9.7271 C   0  0  0  0  0  0  0  0  0  0  0  0
    9.3963    6.8892   -8.9213 C   0  0  0  0  0  0  0  0  0  0  0  0
    8.4922    5.7722   -9.4480 C   0  0  0  0  0  0  0  0  0  0  0  0
    8.4320    5.6781  -10.9340 N   0  0  0  0  0  0  0  0  0  0  0  0
    9.6855    5.1661  -11.5230 C   0  0  0  0  0  0  0  0  0  0  0  0
    9.6742    5.1511  -13.0585 C   0  0  0  0  0  0  0  0  0  0  0  0
    8.4659    4.5155  -13.5756 N   0  0  0  0  0  0  0  0  0  0  0  0
    8.5406    3.3603  -14.3938 C   0  0  0  0  0  0  0  0  0  0  0  0
    7.5891    2.3211  -14.2469 C   0  0  0  0  0  0  0  0  0  0  0  0
    7.6630    1.1432  -15.0109 C   0  0  0  0  0  0  0  0  0  0  0  0
    8.6959    0.9786  -15.9457 C   0  0  0  0  0  0  0  0  0  0  0  0
    9.6417    2.0008  -16.1345 C   0  0  0  0  0  0  0  0  0  0  0  0
    9.5475    3.2103  -15.3904 C   0  0  0  0  0  0  0  0  0  0  0  0
   10.4201    4.2462  -15.6540 O   0  0  0  0  0  0  0  0  0  0  0  0
   11.1618    4.1338  -16.8610 C   0  0  0  0  0  0  0  0  0  0  0  0
   11.7222    2.7124  -16.9773 C   0  0  0  0  0  0  0  0  0  0  0  0
   10.6397    1.7968  -17.0598 O   0  0  0  0  0  0  0  0  0  0  0  0
    7.2107    4.9751  -12.9859 C   0  0  0  0  0  0  0  0  0  0  0  0
    7.2661    4.9282  -11.4480 C   0  0  0  0  0  0  0  0  0  0  0  0
    9.8278    6.8946   -7.5744 C   0  0  0  0  0  0  0  0  0  0  0  0
   11.3984    6.8732   -4.9438 C   0  0  0  0  0  0  0  0  0  0  0  0
   11.8888    6.9529   -3.6246 C   0  0  0  0  0  0  0  0  0  0  0  0
   11.8895   10.3339   -3.2502 H   0  0  0  0  0  0  0  0  0  0  0  0
   11.0538   10.2088   -5.5703 H   0  0  0  0  0  0  0  0  0  0  0  0
   11.6270    9.7720   -7.7363 H   0  0  0  0  0  0  0  0  0  0  0  0
    9.4428    8.0680  -10.7529 H   0  0  0  0  0  0  0  0  0  0  0  0
    8.7940    4.8132   -9.0238 H   0  0  0  0  0  0  0  0  0  0  0  0
    7.5090    5.9850   -9.0530 H   0  0  0  0  0  0  0  0  0  0  0  0
   10.4860    5.8103  -11.1886 H   0  0  0  0  0  0  0  0  0  0  0  0
    9.8827    4.1623  -11.1428 H   0  0  0  0  0  0  0  0  0  0  0  0
    9.7269    6.1687  -13.4465 H   0  0  0  0  0  0  0  0  0  0  0  0
   10.5796    4.6393  -13.3809 H   0  0  0  0  0  0  0  0  0  0  0  0
    6.8041    2.3870  -13.5098 H   0  0  0  0  0  0  0  0  0  0  0  0
    6.9376    0.3555  -14.8660 H   0  0  0  0  0  0  0  0  0  0  0  0
    8.7633    0.0651  -16.5185 H   0  0  0  0  0  0  0  0  0  0  0  0
   10.5239    4.3738  -17.7129 H   0  0  0  0  0  0  0  0  0  0  0  0
   11.9719    4.8628  -16.8470 H   0  0  0  0  0  0  0  0  0  0  0  0
   12.3369    2.6153  -17.8718 H   0  0  0  0  0  0  0  0  0  0  0  0
   12.3538    2.4692  -16.1223 H   0  0  0  0  0  0  0  0  0  0  0  0
    7.0717    6.0114  -13.2907 H   0  0  0  0  0  0  0  0  0  0  0  0
    6.3406    4.4408  -13.3656 H   0  0  0  0  0  0  0  0  0  0  0  0
    7.2868    3.8966  -11.0913 H   0  0  0  0  0  0  0  0  0  0  0  0
    6.3613    5.3915  -11.0589 H   0  0  0  0  0  0  0  0  0  0  0  0
    9.5207    6.0979   -6.9131 H   0  0  0  0  0  0  0  0  0  0  0  0
   11.2786    5.8976   -5.3897 H   0  0  0  0  0  0  0  0  0  0  0  0
   12.1154    6.0495   -3.0779 H   0  0  0  0  0  0  0  0  0  0  0  0
    8.2837    6.6235  -11.2600 H   0  0  0  0  0  0  0  0  0  0  0  0
  2  1  1  0
  3  2  1  0
  4  3  2  0
  5  4  1  0
  6  5  1  0
  7  6  1  0
  8  7  2  0
  9  8  1  0
 10  9  2  0
 11 10  1  0
 12 11  1  0
 13 12  1  0
 14 13  1  0
 15 14  1  0
 16 15  1  0
 17 16  2  0
 18 17  1  0
 19 18  2  0
 20 19  1  0
 21 16  1  0
 21 20  2  0
 22 21  1  0
 23 22  1  0
 24 23  1  0
 25 20  1  0
 25 24  1  0
 26 15  1  0
 27 12  1  0
 27 26  1  0
 28  6  2  0
 28 10  1  0
 29  5  2  0
 30  2  2  0
 30 29  1  0
 31  3  1  0
 32  4  1  0
 33  7  1  0
 34  9  1  0
 35 11  1  0
 36 11  1  0
 37 13  1  0
 38 13  1  0
 39 14  1  0
 40 14  1  0
 41 17  1  0
 42 18  1  0
 43 19  1  0
 44 23  1  0
 45 23  1  0
 46 24  1  0
 47 24  1  0
 48 26  1  0
 49 26  1  0
 50 27  1  0
 51 27  1  0
 52 28  1  0
 53 29  1  0
 54 30  1  0
 55 12  1  0
M  CHG  1  12   1
M  END
>  <b_m_subgroup_collapsed>  (396) 
0

>  <r_i_docking_score>  (396) 
-8.1072621455873701

>  <s_m_subgroup_title>  (396) 
glide-dock_SP_D22_pv

>  <s_m_subgroupid>  (396) 
glide-dock_SP_D22_pv

>  <Molecule ChEMBL ID>  (396) 
CHEMBL4751170

>  <Standard Type>  (396) 
Ki

>  <Standard Value>  (396) 
3.981

>  <label>  (396) 
1

$$$$
CHEMBL2159463
     RDKit          3D

 56 58  0  0  1  0  0  0  0  0999 V2000
    9.6796   -0.2360  -16.3375 C   0  0  0  0  0  0  0  0  0  0  0  0
   10.2091    0.3225  -15.0096 C   0  0  0  0  0  0  0  0  0  0  0  0
    9.8446    1.6845  -14.8244 O   0  0  0  0  0  0  0  0  0  0  0  0
   10.6156    2.6867  -15.3827 C   0  0  0  0  0  0  0  0  0  0  0  0
   11.6867    2.4316  -16.2749 C   0  0  0  0  0  0  0  0  0  0  0  0
   12.4666    3.4819  -16.7901 C   0  0  0  0  0  0  0  0  0  0  0  0
   12.1815    4.8093  -16.4342 C   0  0  0  0  0  0  0  0  0  0  0  0
   11.1090    5.0813  -15.5678 C   0  0  0  0  0  0  0  0  0  0  0  0
   10.3227    4.0317  -15.0339 C   0  0  0  0  0  0  0  0  0  0  0  0
    9.1500    4.3699  -14.1528 C   0  0  0  0  0  0  0  0  0  0  0  0
    8.0772    3.7748  -14.2470 O   0  0  0  0  0  0  0  0  0  0  0  0
    9.3546    5.3728  -13.2870 N   0  0  0  0  0  0  0  0  0  0  0  0
    8.3049    6.1018  -12.5749 C   0  0  1  0  0  0  0  0  0  0  0  0
    7.5611    5.2457  -11.5319 C   0  0  0  0  0  0  0  0  0  0  0  0
    8.4492    4.9583  -10.3225 C   0  0  0  0  0  0  0  0  0  0  0  0
    8.8861    6.2182   -9.6723 N   0  0  1  0  0  0  0  0  0  0  0  0
    9.6155    5.9127   -8.4135 C   0  0  0  0  0  0  0  0  0  0  0  0
    9.9529    7.1388   -7.5569 C   0  0  0  0  0  0  0  0  0  0  0  0
   10.6945    6.6811   -6.4350 O   0  0  0  0  0  0  0  0  0  0  0  0
   11.0849    7.6065   -5.4939 C   0  0  0  0  0  0  0  0  0  0  0  0
   10.9016    9.0047   -5.6403 C   0  0  0  0  0  0  0  0  0  0  0  0
   11.2857    9.8787   -4.6092 C   0  0  0  0  0  0  0  0  0  0  0  0
   11.8479    9.3745   -3.4229 C   0  0  0  0  0  0  0  0  0  0  0  0
   12.0309    7.9887   -3.2693 C   0  0  0  0  0  0  0  0  0  0  0  0
   12.4914    7.4929   -2.0987 F   0  0  0  0  0  0  0  0  0  0  0  0
   11.6790    7.1131   -4.3118 C   0  0  0  0  0  0  0  0  0  0  0  0
    9.6648    7.0634  -10.6197 C   0  0  0  0  0  0  0  0  0  0  0  0
    8.8896    7.3641  -11.9156 C   0  0  0  0  0  0  0  0  0  0  0  0
   10.0041   -1.2686  -16.4716 H   0  0  0  0  0  0  0  0  0  0  0  0
    8.5890   -0.2170  -16.3578 H   0  0  0  0  0  0  0  0  0  0  0  0
   10.0377    0.3365  -17.1938 H   0  0  0  0  0  0  0  0  0  0  0  0
   11.2832    0.1680  -14.9140 H   0  0  0  0  0  0  0  0  0  0  0  0
    9.7607   -0.2281  -14.1849 H   0  0  0  0  0  0  0  0  0  0  0  0
   11.9488    1.4289  -16.5742 H   0  0  0  0  0  0  0  0  0  0  0  0
   13.2862    3.2627  -17.4580 H   0  0  0  0  0  0  0  0  0  0  0  0
   12.7789    5.6167  -16.8344 H   0  0  0  0  0  0  0  0  0  0  0  0
   10.8874    6.1118  -15.3335 H   0  0  0  0  0  0  0  0  0  0  0  0
   10.2838    5.7648  -13.2615 H   0  0  0  0  0  0  0  0  0  0  0  0
    7.5871    6.4213  -13.3285 H   0  0  0  0  0  0  0  0  0  0  0  0
    6.6648    5.7723  -11.2018 H   0  0  0  0  0  0  0  0  0  0  0  0
    7.2014    4.3089  -11.9561 H   0  0  0  0  0  0  0  0  0  0  0  0
    9.3219    4.3797  -10.6267 H   0  0  0  0  0  0  0  0  0  0  0  0
    7.9061    4.3373   -9.6115 H   0  0  0  0  0  0  0  0  0  0  0  0
   10.5284    5.3683   -8.6533 H   0  0  0  0  0  0  0  0  0  0  0  0
    9.0078    5.2382   -7.8076 H   0  0  0  0  0  0  0  0  0  0  0  0
    9.0356    7.6418   -7.2421 H   0  0  0  0  0  0  0  0  0  0  0  0
   10.5686    7.8465   -8.1111 H   0  0  0  0  0  0  0  0  0  0  0  0
   10.4596    9.4331   -6.5261 H   0  0  0  0  0  0  0  0  0  0  0  0
   11.1372   10.9422   -4.7252 H   0  0  0  0  0  0  0  0  0  0  0  0
   12.1177   10.0492   -2.6218 H   0  0  0  0  0  0  0  0  0  0  0  0
   11.8081    6.0488   -4.1799 H   0  0  0  0  0  0  0  0  0  0  0  0
    9.9165    8.0185  -10.1627 H   0  0  0  0  0  0  0  0  0  0  0  0
   10.6071    6.5710  -10.8577 H   0  0  0  0  0  0  0  0  0  0  0  0
    8.0854    8.0591  -11.6858 H   0  0  0  0  0  0  0  0  0  0  0  0
    9.5270    7.8996  -12.6199 H   0  0  0  0  0  0  0  0  0  0  0  0
    8.0352    6.7300   -9.4426 H   0  0  0  0  0  0  0  0  0  0  0  0
  2  1  1  0
  3  2  1  0
  4  3  1  0
  5  4  2  0
  6  5  1  0
  7  6  2  0
  8  7  1  0
  9  4  1  0
  9  8  2  0
 10  9  1  0
 11 10  2  0
 12 10  1  0
 13 12  1  0
 14 13  1  0
 15 14  1  0
 16 15  1  0
 17 16  1  0
 18 17  1  0
 19 18  1  0
 20 19  1  0
 21 20  2  0
 22 21  1  0
 23 22  2  0
 24 23  1  0
 25 24  1  0
 26 20  1  0
 26 24  2  0
 27 16  1  0
 28 13  1  0
 28 27  1  0
 29  1  1  0
 30  1  1  0
 31  1  1  0
 32  2  1  0
 33  2  1  0
 34  5  1  0
 35  6  1  0
 36  7  1  0
 37  8  1  0
 38 12  1  0
 13 39  1  6
 40 14  1  0
 41 14  1  0
 42 15  1  0
 43 15  1  0
 44 17  1  0
 45 17  1  0
 46 18  1  0
 47 18  1  0
 48 21  1  0
 49 22  1  0
 50 23  1  0
 51 26  1  0
 52 27  1  0
 53 27  1  0
 54 28  1  0
 55 28  1  0
 16 56  1  1
M  CHG  1  16   1
M  END
>  <b_m_subgroup_collapsed>  (397) 
0

>  <r_i_docking_score>  (397) 
-8.0987442768206996

>  <s_m_subgroup_title>  (397) 
glide-dock_SP_D22_pv

>  <s_m_subgroupid>  (397) 
glide-dock_SP_D22_pv

>  <Molecule ChEMBL ID>  (397) 
CHEMBL2159463

>  <Standard Type>  (397) 
Ki

>  <Standard Value>  (397) 
76.0

>  <label>  (397) 
1

$$$$
CHEMBL212370
     RDKit          3D

 43 46  0  0  1  0  0  0  0  0999 V2000
   12.4861    8.5724   -1.8469 Cl  0  0  0  0  0  0  0  0  0  0  0  0
   11.8840    8.3514   -3.4455 C   0  0  0  0  0  0  0  0  0  0  0  0
   11.5745    9.4628   -4.2473 C   0  0  0  0  0  0  0  0  0  0  0  0
   11.1047    9.2808   -5.5617 C   0  0  0  0  0  0  0  0  0  0  0  0
   10.8862    7.9825   -6.0914 C   0  0  0  0  0  0  0  0  0  0  0  0
   10.3937    7.8024   -7.4099 N   0  0  0  0  0  0  0  0  0  0  0  0
    9.4211    8.7604   -7.9329 C   0  0  0  0  0  0  0  0  0  0  0  0
    9.4869    8.8101   -9.4658 C   0  0  0  0  0  0  0  0  0  0  0  0
    9.2859    7.4711  -10.0665 N   0  0  0  0  0  0  0  0  0  0  0  0
    9.3129    7.5214  -11.5482 C   0  0  0  0  0  0  0  0  0  0  0  0
    8.8263    6.2490  -12.1813 C   0  0  0  0  0  0  0  0  0  0  0  0
    7.5470    5.7717  -12.2510 C   0  0  0  0  0  0  0  0  0  0  0  0
    7.5943    4.6233  -13.0242 N   0  0  0  0  0  0  0  0  0  0  0  0
    6.6085    3.7799  -13.4450 C   0  0  0  0  0  0  0  0  0  0  0  0
    6.9309    2.7053  -14.2427 C   0  0  0  0  0  0  0  0  0  0  0  0
    8.2760    2.4676  -14.6105 C   0  0  0  0  0  0  0  0  0  0  0  0
    9.2744    3.3119  -14.1818 C   0  0  0  0  0  0  0  0  0  0  0  0
    8.9560    4.4326  -13.3694 C   0  0  0  0  0  0  0  0  0  0  0  0
    9.7046    5.4032  -12.8465 N   0  0  0  0  0  0  0  0  0  0  0  0
   10.1884    6.4429   -9.4874 C   0  0  0  0  0  0  0  0  0  0  0  0
   10.2110    6.4529   -7.9473 C   0  0  0  0  0  0  0  0  0  0  0  0
   11.1901    6.8789   -5.2537 C   0  0  0  0  0  0  0  0  0  0  0  0
   11.6864    7.0559   -3.9492 C   0  0  0  0  0  0  0  0  0  0  0  0
   11.6859   10.4600   -3.8519 H   0  0  0  0  0  0  0  0  0  0  0  0
   10.9262   10.1708   -6.1438 H   0  0  0  0  0  0  0  0  0  0  0  0
    8.4233    8.4583   -7.6078 H   0  0  0  0  0  0  0  0  0  0  0  0
    9.5644    9.7696   -7.5601 H   0  0  0  0  0  0  0  0  0  0  0  0
    8.7175    9.4875   -9.8392 H   0  0  0  0  0  0  0  0  0  0  0  0
   10.4511    9.2124   -9.7818 H   0  0  0  0  0  0  0  0  0  0  0  0
    8.6785    8.3422  -11.8861 H   0  0  0  0  0  0  0  0  0  0  0  0
   10.3233    7.7596  -11.8857 H   0  0  0  0  0  0  0  0  0  0  0  0
    6.6092    6.1451  -11.8553 H   0  0  0  0  0  0  0  0  0  0  0  0
    5.5962    4.0077  -13.1305 H   0  0  0  0  0  0  0  0  0  0  0  0
    6.1474    2.0330  -14.5791 H   0  0  0  0  0  0  0  0  0  0  0  0
    8.5265    1.6108  -15.2289 H   0  0  0  0  0  0  0  0  0  0  0  0
   10.3093    3.1365  -14.4564 H   0  0  0  0  0  0  0  0  0  0  0  0
    9.9014    5.4493   -9.8349 H   0  0  0  0  0  0  0  0  0  0  0  0
   11.2002    6.6178   -9.8562 H   0  0  0  0  0  0  0  0  0  0  0  0
   11.0155    5.7877   -7.6373 H   0  0  0  0  0  0  0  0  0  0  0  0
    9.2789    6.0410   -7.5560 H   0  0  0  0  0  0  0  0  0  0  0  0
   11.0420    5.8630   -5.5779 H   0  0  0  0  0  0  0  0  0  0  0  0
   11.9067    6.1958   -3.3332 H   0  0  0  0  0  0  0  0  0  0  0  0
    8.3277    7.2191   -9.8370 H   0  0  0  0  0  0  0  0  0  0  0  0
  2  1  1  0
  3  2  1  0
  4  3  2  0
  5  4  1  0
  6  5  1  0
  7  6  1  0
  8  7  1  0
  9  8  1  0
 10  9  1  0
 11 10  1  0
 12 11  2  0
 13 12  1  0
 14 13  1  0
 15 14  2  0
 16 15  1  0
 17 16  2  0
 18 13  1  0
 18 17  1  0
 19 11  1  0
 19 18  2  0
 20  9  1  0
 21  6  1  0
 21 20  1  0
 22  5  2  0
 23  2  2  0
 23 22  1  0
 24  3  1  0
 25  4  1  0
 26  7  1  0
 27  7  1  0
 28  8  1  0
 29  8  1  0
 30 10  1  0
 31 10  1  0
 32 12  1  0
 33 14  1  0
 34 15  1  0
 35 16  1  0
 36 17  1  0
 37 20  1  0
 38 20  1  0
 39 21  1  0
 40 21  1  0
 41 22  1  0
 42 23  1  0
 43  9  1  0
M  CHG  1   9   1
M  END
>  <b_m_subgroup_collapsed>  (398) 
0

>  <r_i_docking_score>  (398) 
-8.0986294255931508

>  <s_m_subgroup_title>  (398) 
glide-dock_SP_D22_pv

>  <s_m_subgroupid>  (398) 
glide-dock_SP_D22_pv

>  <Molecule ChEMBL ID>  (398) 
CHEMBL212370

>  <Standard Type>  (398) 
Ki

>  <Standard Value>  (398) 
15000.0

>  <label>  (398) 
0

$$$$
CHEMBL552373
     RDKit          3D

 48 50  0  0  1  0  0  0  0  0999 V2000
   13.0760    3.4955  -17.8341 N   0  0  0  0  0  0  0  0  0  0  0  0
   12.2310    2.9716  -17.2408 C   0  0  0  0  0  0  0  0  0  0  0  0
   11.1696    2.3087  -16.4996 C   0  0  0  0  0  0  0  0  0  0  0  0
   10.9670    0.9217  -16.6428 C   0  0  0  0  0  0  0  0  0  0  0  0
    9.9372    0.2852  -15.9254 C   0  0  0  0  0  0  0  0  0  0  0  0
    9.0974    1.0327  -15.0794 C   0  0  0  0  0  0  0  0  0  0  0  0
    9.2883    2.4262  -14.9268 C   0  0  0  0  0  0  0  0  0  0  0  0
    8.4176    3.1809  -14.0815 N   0  0  0  0  0  0  0  0  0  0  0  0
    7.0044    2.8532  -13.9325 C   0  0  0  0  0  0  0  0  0  0  0  0
    6.5038    3.8569  -12.8998 C   0  0  0  0  0  0  0  0  0  0  0  0
    7.7129    4.5686  -12.5434 N   0  0  0  0  0  0  0  0  0  0  0  0
    7.6796    5.6105  -11.5220 C   0  0  0  0  0  0  0  0  0  0  0  0
    8.5080    5.2307  -10.2763 C   0  0  0  0  0  0  0  0  0  0  0  0
    8.5058    6.2932   -9.2393 N   0  0  2  0  0  0  0  0  0  0  0  0
    9.3976    7.4361   -9.5764 C   0  0  0  0  0  0  0  0  0  0  0  0
    9.2979    8.5660   -8.5352 C   0  0  0  0  0  0  0  0  0  0  0  0
    9.5644    8.0914   -7.0901 C   0  0  2  0  0  0  0  0  0  0  0  0
   11.0612    7.9348   -6.7409 C   0  0  0  0  0  0  0  0  0  0  0  0
   11.6413    6.9750   -7.4567 F   0  0  0  0  0  0  0  0  0  0  0  0
   11.6979    9.0830   -6.9685 F   0  0  0  0  0  0  0  0  0  0  0  0
   11.2023    7.6382   -5.4508 F   0  0  0  0  0  0  0  0  0  0  0  0
    8.7256    6.8343   -6.7931 C   0  0  0  0  0  0  0  0  0  0  0  0
    8.8054    5.7566   -7.8890 C   0  0  0  0  0  0  0  0  0  0  0  0
    8.7851    4.1747  -13.2490 C   0  0  0  0  0  0  0  0  0  0  0  0
    9.9165    4.6501  -13.1247 O   0  0  0  0  0  0  0  0  0  0  0  0
   10.3353    3.0563  -15.6455 C   0  0  0  0  0  0  0  0  0  0  0  0
   11.6063    0.3401  -17.2929 H   0  0  0  0  0  0  0  0  0  0  0  0
    9.7859   -0.7797  -16.0281 H   0  0  0  0  0  0  0  0  0  0  0  0
    8.3184    0.5132  -14.5410 H   0  0  0  0  0  0  0  0  0  0  0  0
    6.4854    2.9662  -14.8855 H   0  0  0  0  0  0  0  0  0  0  0  0
    6.8659    1.8345  -13.5733 H   0  0  0  0  0  0  0  0  0  0  0  0
    6.0632    3.3690  -12.0277 H   0  0  0  0  0  0  0  0  0  0  0  0
    5.7703    4.5410  -13.3264 H   0  0  0  0  0  0  0  0  0  0  0  0
    8.0303    6.5398  -11.9720 H   0  0  0  0  0  0  0  0  0  0  0  0
    6.6431    5.7725  -11.2276 H   0  0  0  0  0  0  0  0  0  0  0  0
    8.0853    4.3160   -9.8600 H   0  0  0  0  0  0  0  0  0  0  0  0
    9.5386    4.9930  -10.5379 H   0  0  0  0  0  0  0  0  0  0  0  0
   10.4258    7.0850   -9.6651 H   0  0  0  0  0  0  0  0  0  0  0  0
    9.1259    7.8448  -10.5510 H   0  0  0  0  0  0  0  0  0  0  0  0
    9.9784    9.3737   -8.7995 H   0  0  0  0  0  0  0  0  0  0  0  0
    8.2982    8.9998   -8.5796 H   0  0  0  0  0  0  0  0  0  0  0  0
    9.1948    8.8775   -6.4302 H   0  0  0  0  0  0  0  0  0  0  0  0
    9.0345    6.4000   -5.8458 H   0  0  0  0  0  0  0  0  0  0  0  0
    7.6880    7.1310   -6.6494 H   0  0  0  0  0  0  0  0  0  0  0  0
    8.0853    4.9732   -7.6582 H   0  0  0  0  0  0  0  0  0  0  0  0
    9.7926    5.2937   -7.8945 H   0  0  0  0  0  0  0  0  0  0  0  0
   10.4926    4.1203  -15.5570 H   0  0  0  0  0  0  0  0  0  0  0  0
    7.5611    6.6815   -9.2200 H   0  0  0  0  0  0  0  0  0  0  0  0
  2  1  3  0
  3  2  1  0
  4  3  1  0
  5  4  2  0
  6  5  1  0
  7  6  2  0
  8  7  1  0
  9  8  1  0
 10  9  1  0
 11 10  1  0
 12 11  1  0
 13 12  1  0
 14 13  1  0
 15 14  1  0
 16 15  1  0
 17 16  1  0
 18 17  1  0
 19 18  1  0
 20 18  1  0
 21 18  1  0
 22 17  1  0
 23 14  1  0
 23 22  1  0
 24  8  1  0
 24 11  1  0
 25 24  2  0
 26  3  2  0
 26  7  1  0
 27  4  1  0
 28  5  1  0
 29  6  1  0
 30  9  1  0
 31  9  1  0
 32 10  1  0
 33 10  1  0
 34 12  1  0
 35 12  1  0
 36 13  1  0
 37 13  1  0
 38 15  1  0
 39 15  1  0
 40 16  1  0
 41 16  1  0
 17 42  1  1
 43 22  1  0
 44 22  1  0
 45 23  1  0
 46 23  1  0
 47 26  1  0
 14 48  1  1
M  CHG  1  14   1
M  END
>  <b_m_subgroup_collapsed>  (399) 
0

>  <r_i_docking_score>  (399) 
-8.0966329417607401

>  <s_m_subgroup_title>  (399) 
glide-dock_SP_D22_pv

>  <s_m_subgroupid>  (399) 
glide-dock_SP_D22_pv

>  <Molecule ChEMBL ID>  (399) 
CHEMBL552373

>  <Standard Type>  (399) 
Ki

>  <Standard Value>  (399) 
100.0

>  <label>  (399) 
1

$$$$
CHEMBL555146
     RDKit          3D

 49 52  0  0  1  0  0  0  0  0999 V2000
   13.1436    6.4940  -16.4655 C   0  0  0  0  0  0  0  0  0  0  0  0
   12.8652    5.1835  -15.7107 C   0  0  2  0  0  0  0  0  0  0  0  0
   12.7783    3.9853  -16.6768 C   0  0  0  0  0  0  0  0  0  0  0  0
   11.2937    3.6596  -16.7741 C   0  0  0  0  0  0  0  0  0  0  0  0
   10.7900    4.0286  -15.3858 C   0  0  0  0  0  0  0  0  0  0  0  0
   11.5491    5.2417  -15.0175 N   0  0  1  0  0  0  0  0  0  0  0  0
   11.5731    5.5065  -13.5572 C   0  0  0  0  0  0  0  0  0  0  0  0
   11.8934    6.9776  -13.2499 C   0  0  0  0  0  0  0  0  0  0  0  0
   11.6834    7.3724  -11.8282 C   0  0  0  0  0  0  0  0  0  0  0  0
   12.4762    8.0970  -10.9707 C   0  0  0  0  0  0  0  0  0  0  0  0
   11.7062    8.2674   -9.7763 C   0  0  0  0  0  0  0  0  0  0  0  0
   11.8884    8.8849   -8.5232 C   0  0  0  0  0  0  0  0  0  0  0  0
   10.8578    8.9178   -7.5606 C   0  0  0  0  0  0  0  0  0  0  0  0
   11.1257    9.6106   -6.2778 C   0  0  0  0  0  0  0  0  0  0  0  0
   11.2860   10.8279   -6.2416 O   0  0  0  0  0  0  0  0  0  0  0  0
   11.3415    8.7632   -5.0786 C   0  0  0  0  0  0  0  0  0  0  0  0
   11.6897    9.3691   -3.8468 C   0  0  0  0  0  0  0  0  0  0  0  0
   12.0789    8.5788   -2.7479 C   0  0  0  0  0  0  0  0  0  0  0  0
   12.0862    7.1783   -2.8712 C   0  0  0  0  0  0  0  0  0  0  0  0
   12.4861    6.3999   -1.8469 F   0  0  0  0  0  0  0  0  0  0  0  0
   11.6860    6.5750   -4.0709 C   0  0  0  0  0  0  0  0  0  0  0  0
   11.2962    7.3540   -5.1665 C   0  0  0  0  0  0  0  0  0  0  0  0
    9.6167    8.2947   -7.8316 C   0  0  0  0  0  0  0  0  0  0  0  0
    9.4229    7.6374   -9.0637 C   0  0  0  0  0  0  0  0  0  0  0  0
   10.4584    7.6455  -10.0112 C   0  0  0  0  0  0  0  0  0  0  0  0
   10.4558    7.1002  -11.2794 O   0  0  0  0  0  0  0  0  0  0  0  0
   14.0963    6.4411  -16.9939 H   0  0  0  0  0  0  0  0  0  0  0  0
   12.3689    6.7027  -17.2047 H   0  0  0  0  0  0  0  0  0  0  0  0
   13.1990    7.3509  -15.7946 H   0  0  0  0  0  0  0  0  0  0  0  0
   13.6769    5.0068  -15.0000 H   0  0  0  0  0  0  0  0  0  0  0  0
   13.2861    3.1241  -16.2466 H   0  0  0  0  0  0  0  0  0  0  0  0
   13.2314    4.1745  -17.6509 H   0  0  0  0  0  0  0  0  0  0  0  0
   11.1030    2.6172  -17.0328 H   0  0  0  0  0  0  0  0  0  0  0  0
   10.8186    4.2889  -17.5280 H   0  0  0  0  0  0  0  0  0  0  0  0
   11.0175    3.2215  -14.6856 H   0  0  0  0  0  0  0  0  0  0  0  0
    9.7131    4.2022  -15.3637 H   0  0  0  0  0  0  0  0  0  0  0  0
   12.2700    4.8380  -13.0479 H   0  0  0  0  0  0  0  0  0  0  0  0
   10.5809    5.2785  -13.1635 H   0  0  0  0  0  0  0  0  0  0  0  0
   11.2875    7.6313  -13.8732 H   0  0  0  0  0  0  0  0  0  0  0  0
   12.9286    7.1864  -13.5171 H   0  0  0  0  0  0  0  0  0  0  0  0
   13.4646    8.4969  -11.1474 H   0  0  0  0  0  0  0  0  0  0  0  0
   12.8362    9.3590   -8.3138 H   0  0  0  0  0  0  0  0  0  0  0  0
   11.6861   10.4443   -3.7407 H   0  0  0  0  0  0  0  0  0  0  0  0
   12.3717    9.0463   -1.8190 H   0  0  0  0  0  0  0  0  0  0  0  0
   11.7084    5.5072   -4.1705 H   0  0  0  0  0  0  0  0  0  0  0  0
   11.0371    6.8399   -6.0801 H   0  0  0  0  0  0  0  0  0  0  0  0
    8.8147    8.3108   -7.1049 H   0  0  0  0  0  0  0  0  0  0  0  0
    8.4857    7.1543   -9.2918 H   0  0  0  0  0  0  0  0  0  0  0  0
   11.0451    6.0052  -15.4464 H   0  0  0  0  0  0  0  0  0  0  0  0
  2  1  1  0
  3  2  1  0
  4  3  1  0
  5  4  1  0
  6  2  1  0
  6  5  1  0
  7  6  1  0
  8  7  1  0
  9  8  1  0
 10  9  2  0
 11 10  1  0
 12 11  2  0
 13 12  1  0
 14 13  1  0
 15 14  2  0
 16 14  1  0
 17 16  1  0
 18 17  2  0
 19 18  1  0
 20 19  1  0
 21 19  2  0
 22 16  2  0
 22 21  1  0
 23 13  2  0
 24 23  1  0
 25 11  1  0
 25 24  2  0
 26  9  1  0
 26 25  1  0
 27  1  1  0
 28  1  1  0
 29  1  1  0
  2 30  1  1
 31  3  1  0
 32  3  1  0
 33  4  1  0
 34  4  1  0
 35  5  1  0
 36  5  1  0
 37  7  1  0
 38  7  1  0
 39  8  1  0
 40  8  1  0
 41 10  1  0
 42 12  1  0
 43 17  1  0
 44 18  1  0
 45 21  1  0
 46 22  1  0
 47 23  1  0
 48 24  1  0
  6 49  1  6
M  CHG  1   6   1
M  END
>  <b_m_subgroup_collapsed>  (400) 
0

>  <r_i_docking_score>  (400) 
-8.0957730002294408

>  <s_m_subgroup_title>  (400) 
glide-dock_SP_D22_pv

>  <s_m_subgroupid>  (400) 
glide-dock_SP_D22_pv

>  <Molecule ChEMBL ID>  (400) 
CHEMBL555146

>  <Standard Type>  (400) 
Ki

>  <Standard Value>  (400) 
10000.0

>  <label>  (400) 
0

$$$$
CHEMBL4876545
     RDKit          3D

 62 66  0  0  1  0  0  0  0  0999 V2000
   11.7127   10.9813   -6.0645 C   0  0  0  0  0  0  0  0  0  0  0  0
   10.9799    9.7773   -6.0627 O   0  0  0  0  0  0  0  0  0  0  0  0
   11.2863    8.8883   -5.0588 C   0  0  0  0  0  0  0  0  0  0  0  0
   11.8729    9.2788   -3.8250 C   0  0  0  0  0  0  0  0  0  0  0  0
   12.2581    8.3213   -2.8706 C   0  0  0  0  0  0  0  0  0  0  0  0
   12.0619    6.9578   -3.1386 C   0  0  0  0  0  0  0  0  0  0  0  0
   11.4411    6.5723   -4.3411 C   0  0  0  0  0  0  0  0  0  0  0  0
   11.0190    7.5212   -5.2915 C   0  0  0  0  0  0  0  0  0  0  0  0
   10.3496    7.0783   -6.4447 N   0  0  0  0  0  0  0  0  0  0  0  0
    9.0437    7.6248   -6.8119 C   0  0  0  0  0  0  0  0  0  0  0  0
    9.0911    8.3294   -8.1801 C   0  0  0  0  0  0  0  0  0  0  0  0
    9.7417    7.4665   -9.1973 N   0  0  0  0  0  0  0  0  0  0  0  0
    9.6251    8.0213  -10.5699 C   0  0  0  0  0  0  0  0  0  0  0  0
   10.2218    7.1321  -11.6537 C   0  0  0  0  0  0  0  0  0  0  0  0
   11.5364    7.3723  -12.1007 C   0  0  0  0  0  0  0  0  0  0  0  0
   12.0857    6.6192  -13.1494 C   0  0  0  0  0  0  0  0  0  0  0  0
   11.3462    5.5797  -13.7422 C   0  0  0  0  0  0  0  0  0  0  0  0
   11.9700    4.7690  -14.8656 C   0  0  0  0  0  0  0  0  0  0  0  0
   11.8222    5.3916  -16.1871 N   0  0  0  0  0  0  0  0  0  0  0  0
   10.6581    5.2853  -16.9575 C   0  0  0  0  0  0  0  0  0  0  0  0
    9.6863    4.5805  -16.6882 O   0  0  0  0  0  0  0  0  0  0  0  0
   10.7816    6.1719  -18.1558 C   0  0  0  0  0  0  0  0  0  0  0  0
    9.8017    6.3497  -19.1514 C   0  0  0  0  0  0  0  0  0  0  0  0
   10.0730    7.2471  -20.2098 C   0  0  0  0  0  0  0  0  0  0  0  0
   11.3012    7.9509  -20.2667 C   0  0  0  0  0  0  0  0  0  0  0  0
   12.2804    7.7722  -19.2635 C   0  0  0  0  0  0  0  0  0  0  0  0
   11.9863    6.8769  -18.2228 C   0  0  0  0  0  0  0  0  0  0  0  0
   12.9794    6.5123  -16.8078 S   0  0  0  0  0  0  0  0  0  0  0  0
   13.0339    7.6917  -15.9319 O   0  0  0  0  0  0  0  0  0  0  0  0
   14.1893    5.7738  -17.2006 O   0  0  0  0  0  0  0  0  0  0  0  0
   10.0375    5.3130  -13.2808 C   0  0  0  0  0  0  0  0  0  0  0  0
    9.4732    6.0916  -12.2467 C   0  0  0  0  0  0  0  0  0  0  0  0
   11.1308    7.1411   -8.7699 C   0  0  0  0  0  0  0  0  0  0  0  0
   11.1098    6.3512   -7.4467 C   0  0  0  0  0  0  0  0  0  0  0  0
   11.6819   11.4719   -7.0369 H   0  0  0  0  0  0  0  0  0  0  0  0
   11.2861   11.6457   -5.3132 H   0  0  0  0  0  0  0  0  0  0  0  0
   12.7683   10.8063   -5.8473 H   0  0  0  0  0  0  0  0  0  0  0  0
   12.0413   10.3127   -3.5791 H   0  0  0  0  0  0  0  0  0  0  0  0
   12.7095    8.6356   -1.9397 H   0  0  0  0  0  0  0  0  0  0  0  0
   12.3580    6.2095   -2.4174 H   0  0  0  0  0  0  0  0  0  0  0  0
   11.2564    5.5322   -4.5268 H   0  0  0  0  0  0  0  0  0  0  0  0
    8.3261    6.8039   -6.8443 H   0  0  0  0  0  0  0  0  0  0  0  0
    8.6820    8.3179   -6.0562 H   0  0  0  0  0  0  0  0  0  0  0  0
    8.0861    8.6074   -8.4828 H   0  0  0  0  0  0  0  0  0  0  0  0
    9.6409    9.2675   -8.1064 H   0  0  0  0  0  0  0  0  0  0  0  0
    8.5758    8.2003  -10.8088 H   0  0  0  0  0  0  0  0  0  0  0  0
   10.1204    8.9910  -10.6023 H   0  0  0  0  0  0  0  0  0  0  0  0
   12.1248    8.1656  -11.6629 H   0  0  0  0  0  0  0  0  0  0  0  0
   13.0804    6.8484  -13.4996 H   0  0  0  0  0  0  0  0  0  0  0  0
   13.0338    4.6441  -14.6572 H   0  0  0  0  0  0  0  0  0  0  0  0
   11.5467    3.7630  -14.8805 H   0  0  0  0  0  0  0  0  0  0  0  0
    8.8602    5.8199  -19.1047 H   0  0  0  0  0  0  0  0  0  0  0  0
    9.3314    7.4035  -20.9809 H   0  0  0  0  0  0  0  0  0  0  0  0
   11.4874    8.6389  -21.0785 H   0  0  0  0  0  0  0  0  0  0  0  0
   13.2113    8.3197  -19.2812 H   0  0  0  0  0  0  0  0  0  0  0  0
    9.4563    4.5197  -13.7301 H   0  0  0  0  0  0  0  0  0  0  0  0
    8.4608    5.8969  -11.9192 H   0  0  0  0  0  0  0  0  0  0  0  0
   11.6669    6.5724   -9.5263 H   0  0  0  0  0  0  0  0  0  0  0  0
   11.6952    8.0657   -8.6416 H   0  0  0  0  0  0  0  0  0  0  0  0
   12.1231    6.1729   -7.0846 H   0  0  0  0  0  0  0  0  0  0  0  0
   10.6510    5.3726   -7.5998 H   0  0  0  0  0  0  0  0  0  0  0  0
    9.2181    6.6019   -9.2032 H   0  0  0  0  0  0  0  0  0  0  0  0
  2  1  1  0
  3  2  1  0
  4  3  2  0
  5  4  1  0
  6  5  2  0
  7  6  1  0
  8  3  1  0
  8  7  2  0
  9  8  1  0
 10  9  1  0
 11 10  1  0
 12 11  1  0
 13 12  1  0
 14 13  1  0
 15 14  1  0
 16 15  2  0
 17 16  1  0
 18 17  1  0
 19 18  1  0
 20 19  1  0
 21 20  2  0
 22 20  1  0
 23 22  2  0
 24 23  1  0
 25 24  2  0
 26 25  1  0
 27 22  1  0
 27 26  2  0
 28 19  1  0
 28 27  1  0
 29 28  2  0
 30 28  2  0
 31 17  2  0
 32 14  2  0
 32 31  1  0
 33 12  1  0
 34  9  1  0
 34 33  1  0
 35  1  1  0
 36  1  1  0
 37  1  1  0
 38  4  1  0
 39  5  1  0
 40  6  1  0
 41  7  1  0
 42 10  1  0
 43 10  1  0
 44 11  1  0
 45 11  1  0
 46 13  1  0
 47 13  1  0
 48 15  1  0
 49 16  1  0
 50 18  1  0
 51 18  1  0
 52 23  1  0
 53 24  1  0
 54 25  1  0
 55 26  1  0
 56 31  1  0
 57 32  1  0
 58 33  1  0
 59 33  1  0
 60 34  1  0
 61 34  1  0
 62 12  1  0
M  CHG  1  12   1
M  END
>  <b_m_subgroup_collapsed>  (401) 
0

>  <r_i_docking_score>  (401) 
-8.0950855955483192

>  <s_m_subgroup_title>  (401) 
glide-dock_SP_D22_pv

>  <s_m_subgroupid>  (401) 
glide-dock_SP_D22_pv

>  <Molecule ChEMBL ID>  (401) 
CHEMBL4876545

>  <Standard Type>  (401) 
Ki

>  <Standard Value>  (401) 
2.0

>  <label>  (401) 
1

$$$$
CHEMBL2335736
     RDKit          3D

 52 55  0  0  1  0  0  0  0  0999 V2000
    6.5543    0.5692  -15.0207 C   0  0  0  0  0  0  0  0  0  0  0  0
    6.0861    1.5788  -14.1375 O   0  0  0  0  0  0  0  0  0  0  0  0
    6.9206    2.6381  -13.8470 C   0  0  0  0  0  0  0  0  0  0  0  0
    8.2088    2.8087  -14.4148 C   0  0  0  0  0  0  0  0  0  0  0  0
    9.0436    3.8683  -14.0033 C   0  0  0  0  0  0  0  0  0  0  0  0
    8.6047    4.7851  -13.0186 C   0  0  0  0  0  0  0  0  0  0  0  0
    7.3057    4.6404  -12.4871 C   0  0  0  0  0  0  0  0  0  0  0  0
    6.4859    3.5692  -12.8796 C   0  0  0  0  0  0  0  0  0  0  0  0
    5.2861    3.4155  -12.2561 O   0  0  0  0  0  0  0  0  0  0  0  0
    9.4791    5.9647  -12.5750 C   0  0  1  0  0  0  0  0  0  0  0  0
    9.4965    6.1879  -11.0463 C   0  0  0  0  0  0  0  0  0  0  0  0
   10.2040    7.5064  -10.6533 C   0  0  1  0  0  0  0  0  0  0  0  0
    9.4016    8.5467  -11.1753 O   0  0  0  0  0  0  0  0  0  0  0  0
   10.3741    7.6873   -9.1375 C   0  0  0  0  0  0  0  0  0  0  0  0
    9.8695    6.7574   -8.1973 C   0  0  0  0  0  0  0  0  0  0  0  0
   10.0991    6.9322   -6.8204 C   0  0  0  0  0  0  0  0  0  0  0  0
   10.8325    8.0320   -6.3434 C   0  0  0  0  0  0  0  0  0  0  0  0
   11.0517    8.0901   -4.9862 O   0  0  0  0  0  0  0  0  0  0  0  0
   11.6195    9.1828   -4.4123 C   0  0  0  0  0  0  0  0  0  0  0  0
   11.6847    9.0117   -3.0692 F   0  0  0  0  0  0  0  0  0  0  0  0
   12.8887    9.3742   -4.8398 F   0  0  0  0  0  0  0  0  0  0  0  0
   10.8865   10.3021   -4.6415 F   0  0  0  0  0  0  0  0  0  0  0  0
   11.3070    8.9849   -7.2760 C   0  0  0  0  0  0  0  0  0  0  0  0
   11.0730    8.8153   -8.6522 C   0  0  0  0  0  0  0  0  0  0  0  0
   11.5988    7.5673  -11.3362 C   0  0  0  0  0  0  0  0  0  0  0  0
   11.6559    7.0939  -12.8042 C   0  0  0  0  0  0  0  0  0  0  0  0
   10.8861    5.8528  -13.0484 N   0  0  2  0  0  0  0  0  0  0  0  0
   10.9964    5.4066  -14.4547 C   0  0  0  0  0  0  0  0  0  0  0  0
   10.4289    3.9922  -14.6024 C   0  0  0  0  0  0  0  0  0  0  0  0
    5.7894   -0.1998  -15.1231 H   0  0  0  0  0  0  0  0  0  0  0  0
    6.7513    0.9720  -16.0145 H   0  0  0  0  0  0  0  0  0  0  0  0
    7.4563    0.0880  -14.6374 H   0  0  0  0  0  0  0  0  0  0  0  0
    8.5902    2.1163  -15.1484 H   0  0  0  0  0  0  0  0  0  0  0  0
    6.9220    5.3380  -11.7592 H   0  0  0  0  0  0  0  0  0  0  0  0
    5.1927    3.9848  -11.5048 H   0  0  0  0  0  0  0  0  0  0  0  0
    9.0134    6.8274  -13.0468 H   0  0  0  0  0  0  0  0  0  0  0  0
    9.9887    5.3319  -10.5838 H   0  0  0  0  0  0  0  0  0  0  0  0
    8.4851    6.2195  -10.6421 H   0  0  0  0  0  0  0  0  0  0  0  0
    8.5439    8.4878  -10.7700 H   0  0  0  0  0  0  0  0  0  0  0  0
    9.3057    5.8887   -8.5006 H   0  0  0  0  0  0  0  0  0  0  0  0
    9.7135    6.2033   -6.1236 H   0  0  0  0  0  0  0  0  0  0  0  0
   11.8644    9.8553   -6.9648 H   0  0  0  0  0  0  0  0  0  0  0  0
   11.4502    9.5598   -9.3379 H   0  0  0  0  0  0  0  0  0  0  0  0
   12.2958    6.9718  -10.7532 H   0  0  0  0  0  0  0  0  0  0  0  0
   12.0107    8.5724  -11.2806 H   0  0  0  0  0  0  0  0  0  0  0  0
   12.6973    6.9379  -13.0846 H   0  0  0  0  0  0  0  0  0  0  0  0
   11.2861    7.8628  -13.4744 H   0  0  0  0  0  0  0  0  0  0  0  0
   12.0413    5.4010  -14.7661 H   0  0  0  0  0  0  0  0  0  0  0  0
   10.4848    6.1169  -15.1055 H   0  0  0  0  0  0  0  0  0  0  0  0
   11.0777    3.2713  -14.1056 H   0  0  0  0  0  0  0  0  0  0  0  0
   10.3990    3.7144  -15.6556 H   0  0  0  0  0  0  0  0  0  0  0  0
   11.3072    5.1219  -12.4974 H   0  0  0  0  0  0  0  0  0  0  0  0
  2  1  1  0
  3  2  1  0
  4  3  2  0
  5  4  1  0
  6  5  2  0
  7  6  1  0
  8  3  1  0
  8  7  2  0
  9  8  1  0
 10  6  1  0
 11 10  1  0
 12 11  1  0
 12 13  1  6
 14 12  1  0
 15 14  1  0
 16 15  2  0
 17 16  1  0
 18 17  1  0
 19 18  1  0
 20 19  1  0
 21 19  1  0
 22 19  1  0
 23 17  2  0
 24 14  2  0
 24 23  1  0
 25 12  1  0
 26 25  1  0
 27 10  1  0
 27 26  1  0
 28 27  1  0
 29  5  1  0
 29 28  1  0
 30  1  1  0
 31  1  1  0
 32  1  1  0
 33  4  1  0
 34  7  1  0
 35  9  1  0
 10 36  1  6
 37 11  1  0
 38 11  1  0
 39 13  1  0
 40 15  1  0
 41 16  1  0
 42 23  1  0
 43 24  1  0
 44 25  1  0
 45 25  1  0
 46 26  1  0
 47 26  1  0
 48 28  1  0
 49 28  1  0
 50 29  1  0
 51 29  1  0
 27 52  1  1
M  CHG  1  27   1
M  END
>  <b_m_subgroup_collapsed>  (402) 
0

>  <r_i_docking_score>  (402) 
-8.0861494081821608

>  <s_m_subgroup_title>  (402) 
glide-dock_SP_D22_pv

>  <s_m_subgroupid>  (402) 
glide-dock_SP_D22_pv

>  <Molecule ChEMBL ID>  (402) 
CHEMBL2335736

>  <Standard Type>  (402) 
Ki

>  <Standard Value>  (402) 
4.0

>  <label>  (402) 
1

$$$$
CHEMBL196598
     RDKit          3D

 65 68  0  0  1  0  0  0  0  0999 V2000
   10.7703   -0.3665  -17.9175 C   0  0  0  0  0  0  0  0  0  0  0  0
    9.7127   -0.2668  -16.9717 O   0  0  0  0  0  0  0  0  0  0  0  0
    9.6978    0.8121  -16.1104 C   0  0  0  0  0  0  0  0  0  0  0  0
   10.8855    1.5235  -15.8119 C   0  0  0  0  0  0  0  0  0  0  0  0
   10.8854    2.5917  -14.9005 C   0  0  0  0  0  0  0  0  0  0  0  0
    9.6875    2.9922  -14.2748 C   0  0  0  0  0  0  0  0  0  0  0  0
    9.6266    4.0569  -13.3313 N   0  0  0  0  0  0  0  0  0  0  0  0
   10.3907    5.1677  -13.2943 C   0  0  0  0  0  0  0  0  0  0  0  0
   11.2664    5.4006  -14.1300 O   0  0  0  0  0  0  0  0  0  0  0  0
   10.0858    6.0356  -12.2948 N   0  0  0  0  0  0  0  0  0  0  0  0
    9.1048    5.7445  -11.2259 C   0  0  0  0  0  0  0  0  0  0  0  0
    9.0653    6.8089  -10.1112 C   0  0  0  0  0  0  0  0  0  0  0  0
   10.4159    7.2381   -9.7663 N   0  0  0  0  0  0  0  0  0  0  0  0
   10.6834    7.6575   -8.4412 C   0  0  0  0  0  0  0  0  0  0  0  0
   11.4947    8.7874   -8.1757 C   0  0  0  0  0  0  0  0  0  0  0  0
   11.7805    9.1866   -6.8601 C   0  0  0  0  0  0  0  0  0  0  0  0
   11.2944    8.4492   -5.7660 C   0  0  0  0  0  0  0  0  0  0  0  0
   11.6971    8.8618   -4.3560 C   0  0  0  0  0  0  0  0  0  0  0  0
   11.6859    7.8242   -3.5167 F   0  0  0  0  0  0  0  0  0  0  0  0
   12.9227    9.3718   -4.3662 F   0  0  0  0  0  0  0  0  0  0  0  0
   10.8861    9.8072   -3.9033 F   0  0  0  0  0  0  0  0  0  0  0  0
   10.4846    7.3234   -6.0100 C   0  0  0  0  0  0  0  0  0  0  0  0
   10.1777    6.9343   -7.3318 C   0  0  0  0  0  0  0  0  0  0  0  0
   11.1658    7.8424  -10.8648 C   0  0  0  0  0  0  0  0  0  0  0  0
   10.7104    7.3724  -12.2631 C   0  0  0  0  0  0  0  0  0  0  0  0
    8.5041    2.2828  -14.5602 C   0  0  0  0  0  0  0  0  0  0  0  0
    8.4831    1.1986  -15.4698 C   0  0  0  0  0  0  0  0  0  0  0  0
    7.2388    0.5618  -15.6826 N   0  0  0  0  0  0  0  0  0  0  0  0
    6.7014   -0.1257  -14.5097 C   0  0  0  0  0  0  0  0  0  0  0  0
    5.2147   -0.4842  -14.6898 C   0  0  0  0  0  0  0  0  0  0  0  0
    4.9731   -1.1667  -15.9845 N   0  0  0  0  0  0  0  0  0  0  0  0
    3.5652   -1.5924  -16.1519 C   0  0  0  0  0  0  0  0  0  0  0  0
    5.4626   -0.3637  -17.1296 C   0  0  0  0  0  0  0  0  0  0  0  0
    6.9597   -0.0697  -16.9724 C   0  0  0  0  0  0  0  0  0  0  0  0
   10.5383   -1.1523  -18.6383 H   0  0  0  0  0  0  0  0  0  0  0  0
   10.8937    0.5642  -18.4773 H   0  0  0  0  0  0  0  0  0  0  0  0
   11.7177   -0.6274  -17.4474 H   0  0  0  0  0  0  0  0  0  0  0  0
   11.8335    1.2504  -16.2476 H   0  0  0  0  0  0  0  0  0  0  0  0
   11.8231    3.0832  -14.6879 H   0  0  0  0  0  0  0  0  0  0  0  0
    8.8710    4.0220  -12.6647 H   0  0  0  0  0  0  0  0  0  0  0  0
    8.1034    5.6326  -11.6472 H   0  0  0  0  0  0  0  0  0  0  0  0
    9.3676    4.7907  -10.7639 H   0  0  0  0  0  0  0  0  0  0  0  0
    8.5276    7.6871  -10.4749 H   0  0  0  0  0  0  0  0  0  0  0  0
    8.4930    6.4415   -9.2605 H   0  0  0  0  0  0  0  0  0  0  0  0
   11.9230    9.3734   -8.9710 H   0  0  0  0  0  0  0  0  0  0  0  0
   12.4068   10.0498   -6.6873 H   0  0  0  0  0  0  0  0  0  0  0  0
   10.1021    6.7379   -5.1854 H   0  0  0  0  0  0  0  0  0  0  0  0
    9.5763    6.0512   -7.4771 H   0  0  0  0  0  0  0  0  0  0  0  0
   11.0958    8.9300  -10.8344 H   0  0  0  0  0  0  0  0  0  0  0  0
   12.2167    7.5806  -10.7278 H   0  0  0  0  0  0  0  0  0  0  0  0
   11.5589    7.4708  -12.9404 H   0  0  0  0  0  0  0  0  0  0  0  0
    9.9627    8.0691  -12.6467 H   0  0  0  0  0  0  0  0  0  0  0  0
    7.5877    2.5858  -14.0759 H   0  0  0  0  0  0  0  0  0  0  0  0
    7.2857   -1.0283  -14.3446 H   0  0  0  0  0  0  0  0  0  0  0  0
    6.8159    0.4827  -13.6105 H   0  0  0  0  0  0  0  0  0  0  0  0
    4.8987   -1.1214  -13.8635 H   0  0  0  0  0  0  0  0  0  0  0  0
    4.6104    0.4227  -14.6429 H   0  0  0  0  0  0  0  0  0  0  0  0
    2.8892   -0.7371  -16.1909 H   0  0  0  0  0  0  0  0  0  0  0  0
    3.4404   -2.1718  -17.0681 H   0  0  0  0  0  0  0  0  0  0  0  0
    3.2651   -2.2256  -15.3204 H   0  0  0  0  0  0  0  0  0  0  0  0
    5.2920   -0.9056  -18.0598 H   0  0  0  0  0  0  0  0  0  0  0  0
    4.9013    0.5724  -17.1916 H   0  0  0  0  0  0  0  0  0  0  0  0
    7.3049    0.5705  -17.7834 H   0  0  0  0  0  0  0  0  0  0  0  0
    7.4944   -1.0178  -17.0461 H   0  0  0  0  0  0  0  0  0  0  0  0
    5.5330   -2.0089  -15.9686 H   0  0  0  0  0  0  0  0  0  0  0  0
  2  1  1  0
  3  2  1  0
  4  3  1  0
  5  4  2  0
  6  5  1  0
  7  6  1  0
  8  7  1  0
  9  8  2  0
 10  8  1  0
 11 10  1  0
 12 11  1  0
 13 12  1  0
 14 13  1  0
 15 14  1  0
 16 15  2  0
 17 16  1  0
 18 17  1  0
 19 18  1  0
 20 18  1  0
 21 18  1  0
 22 17  2  0
 23 14  2  0
 23 22  1  0
 24 13  1  0
 25 10  1  0
 25 24  1  0
 26  6  2  0
 27  3  2  0
 27 26  1  0
 28 27  1  0
 29 28  1  0
 30 29  1  0
 31 30  1  0
 32 31  1  0
 33 31  1  0
 34 28  1  0
 34 33  1  0
 35  1  1  0
 36  1  1  0
 37  1  1  0
 38  4  1  0
 39  5  1  0
 40  7  1  0
 41 11  1  0
 42 11  1  0
 43 12  1  0
 44 12  1  0
 45 15  1  0
 46 16  1  0
 47 22  1  0
 48 23  1  0
 49 24  1  0
 50 24  1  0
 51 25  1  0
 52 25  1  0
 53 26  1  0
 54 29  1  0
 55 29  1  0
 56 30  1  0
 57 30  1  0
 58 32  1  0
 59 32  1  0
 60 32  1  0
 61 33  1  0
 62 33  1  0
 63 34  1  0
 64 34  1  0
 65 31  1  0
M  CHG  1  31   1
M  END
>  <b_m_subgroup_collapsed>  (403) 
0

>  <r_i_docking_score>  (403) 
-8.0831995221029906

>  <s_m_subgroup_title>  (403) 
glide-dock_SP_D22_pv

>  <s_m_subgroupid>  (403) 
glide-dock_SP_D22_pv

>  <Molecule ChEMBL ID>  (403) 
CHEMBL196598

>  <Standard Type>  (403) 
Ki

>  <Standard Value>  (403) 
10000.0

>  <label>  (403) 
0

$$$$
CHEMBL5435325
     RDKit          3D

 64 68  0  0  1  0  0  0  0  0999 V2000
    9.5231   -0.9402  -18.1042 C   0  0  0  0  0  0  0  0  0  0  0  0
    8.1000   -0.5841  -17.6498 C   0  0  0  0  0  0  0  0  0  0  0  0
    7.3354    0.2012  -18.7275 C   0  0  0  0  0  0  0  0  0  0  0  0
    8.2235    0.2215  -16.4813 O   0  0  0  0  0  0  0  0  0  0  0  0
    7.1480    0.3559  -15.6256 C   0  0  0  0  0  0  0  0  0  0  0  0
    6.0858   -0.5729  -15.4924 C   0  0  0  0  0  0  0  0  0  0  0  0
    5.0598   -0.3513  -14.5496 C   0  0  0  0  0  0  0  0  0  0  0  0
    5.0625    0.8020  -13.7411 C   0  0  0  0  0  0  0  0  0  0  0  0
    6.0872    1.7647  -13.8677 C   0  0  0  0  0  0  0  0  0  0  0  0
    6.4058    3.0439  -13.3031 C   0  0  0  0  0  0  0  0  0  0  0  0
    7.6041    3.4058  -13.8466 C   0  0  0  0  0  0  0  0  0  0  0  0
    8.0578    2.5160  -14.7711 O   0  0  0  0  0  0  0  0  0  0  0  0
    7.1257    1.4942  -14.8025 C   0  0  0  0  0  0  0  0  0  0  0  0
    8.4080    4.6061  -13.4861 C   0  0  0  0  0  0  0  0  0  0  0  0
    7.9105    5.1745  -12.1966 N   0  0  1  0  0  0  0  0  0  0  0  0
    8.5783    6.4472  -11.8235 C   0  0  0  0  0  0  0  0  0  0  0  0
   10.0478    6.2579  -11.4207 C   0  0  0  0  0  0  0  0  0  0  0  0
   10.7484    7.5874  -11.0986 C   0  0  0  0  0  0  0  0  0  0  0  0
   10.3977    8.2298   -9.7508 C   0  0  0  0  0  0  0  0  0  0  0  0
   10.9192    7.4225   -8.7030 O   0  0  0  0  0  0  0  0  0  0  0  0
   11.1044    7.9849   -7.4568 C   0  0  0  0  0  0  0  0  0  0  0  0
   11.2655    9.3723   -7.2053 C   0  0  0  0  0  0  0  0  0  0  0  0
   11.4607    9.8579   -5.8968 C   0  0  0  0  0  0  0  0  0  0  0  0
   11.5559    8.9532   -4.8268 C   0  0  0  0  0  0  0  0  0  0  0  0
   11.8353    9.3686   -3.4520 C   0  0  0  0  0  0  0  0  0  0  0  0
   12.0865    8.4572   -2.4890 C   0  0  0  0  0  0  0  0  0  0  0  0
   12.0902    7.0230   -2.7742 C   0  0  0  0  0  0  0  0  0  0  0  0
   12.4837    6.1728   -1.9841 O   0  0  0  0  0  0  0  0  0  0  0  0
   11.6844    6.6655   -4.0116 N   0  0  0  0  0  0  0  0  0  0  0  0
   11.4513    7.5698   -5.0726 C   0  0  0  0  0  0  0  0  0  0  0  0
   11.2017    7.0914   -6.3722 C   0  0  0  0  0  0  0  0  0  0  0  0
    6.4190    5.2741  -12.1683 C   0  0  0  0  0  0  0  0  0  0  0  0
    5.7509    3.8771  -12.2484 C   0  0  0  0  0  0  0  0  0  0  0  0
    9.5055   -1.5673  -18.9973 H   0  0  0  0  0  0  0  0  0  0  0  0
   10.0544   -1.4867  -17.3230 H   0  0  0  0  0  0  0  0  0  0  0  0
   10.1027   -0.0448  -18.3326 H   0  0  0  0  0  0  0  0  0  0  0  0
    7.5881   -1.5207  -17.4502 H   0  0  0  0  0  0  0  0  0  0  0  0
    7.2495   -0.3753  -19.6503 H   0  0  0  0  0  0  0  0  0  0  0  0
    7.8451    1.1364  -18.9625 H   0  0  0  0  0  0  0  0  0  0  0  0
    6.3247    0.4479  -18.3978 H   0  0  0  0  0  0  0  0  0  0  0  0
    6.0443   -1.4809  -16.0782 H   0  0  0  0  0  0  0  0  0  0  0  0
    4.2600   -1.0723  -14.4579 H   0  0  0  0  0  0  0  0  0  0  0  0
    4.2581    0.9752  -13.0475 H   0  0  0  0  0  0  0  0  0  0  0  0
    9.4564    4.3206  -13.4061 H   0  0  0  0  0  0  0  0  0  0  0  0
    8.3301    5.3498  -14.2805 H   0  0  0  0  0  0  0  0  0  0  0  0
    8.4755    7.1737  -12.6312 H   0  0  0  0  0  0  0  0  0  0  0  0
    8.0868    6.8673  -10.9540 H   0  0  0  0  0  0  0  0  0  0  0  0
   10.1104    5.5813  -10.5689 H   0  0  0  0  0  0  0  0  0  0  0  0
   10.5972    5.7957  -12.2399 H   0  0  0  0  0  0  0  0  0  0  0  0
   11.8301    7.4474  -11.1419 H   0  0  0  0  0  0  0  0  0  0  0  0
   10.4957    8.2998  -11.8803 H   0  0  0  0  0  0  0  0  0  0  0  0
   10.8292    9.2249   -9.7782 H   0  0  0  0  0  0  0  0  0  0  0  0
    9.3207    8.3549   -9.6345 H   0  0  0  0  0  0  0  0  0  0  0  0
   11.2856   10.0974   -7.9976 H   0  0  0  0  0  0  0  0  0  0  0  0
   11.5763   10.9193   -5.7283 H   0  0  0  0  0  0  0  0  0  0  0  0
   11.8126   10.4210   -3.2121 H   0  0  0  0  0  0  0  0  0  0  0  0
   12.2753    8.7886   -1.4798 H   0  0  0  0  0  0  0  0  0  0  0  0
   11.6451    5.6762   -4.2176 H   0  0  0  0  0  0  0  0  0  0  0  0
   11.1181    6.0320   -6.5523 H   0  0  0  0  0  0  0  0  0  0  0  0
    6.0799    5.7705  -11.2598 H   0  0  0  0  0  0  0  0  0  0  0  0
    6.0910    5.8968  -13.0032 H   0  0  0  0  0  0  0  0  0  0  0  0
    4.6916    3.9873  -12.4611 H   0  0  0  0  0  0  0  0  0  0  0  0
    5.8309    3.3735  -11.2847 H   0  0  0  0  0  0  0  0  0  0  0  0
    8.1416    4.5095  -11.4708 H   0  0  0  0  0  0  0  0  0  0  0  0
  2  1  1  0
  3  2  1  0
  4  2  1  0
  5  4  1  0
  6  5  1  0
  7  6  2  0
  8  7  1  0
  9  8  2  0
 10  9  1  0
 11 10  2  0
 12 11  1  0
 13  5  2  0
 13  9  1  0
 13 12  1  0
 14 11  1  0
 15 14  1  0
 16 15  1  0
 17 16  1  0
 18 17  1  0
 19 18  1  0
 20 19  1  0
 21 20  1  0
 22 21  2  0
 23 22  1  0
 24 23  2  0
 25 24  1  0
 26 25  2  0
 27 26  1  0
 28 27  2  0
 29 27  1  0
 30 24  1  0
 30 29  1  0
 31 21  1  0
 31 30  2  0
 32 15  1  0
 33 10  1  0
 33 32  1  0
 34  1  1  0
 35  1  1  0
 36  1  1  0
 37  2  1  0
 38  3  1  0
 39  3  1  0
 40  3  1  0
 41  6  1  0
 42  7  1  0
 43  8  1  0
 44 14  1  0
 45 14  1  0
 46 16  1  0
 47 16  1  0
 48 17  1  0
 49 17  1  0
 50 18  1  0
 51 18  1  0
 52 19  1  0
 53 19  1  0
 54 22  1  0
 55 23  1  0
 56 25  1  0
 57 26  1  0
 58 29  1  0
 59 31  1  0
 60 32  1  0
 61 32  1  0
 62 33  1  0
 63 33  1  0
 15 64  1  1
M  CHG  1  15   1
M  END
>  <b_m_subgroup_collapsed>  (404) 
0

>  <r_i_docking_score>  (404) 
-8.0808760045470702

>  <s_m_subgroup_title>  (404) 
glide-dock_SP_D22_pv

>  <s_m_subgroupid>  (404) 
glide-dock_SP_D22_pv

>  <Molecule ChEMBL ID>  (404) 
CHEMBL5435325

>  <Standard Type>  (404) 
Ki

>  <Standard Value>  (404) 
88.8

>  <label>  (404) 
1

$$$$
CHEMBL559873
     RDKit          3D

 48 51  0  0  1  0  0  0  0  0999 V2000
    8.9444    8.1402   -7.1490 O   0  0  0  0  0  0  0  0  0  0  0  0
   10.0537    8.2853   -7.6554 C   0  0  0  0  0  0  0  0  0  0  0  0
   10.3271    8.3390   -8.9652 N   0  0  0  0  0  0  0  0  0  0  0  0
    9.4099    8.0779  -10.0563 C   0  0  0  0  0  0  0  0  0  0  0  0
    9.1766    6.5560  -10.1989 C   0  0  0  0  0  0  0  0  0  0  0  0
    8.2658    6.1724  -11.3078 N   0  0  2  0  0  0  0  0  0  0  0  0
    7.9534    4.7167  -11.2604 C   0  0  0  0  0  0  0  0  0  0  0  0
    7.2969    4.1637  -12.5449 C   0  0  0  0  0  0  0  0  0  0  0  0
    8.3171    3.7266  -13.6267 C   0  0  0  0  0  0  0  0  0  0  0  0
    9.6060    4.4972  -13.6481 C   0  0  0  0  0  0  0  0  0  0  0  0
   11.0774    3.7727  -14.2466 S   0  0  0  0  0  0  0  0  0  0  0  0
   11.9901    5.2005  -13.8475 C   0  0  0  0  0  0  0  0  0  0  0  0
   11.1958    6.1717  -13.3000 C   0  0  0  0  0  0  0  0  0  0  0  0
    9.8280    5.7721  -13.1870 C   0  0  0  0  0  0  0  0  0  0  0  0
    8.7246    6.6343  -12.6449 C   0  0  0  0  0  0  0  0  0  0  0  0
   11.7155    8.6281   -9.2555 C   0  0  0  0  0  0  0  0  0  0  0  0
   12.3565    8.5128   -7.8821 C   0  0  0  0  0  0  0  0  0  0  0  0
   11.2129    8.3759   -6.9956 N   0  0  0  0  0  0  0  0  0  0  0  0
   11.3319    8.5395   -5.6042 C   0  0  0  0  0  0  0  0  0  0  0  0
   11.1718    9.8186   -5.0437 C   0  0  0  0  0  0  0  0  0  0  0  0
   11.4033   10.0006   -3.6715 C   0  0  0  0  0  0  0  0  0  0  0  0
   11.8355    8.9367   -2.8677 C   0  0  0  0  0  0  0  0  0  0  0  0
   11.9698    7.6581   -3.4271 C   0  0  0  0  0  0  0  0  0  0  0  0
   12.4859    6.3674   -2.4271 Cl  0  0  0  0  0  0  0  0  0  0  0  0
   11.6859    7.4437   -4.7894 C   0  0  0  0  0  0  0  0  0  0  0  0
    9.8565    8.5212  -10.9439 H   0  0  0  0  0  0  0  0  0  0  0  0
    8.4864    8.6188   -9.8737 H   0  0  0  0  0  0  0  0  0  0  0  0
    8.7432    6.1796   -9.2699 H   0  0  0  0  0  0  0  0  0  0  0  0
   10.1332    6.0462  -10.3243 H   0  0  0  0  0  0  0  0  0  0  0  0
    8.8701    4.1651  -11.0508 H   0  0  0  0  0  0  0  0  0  0  0  0
    7.3134    4.5211  -10.4115 H   0  0  0  0  0  0  0  0  0  0  0  0
    6.6587    3.3169  -12.2999 H   0  0  0  0  0  0  0  0  0  0  0  0
    6.6012    4.8977  -12.9501 H   0  0  0  0  0  0  0  0  0  0  0  0
    7.8487    3.7555  -14.6106 H   0  0  0  0  0  0  0  0  0  0  0  0
    8.5631    2.6787  -13.4508 H   0  0  0  0  0  0  0  0  0  0  0  0
   13.0518    5.2435  -14.0482 H   0  0  0  0  0  0  0  0  0  0  0  0
   11.5452    7.1442  -12.9847 H   0  0  0  0  0  0  0  0  0  0  0  0
    9.0111    7.6805  -12.6313 H   0  0  0  0  0  0  0  0  0  0  0  0
    7.8810    6.6290  -13.3336 H   0  0  0  0  0  0  0  0  0  0  0  0
   12.1415    7.9204   -9.9681 H   0  0  0  0  0  0  0  0  0  0  0  0
   11.7989    9.6355   -9.6636 H   0  0  0  0  0  0  0  0  0  0  0  0
   12.9785    9.3716   -7.6259 H   0  0  0  0  0  0  0  0  0  0  0  0
   12.9612    7.6092   -7.8472 H   0  0  0  0  0  0  0  0  0  0  0  0
   10.8881   10.6585   -5.6623 H   0  0  0  0  0  0  0  0  0  0  0  0
   11.2866   10.9721   -3.2259 H   0  0  0  0  0  0  0  0  0  0  0  0
   12.0406    9.0980   -1.8197 H   0  0  0  0  0  0  0  0  0  0  0  0
   11.8044    6.4579   -5.2170 H   0  0  0  0  0  0  0  0  0  0  0  0
    7.4067    6.6847  -11.0961 H   0  0  0  0  0  0  0  0  0  0  0  0
  2  1  2  0
  3  2  1  0
  4  3  1  0
  5  4  1  0
  6  5  1  0
  7  6  1  0
  8  7  1  0
  9  8  1  0
 10  9  1  0
 11 10  1  0
 12 11  1  0
 13 12  2  0
 14 10  2  0
 14 13  1  0
 15  6  1  0
 15 14  1  0
 16  3  1  0
 17 16  1  0
 18  2  1  0
 18 17  1  0
 19 18  1  0
 20 19  2  0
 21 20  1  0
 22 21  2  0
 23 22  1  0
 24 23  1  0
 25 19  1  0
 25 23  2  0
 26  4  1  0
 27  4  1  0
 28  5  1  0
 29  5  1  0
 30  7  1  0
 31  7  1  0
 32  8  1  0
 33  8  1  0
 34  9  1  0
 35  9  1  0
 36 12  1  0
 37 13  1  0
 38 15  1  0
 39 15  1  0
 40 16  1  0
 41 16  1  0
 42 17  1  0
 43 17  1  0
 44 20  1  0
 45 21  1  0
 46 22  1  0
 47 25  1  0
  6 48  1  1
M  CHG  1   6   1
M  END
>  <b_m_subgroup_collapsed>  (405) 
0

>  <r_i_docking_score>  (405) 
-8.0802289654920401

>  <s_m_subgroup_title>  (405) 
glide-dock_SP_D22_pv

>  <s_m_subgroupid>  (405) 
glide-dock_SP_D22_pv

>  <Molecule ChEMBL ID>  (405) 
CHEMBL559873

>  <Standard Type>  (405) 
Ki

>  <Standard Value>  (405) 
3.162

>  <label>  (405) 
1

$$$$
CHEMBL4165881
     RDKit          3D

 46 48  0  0  1  0  0  0  0  0999 V2000
   11.8931    6.9461   -3.0766 C   0  0  0  0  0  0  0  0  0  0  0  0
   11.6866    7.7244   -4.3619 C   0  0  0  0  0  0  0  0  0  0  0  0
   12.1903    9.0324   -4.4760 C   0  0  0  0  0  0  0  0  0  0  0  0
   12.0034    9.7446   -5.6724 C   0  0  0  0  0  0  0  0  0  0  0  0
   11.2983    9.1708   -6.7428 C   0  0  0  0  0  0  0  0  0  0  0  0
   10.7788    7.8564   -6.6554 C   0  0  0  0  0  0  0  0  0  0  0  0
   10.0971    7.2581   -7.7426 N   0  0  0  0  0  0  0  0  0  0  0  0
    8.9148    6.4585   -7.4417 C   0  0  0  0  0  0  0  0  0  0  0  0
    8.6051    5.4861   -8.5884 C   0  0  0  0  0  0  0  0  0  0  0  0
    8.4862    6.1722   -9.9014 N   0  0  0  0  0  0  0  0  0  0  0  0
    8.2463    5.2048  -11.0026 C   0  0  0  0  0  0  0  0  0  0  0  0
    7.5886    5.8492  -12.2402 C   0  0  0  0  0  0  0  0  0  0  0  0
    7.6342    4.9717  -13.4047 N   0  0  0  0  0  0  0  0  0  0  0  0
    6.9219    3.7686  -13.4283 C   0  0  0  0  0  0  0  0  0  0  0  0
    5.7731    3.5155  -12.6379 C   0  0  0  0  0  0  0  0  0  0  0  0
    5.1587    2.3114  -12.6449 N   0  0  0  0  0  0  0  0  0  0  0  0
    5.6857    1.3635  -13.4497 C   0  0  0  0  0  0  0  0  0  0  0  0
    6.8137    1.6182  -14.2608 C   0  0  0  0  0  0  0  0  0  0  0  0
    7.4341    0.3727  -15.2755 Cl  0  0  0  0  0  0  0  0  0  0  0  0
    7.4293    2.8221  -14.2468 N   0  0  0  0  0  0  0  0  0  0  0  0
    9.6599    7.0430  -10.1761 C   0  0  0  0  0  0  0  0  0  0  0  0
    9.9981    7.9835   -9.0086 C   0  0  0  0  0  0  0  0  0  0  0  0
   10.9894    7.1455   -5.4462 C   0  0  0  0  0  0  0  0  0  0  0  0
   11.1339    6.1731   -2.9602 H   0  0  0  0  0  0  0  0  0  0  0  0
   12.8726    6.4688   -3.0684 H   0  0  0  0  0  0  0  0  0  0  0  0
   11.8313    7.6082   -2.2130 H   0  0  0  0  0  0  0  0  0  0  0  0
   12.7309    9.4862   -3.6575 H   0  0  0  0  0  0  0  0  0  0  0  0
   12.4037   10.7397   -5.7879 H   0  0  0  0  0  0  0  0  0  0  0  0
   11.1769    9.7724   -7.6283 H   0  0  0  0  0  0  0  0  0  0  0  0
    8.0860    7.1433   -7.2757 H   0  0  0  0  0  0  0  0  0  0  0  0
    9.0135    5.8760   -6.5307 H   0  0  0  0  0  0  0  0  0  0  0  0
    7.6862    4.9539   -8.3533 H   0  0  0  0  0  0  0  0  0  0  0  0
    9.3961    4.7353   -8.6482 H   0  0  0  0  0  0  0  0  0  0  0  0
    7.6016    4.4009  -10.6471 H   0  0  0  0  0  0  0  0  0  0  0  0
    9.1910    4.7301  -11.2751 H   0  0  0  0  0  0  0  0  0  0  0  0
    8.1095    6.7640  -12.5207 H   0  0  0  0  0  0  0  0  0  0  0  0
    6.5619    6.1481  -12.0206 H   0  0  0  0  0  0  0  0  0  0  0  0
    8.4659    5.0083  -13.9767 H   0  0  0  0  0  0  0  0  0  0  0  0
    5.3523    4.2610  -11.9791 H   0  0  0  0  0  0  0  0  0  0  0  0
    5.1971    0.4003  -13.4575 H   0  0  0  0  0  0  0  0  0  0  0  0
   10.5278    6.4141  -10.3755 H   0  0  0  0  0  0  0  0  0  0  0  0
    9.4898    7.6385  -11.0720 H   0  0  0  0  0  0  0  0  0  0  0  0
    9.2370    8.7610   -8.9184 H   0  0  0  0  0  0  0  0  0  0  0  0
   10.9416    8.4725   -9.2513 H   0  0  0  0  0  0  0  0  0  0  0  0
   10.6460    6.1310   -5.3321 H   0  0  0  0  0  0  0  0  0  0  0  0
    7.6579    6.7768   -9.8472 H   0  0  0  0  0  0  0  0  0  0  0  0
  2  1  1  0
  3  2  2  0
  4  3  1  0
  5  4  2  0
  6  5  1  0
  7  6  1  0
  8  7  1  0
  9  8  1  0
 10  9  1  0
 11 10  1  0
 12 11  1  0
 13 12  1  0
 14 13  1  0
 15 14  2  0
 16 15  1  0
 17 16  2  0
 18 17  1  0
 19 18  1  0
 20 14  1  0
 20 18  2  0
 21 10  1  0
 22  7  1  0
 22 21  1  0
 23  2  1  0
 23  6  2  0
 24  1  1  0
 25  1  1  0
 26  1  1  0
 27  3  1  0
 28  4  1  0
 29  5  1  0
 30  8  1  0
 31  8  1  0
 32  9  1  0
 33  9  1  0
 34 11  1  0
 35 11  1  0
 36 12  1  0
 37 12  1  0
 38 13  1  0
 39 15  1  0
 40 17  1  0
 41 21  1  0
 42 21  1  0
 43 22  1  0
 44 22  1  0
 45 23  1  0
 46 10  1  0
M  CHG  1  10   1
M  END
>  <b_m_subgroup_collapsed>  (406) 
0

>  <r_i_docking_score>  (406) 
-8.0791676310654594

>  <s_m_subgroup_title>  (406) 
glide-dock_SP_D22_pv

>  <s_m_subgroupid>  (406) 
glide-dock_SP_D22_pv

>  <Molecule ChEMBL ID>  (406) 
CHEMBL4165881

>  <Standard Type>  (406) 
Ki

>  <Standard Value>  (406) 
10000.0

>  <label>  (406) 
0

$$$$
CHEMBL5723014
     RDKit          3D

 52 54  0  0  1  0  0  0  0  0999 V2000
    5.6868    0.7078  -14.0285 O   0  0  0  0  0  0  0  0  0  0  0  0
    6.4875    1.6408  -14.0557 C   0  0  0  0  0  0  0  0  0  0  0  0
    6.1625    2.9574  -13.4463 C   0  0  0  0  0  0  0  0  0  0  0  0
    7.0631    3.9667  -13.4480 C   0  0  0  0  0  0  0  0  0  0  0  0
    6.8217    5.3270  -12.8067 C   0  0  0  0  0  0  0  0  0  0  0  0
    7.2859    5.3724  -11.4024 N   0  0  0  0  0  0  0  0  0  0  0  0
    8.6905    4.9772  -11.1710 C   0  0  0  0  0  0  0  0  0  0  0  0
    9.1527    5.2702   -9.7378 C   0  0  0  0  0  0  0  0  0  0  0  0
    9.4201    6.7707   -9.5245 C   0  0  0  0  0  0  0  0  0  0  0  0
   10.2822    7.1118   -8.3944 N   0  0  0  0  0  0  0  0  0  0  0  0
    9.6630    6.7186   -7.1259 C   0  0  0  0  0  0  0  0  0  0  0  0
   10.5804    6.9602   -5.9225 C   0  0  0  0  0  0  0  0  0  0  0  0
   10.9584    8.4411   -5.8267 C   0  0  0  0  0  0  0  0  0  0  0  0
   11.5213    8.9207   -7.1692 C   0  0  0  0  0  0  0  0  0  0  0  0
   10.6084    8.5533   -8.3643 C   0  0  1  0  0  0  0  0  0  0  0  0
   11.2395    9.1052   -9.6693 C   0  0  0  0  0  0  0  0  0  0  0  0
   12.4842    8.5020   -9.9632 O   0  0  0  0  0  0  0  0  0  0  0  0
    8.2936    3.8379  -14.0779 N   0  0  0  0  0  0  0  0  0  0  0  0
    8.7283    2.6362  -14.6361 C   0  0  0  0  0  0  0  0  0  0  0  0
   10.0330    2.5418  -15.1617 C   0  0  0  0  0  0  0  0  0  0  0  0
   10.4840    1.3242  -15.7021 C   0  0  0  0  0  0  0  0  0  0  0  0
    9.6339    0.2041  -15.7200 C   0  0  0  0  0  0  0  0  0  0  0  0
   10.0859   -0.9565  -16.2468 F   0  0  0  0  0  0  0  0  0  0  0  0
    8.3256    0.2958  -15.1972 C   0  0  0  0  0  0  0  0  0  0  0  0
    7.8603    1.5146  -14.6479 C   0  0  0  0  0  0  0  0  0  0  0  0
    5.1984    3.0722  -12.9702 H   0  0  0  0  0  0  0  0  0  0  0  0
    5.7634    5.5832  -12.8524 H   0  0  0  0  0  0  0  0  0  0  0  0
    7.3590    6.0956  -13.3629 H   0  0  0  0  0  0  0  0  0  0  0  0
    6.6890    4.7832  -10.8339 H   0  0  0  0  0  0  0  0  0  0  0  0
    9.3429    5.4863  -11.8835 H   0  0  0  0  0  0  0  0  0  0  0  0
    8.8005    3.9117  -11.3726 H   0  0  0  0  0  0  0  0  0  0  0  0
   10.0772    4.7209   -9.5556 H   0  0  0  0  0  0  0  0  0  0  0  0
    8.4270    4.8889   -9.0151 H   0  0  0  0  0  0  0  0  0  0  0  0
    8.4864    7.3187   -9.4545 H   0  0  0  0  0  0  0  0  0  0  0  0
    9.8965    7.0982  -10.4428 H   0  0  0  0  0  0  0  0  0  0  0  0
    8.7208    7.2520   -6.9852 H   0  0  0  0  0  0  0  0  0  0  0  0
    9.4146    5.6595   -7.1432 H   0  0  0  0  0  0  0  0  0  0  0  0
   10.0855    6.6300   -5.0084 H   0  0  0  0  0  0  0  0  0  0  0  0
   11.4819    6.3529   -6.0222 H   0  0  0  0  0  0  0  0  0  0  0  0
   10.0865    9.0382   -5.5672 H   0  0  0  0  0  0  0  0  0  0  0  0
   11.6870    8.5981   -5.0311 H   0  0  0  0  0  0  0  0  0  0  0  0
   12.4993    8.4749   -7.3235 H   0  0  0  0  0  0  0  0  0  0  0  0
   11.6814    9.9983   -7.1186 H   0  0  0  0  0  0  0  0  0  0  0  0
    9.6741    9.0980   -8.2243 H   0  0  0  0  0  0  0  0  0  0  0  0
   11.3959   10.1733   -9.5633 H   0  0  0  0  0  0  0  0  0  0  0  0
   10.5767    9.0149  -10.5290 H   0  0  0  0  0  0  0  0  0  0  0  0
   13.1412    9.1939   -9.9850 H   0  0  0  0  0  0  0  0  0  0  0  0
    8.9350    4.6200  -14.0983 H   0  0  0  0  0  0  0  0  0  0  0  0
   10.6945    3.3971  -15.1489 H   0  0  0  0  0  0  0  0  0  0  0  0
   11.4861    1.2480  -16.1004 H   0  0  0  0  0  0  0  0  0  0  0  0
    7.6884   -0.5769  -15.2125 H   0  0  0  0  0  0  0  0  0  0  0  0
    7.1413    6.3239  -11.0548 H   0  0  0  0  0  0  0  0  0  0  0  0
  2  1  2  0
  3  2  1  0
  4  3  2  0
  5  4  1  0
  6  5  1  0
  7  6  1  0
  8  7  1  0
  9  8  1  0
 10  9  1  0
 11 10  1  0
 12 11  1  0
 13 12  1  0
 14 13  1  0
 15 10  1  0
 15 14  1  0
 16 15  1  0
 17 16  1  0
 18  4  1  0
 19 18  1  0
 20 19  2  0
 21 20  1  0
 22 21  2  0
 23 22  1  0
 24 22  1  0
 25  2  1  0
 25 19  1  0
 25 24  2  0
 26  3  1  0
 27  5  1  0
 28  5  1  0
 29  6  1  0
 30  7  1  0
 31  7  1  0
 32  8  1  0
 33  8  1  0
 34  9  1  0
 35  9  1  0
 36 11  1  0
 37 11  1  0
 38 12  1  0
 39 12  1  0
 40 13  1  0
 41 13  1  0
 42 14  1  0
 43 14  1  0
 15 44  1  1
 45 16  1  0
 46 16  1  0
 47 17  1  0
 48 18  1  0
 49 20  1  0
 50 21  1  0
 51 24  1  0
 52  6  1  0
M  CHG  1   6   1
M  END
>  <b_m_subgroup_collapsed>  (407) 
0

>  <r_i_docking_score>  (407) 
-8.0786354938830094

>  <s_m_subgroup_title>  (407) 
glide-dock_SP_D22_pv

>  <s_m_subgroupid>  (407) 
glide-dock_SP_D22_pv

>  <Molecule ChEMBL ID>  (407) 
CHEMBL5723014

>  <Standard Type>  (407) 
Ki

>  <Standard Value>  (407) 
10000.0

>  <label>  (407) 
0

$$$$
CHEMBL29649
     RDKit          3D

 59 62  0  0  1  0  0  0  0  0999 V2000
   12.9248    5.1349  -15.5942 C   0  0  0  0  0  0  0  0  0  0  0  0
   11.4176    4.9369  -15.4263 C   0  0  0  0  0  0  0  0  0  0  0  0
   11.1853    4.2390  -14.2094 O   0  0  0  0  0  0  0  0  0  0  0  0
    9.8548    4.0298  -13.9466 C   0  0  0  0  0  0  0  0  0  0  0  0
    9.1055    4.9466  -13.1577 C   0  0  0  0  0  0  0  0  0  0  0  0
    9.7382    6.1721  -12.5388 C   0  0  0  0  0  0  0  0  0  0  0  0
   10.8861    6.5281  -12.8145 O   0  0  0  0  0  0  0  0  0  0  0  0
    8.9774    6.8503  -11.6631 N   0  0  0  0  0  0  0  0  0  0  0  0
    9.3683    8.0630  -10.9605 C   0  0  0  0  0  0  0  0  0  0  0  0
   10.6548    7.8660  -10.1350 C   0  0  0  0  0  0  0  0  0  0  0  0
   10.5282    8.4913   -8.8256 N   0  0  0  0  0  0  0  0  0  0  0  0
    9.8269    7.5521   -7.9325 C   0  0  0  0  0  0  0  0  0  0  0  0
    9.6625    8.1453   -6.5230 C   0  0  0  0  0  0  0  0  0  0  0  0
   10.9385    8.6447   -6.0379 N   0  0  0  0  0  0  0  0  0  0  0  0
   11.4087    8.3671   -4.7560 C   0  0  0  0  0  0  0  0  0  0  0  0
   11.5832    7.0345   -4.3221 C   0  0  0  0  0  0  0  0  0  0  0  0
   12.0884    6.7837   -3.0331 C   0  0  0  0  0  0  0  0  0  0  0  0
   12.4395    7.8523   -2.1920 C   0  0  0  0  0  0  0  0  0  0  0  0
   12.2411    9.1772   -2.6115 C   0  0  0  0  0  0  0  0  0  0  0  0
   11.7260    9.4319   -3.8922 C   0  0  0  0  0  0  0  0  0  0  0  0
   11.7357    9.4667   -6.9342 C   0  0  0  0  0  0  0  0  0  0  0  0
   11.8634    8.7504   -8.2876 C   0  0  0  0  0  0  0  0  0  0  0  0
    7.7313    4.6904  -12.9542 C   0  0  0  0  0  0  0  0  0  0  0  0
    7.1134    3.5447  -13.4779 C   0  0  0  0  0  0  0  0  0  0  0  0
    5.2873    3.2552  -13.0414 Br  0  0  0  0  0  0  0  0  0  0  0  0
    7.8588    2.6215  -14.2460 C   0  0  0  0  0  0  0  0  0  0  0  0
    7.2607    1.4525  -14.7633 C   0  0  0  0  0  0  0  0  0  0  0  0
    8.0301    0.5130  -15.4758 C   0  0  0  0  0  0  0  0  0  0  0  0
    9.4032    0.7346  -15.6700 C   0  0  0  0  0  0  0  0  0  0  0  0
   10.0048    1.9041  -15.1703 C   0  0  0  0  0  0  0  0  0  0  0  0
    9.2413    2.8593  -14.4590 C   0  0  0  0  0  0  0  0  0  0  0  0
   13.1492    5.6890  -16.5057 H   0  0  0  0  0  0  0  0  0  0  0  0
   13.3358    5.6920  -14.7517 H   0  0  0  0  0  0  0  0  0  0  0  0
   13.4362    4.1731  -15.6487 H   0  0  0  0  0  0  0  0  0  0  0  0
   11.0194    4.3775  -16.2753 H   0  0  0  0  0  0  0  0  0  0  0  0
   10.9140    5.9056  -15.4113 H   0  0  0  0  0  0  0  0  0  0  0  0
    8.0410    6.5184  -11.4623 H   0  0  0  0  0  0  0  0  0  0  0  0
    8.5304    8.3714  -10.3358 H   0  0  0  0  0  0  0  0  0  0  0  0
    9.5033    8.8699  -11.6819 H   0  0  0  0  0  0  0  0  0  0  0  0
   11.4778    8.3169  -10.6934 H   0  0  0  0  0  0  0  0  0  0  0  0
   10.9107    6.8093  -10.0241 H   0  0  0  0  0  0  0  0  0  0  0  0
   10.3803    6.6144   -7.8673 H   0  0  0  0  0  0  0  0  0  0  0  0
    8.8421    7.3076   -8.3345 H   0  0  0  0  0  0  0  0  0  0  0  0
    9.2642    7.3836   -5.8525 H   0  0  0  0  0  0  0  0  0  0  0  0
    8.9394    8.9624   -6.5399 H   0  0  0  0  0  0  0  0  0  0  0  0
   11.3337    6.2092   -4.9724 H   0  0  0  0  0  0  0  0  0  0  0  0
   12.2307    5.7709   -2.6955 H   0  0  0  0  0  0  0  0  0  0  0  0
   12.8569    7.6611   -1.2158 H   0  0  0  0  0  0  0  0  0  0  0  0
   12.4828    9.9943   -1.9518 H   0  0  0  0  0  0  0  0  0  0  0  0
   11.5722   10.4541   -4.2074 H   0  0  0  0  0  0  0  0  0  0  0  0
   11.2679   10.4432   -7.0460 H   0  0  0  0  0  0  0  0  0  0  0  0
   12.7275    9.6405   -6.5174 H   0  0  0  0  0  0  0  0  0  0  0  0
   12.4201    7.8206   -8.1723 H   0  0  0  0  0  0  0  0  0  0  0  0
   12.4250    9.3704   -8.9822 H   0  0  0  0  0  0  0  0  0  0  0  0
    7.1138    5.3513  -12.3667 H   0  0  0  0  0  0  0  0  0  0  0  0
    6.2114    1.2478  -14.6140 H   0  0  0  0  0  0  0  0  0  0  0  0
    7.5651   -0.3844  -15.8593 H   0  0  0  0  0  0  0  0  0  0  0  0
    9.9960    0.0068  -16.2030 H   0  0  0  0  0  0  0  0  0  0  0  0
   11.0641    2.0464  -15.3226 H   0  0  0  0  0  0  0  0  0  0  0  0
  2  1  1  0
  3  2  1  0
  4  3  1  0
  5  4  2  0
  6  5  1  0
  7  6  2  0
  8  6  1  0
  9  8  1  0
 10  9  1  0
 11 10  1  0
 12 11  1  0
 13 12  1  0
 14 13  1  0
 15 14  1  0
 16 15  2  0
 17 16  1  0
 18 17  2  0
 19 18  1  0
 20 15  1  0
 20 19  2  0
 21 14  1  0
 22 11  1  0
 22 21  1  0
 23  5  1  0
 24 23  2  0
 25 24  1  0
 26 24  1  0
 27 26  2  0
 28 27  1  0
 29 28  2  0
 30 29  1  0
 31  4  1  0
 31 26  1  0
 31 30  2  0
 32  1  1  0
 33  1  1  0
 34  1  1  0
 35  2  1  0
 36  2  1  0
 37  8  1  0
 38  9  1  0
 39  9  1  0
 40 10  1  0
 41 10  1  0
 42 12  1  0
 43 12  1  0
 44 13  1  0
 45 13  1  0
 46 16  1  0
 47 17  1  0
 48 18  1  0
 49 19  1  0
 50 20  1  0
 51 21  1  0
 52 21  1  0
 53 22  1  0
 54 22  1  0
 55 23  1  0
 56 27  1  0
 57 28  1  0
 58 29  1  0
 59 30  1  0
M  END
>  <b_m_subgroup_collapsed>  (408) 
0

>  <r_i_docking_score>  (408) 
-8.0776508711014703

>  <s_m_subgroup_title>  (408) 
glide-dock_SP_D22_pv

>  <s_m_subgroupid>  (408) 
glide-dock_SP_D22_pv

>  <Molecule ChEMBL ID>  (408) 
CHEMBL29649

>  <Standard Type>  (408) 
Ki

>  <Standard Value>  (408) 
10000.0

>  <label>  (408) 
0

$$$$
CHEMBL1833977
     RDKit          3D

 56 59  0  0  1  0  0  0  0  0999 V2000
    5.4322   -1.0294  -14.3619 C   0  0  0  0  0  0  0  0  0  0  0  0
    5.0385    0.0971  -13.5851 O   0  0  0  0  0  0  0  0  0  0  0  0
    5.7897    1.2476  -13.7045 C   0  0  0  0  0  0  0  0  0  0  0  0
    5.3707    2.3772  -12.9657 C   0  0  0  0  0  0  0  0  0  0  0  0
    6.0860    3.5911  -13.0325 C   0  0  0  0  0  0  0  0  0  0  0  0
    7.2336    3.6936  -13.8463 C   0  0  0  0  0  0  0  0  0  0  0  0
    8.0285    4.9933  -13.9036 C   0  0  0  0  0  0  0  0  0  0  0  0
    9.4579    4.8615  -13.3706 C   0  0  0  0  0  0  0  0  0  0  0  0
    9.5209    4.5490  -11.8681 C   0  0  0  0  0  0  0  0  0  0  0  0
    9.2580    5.6747  -10.9704 N   0  0  0  0  0  0  0  0  0  0  0  0
   10.1206    6.8406  -11.1943 C   0  0  0  0  0  0  0  0  0  0  0  0
    9.7890    7.9563  -10.1857 C   0  0  0  0  0  0  0  0  0  0  0  0
    9.9499    7.4622   -8.7961 N   0  0  0  0  0  0  0  0  0  0  0  0
    9.7289    8.5139   -7.7791 C   0  0  0  0  0  0  0  0  0  0  0  0
   10.4632    8.2512   -6.5007 C   0  0  0  0  0  0  0  0  0  0  0  0
   10.9505    7.0997   -5.9206 C   0  0  0  0  0  0  0  0  0  0  0  0
   11.4858    7.4891   -4.6488 C   0  0  0  0  0  0  0  0  0  0  0  0
   12.0792    6.8477   -3.5376 C   0  0  0  0  0  0  0  0  0  0  0  0
   12.4602    7.5794   -2.3978 C   0  0  0  0  0  0  0  0  0  0  0  0
   12.2684    8.9730   -2.3475 C   0  0  0  0  0  0  0  0  0  0  0  0
   11.6880    9.6410   -3.4425 C   0  0  0  0  0  0  0  0  0  0  0  0
   11.3107    8.8932   -4.5664 C   0  0  0  0  0  0  0  0  0  0  0  0
   10.6988    9.3477   -5.7140 O   0  0  0  0  0  0  0  0  0  0  0  0
    9.0869    6.2747   -8.5967 C   0  0  0  0  0  0  0  0  0  0  0  0
    9.4525    5.1817   -9.6037 C   0  0  0  0  0  0  0  0  0  0  0  0
    7.6491    2.5724  -14.5968 C   0  0  0  0  0  0  0  0  0  0  0  0
    6.9391    1.3606  -14.5225 C   0  0  0  0  0  0  0  0  0  0  0  0
    4.7010   -1.8267  -14.2451 H   0  0  0  0  0  0  0  0  0  0  0  0
    5.4749   -0.7923  -15.4270 H   0  0  0  0  0  0  0  0  0  0  0  0
    6.3977   -1.4151  -14.0367 H   0  0  0  0  0  0  0  0  0  0  0  0
    4.4978    2.3094  -12.3362 H   0  0  0  0  0  0  0  0  0  0  0  0
    5.7578    4.4348  -12.4443 H   0  0  0  0  0  0  0  0  0  0  0  0
    8.0861    5.3427  -14.9334 H   0  0  0  0  0  0  0  0  0  0  0  0
    7.5011    5.7717  -13.3508 H   0  0  0  0  0  0  0  0  0  0  0  0
    9.9570    4.0569  -13.9091 H   0  0  0  0  0  0  0  0  0  0  0  0
   10.0342    5.7499  -13.6186 H   0  0  0  0  0  0  0  0  0  0  0  0
    8.7959    3.7706  -11.6472 H   0  0  0  0  0  0  0  0  0  0  0  0
   10.4858    4.1152  -11.6469 H   0  0  0  0  0  0  0  0  0  0  0  0
   11.1731    6.5725  -11.1254 H   0  0  0  0  0  0  0  0  0  0  0  0
    9.9564    7.2387  -12.1953 H   0  0  0  0  0  0  0  0  0  0  0  0
   10.4596    8.7997  -10.3572 H   0  0  0  0  0  0  0  0  0  0  0  0
    8.7744    8.3240  -10.3433 H   0  0  0  0  0  0  0  0  0  0  0  0
   10.0832    9.4630   -8.1753 H   0  0  0  0  0  0  0  0  0  0  0  0
    8.6605    8.6447   -7.5852 H   0  0  0  0  0  0  0  0  0  0  0  0
   10.9187    6.0881   -6.2949 H   0  0  0  0  0  0  0  0  0  0  0  0
   12.2086    5.7764   -3.5500 H   0  0  0  0  0  0  0  0  0  0  0  0
   12.8857    7.0650   -1.5481 H   0  0  0  0  0  0  0  0  0  0  0  0
   12.5523    9.5288   -1.4635 H   0  0  0  0  0  0  0  0  0  0  0  0
   11.5137   10.7020   -3.4026 H   0  0  0  0  0  0  0  0  0  0  0  0
    9.1657    5.8871   -7.5828 H   0  0  0  0  0  0  0  0  0  0  0  0
    8.0567    6.5652   -8.7402 H   0  0  0  0  0  0  0  0  0  0  0  0
    8.8131    4.3145   -9.4311 H   0  0  0  0  0  0  0  0  0  0  0  0
   10.4847    4.8610   -9.4472 H   0  0  0  0  0  0  0  0  0  0  0  0
    8.5251    2.6367  -15.2262 H   0  0  0  0  0  0  0  0  0  0  0  0
    7.3055    0.5254  -15.1019 H   0  0  0  0  0  0  0  0  0  0  0  0
   10.9072    7.1638   -8.6986 H   0  0  0  0  0  0  0  0  0  0  0  0
  2  1  1  0
  3  2  1  0
  4  3  1  0
  5  4  2  0
  6  5  1  0
  7  6  1  0
  8  7  1  0
  9  8  1  0
 10  9  1  0
 11 10  1  0
 12 11  1  0
 13 12  1  0
 14 13  1  0
 15 14  1  0
 16 15  2  0
 17 16  1  0
 18 17  2  0
 19 18  1  0
 20 19  2  0
 21 20  1  0
 22 17  1  0
 22 21  2  0
 23 15  1  0
 23 22  1  0
 24 13  1  0
 25 10  1  0
 25 24  1  0
 26  6  2  0
 27  3  2  0
 27 26  1  0
 28  1  1  0
 29  1  1  0
 30  1  1  0
 31  4  1  0
 32  5  1  0
 33  7  1  0
 34  7  1  0
 35  8  1  0
 36  8  1  0
 37  9  1  0
 38  9  1  0
 39 11  1  0
 40 11  1  0
 41 12  1  0
 42 12  1  0
 43 14  1  0
 44 14  1  0
 45 16  1  0
 46 18  1  0
 47 19  1  0
 48 20  1  0
 49 21  1  0
 50 24  1  0
 51 24  1  0
 52 25  1  0
 53 25  1  0
 54 26  1  0
 55 27  1  0
 56 13  1  0
M  CHG  1  13   1
M  END
>  <b_m_subgroup_collapsed>  (409) 
0

>  <r_i_docking_score>  (409) 
-8.0772086119649504

>  <s_m_subgroup_title>  (409) 
glide-dock_SP_D22_pv

>  <s_m_subgroupid>  (409) 
glide-dock_SP_D22_pv

>  <Molecule ChEMBL ID>  (409) 
CHEMBL1833977

>  <Standard Type>  (409) 
Ki

>  <Standard Value>  (409) 
10000.0

>  <label>  (409) 
0

$$$$
CHEMBL4436589
     RDKit          3D

 58 61  0  0  1  0  0  0  0  0999 V2000
    9.1429    8.6660  -10.7824 C   0  0  0  0  0  0  0  0  0  0  0  0
    9.9226    8.7731   -9.4571 C   0  0  1  0  0  0  0  0  0  0  0  0
    8.9133    8.5681   -8.3065 C   0  0  0  0  0  0  0  0  0  0  0  0
    9.5444    8.7505   -7.0496 O   0  0  0  0  0  0  0  0  0  0  0  0
   10.6234    7.8516   -6.8378 C   0  0  2  0  0  0  0  0  0  0  0  0
   11.2199    8.0819   -5.4642 C   0  0  0  0  0  0  0  0  0  0  0  0
   11.5704    7.0059   -4.6223 C   0  0  0  0  0  0  0  0  0  0  0  0
   12.0861    7.2870   -3.3419 C   0  0  0  0  0  0  0  0  0  0  0  0
   12.2379    8.6362   -2.9673 C   0  0  0  0  0  0  0  0  0  0  0  0
   12.7567    8.9715   -1.7223 N   0  0  0  0  0  0  0  0  0  0  0  0
   11.9189    9.6687   -3.7674 N   0  0  0  0  0  0  0  0  0  0  0  0
   11.4256    9.3932   -4.9924 C   0  0  0  0  0  0  0  0  0  0  0  0
   11.6532    8.0647   -7.9650 C   0  0  0  0  0  0  0  0  0  0  0  0
   11.0906    7.8816   -9.3028 N   0  0  0  0  0  0  0  0  0  0  0  0
   12.1530    8.0904  -10.2928 C   0  0  0  0  0  0  0  0  0  0  0  0
   11.8361    7.5014  -11.6500 C   0  0  0  0  0  0  0  0  0  0  0  0
   12.6548    7.5319  -12.7123 C   0  0  0  0  0  0  0  0  0  0  0  0
   12.2920    7.0258  -14.0934 C   0  0  0  0  0  0  0  0  0  0  0  0
   12.4981    5.6276  -14.2490 O   0  0  0  0  0  0  0  0  0  0  0  0
   11.4117    4.7838  -14.3183 C   0  0  0  0  0  0  0  0  0  0  0  0
   10.1292    5.0760  -13.7904 C   0  0  0  0  0  0  0  0  0  0  0  0
    9.0721    4.1571  -13.9151 C   0  0  0  0  0  0  0  0  0  0  0  0
    9.2829    2.9299  -14.5699 C   0  0  0  0  0  0  0  0  0  0  0  0
   10.5595    2.6243  -15.0908 C   0  0  0  0  0  0  0  0  0  0  0  0
   11.6162    3.5486  -14.9645 C   0  0  0  0  0  0  0  0  0  0  0  0
   10.7775    1.3992  -15.7645 N   0  0  0  0  0  0  0  0  0  0  0  0
    9.9124    0.3745  -15.7535 C   0  0  0  0  0  0  0  0  0  0  0  0
   10.0867   -0.6304  -16.4339 O   0  0  0  0  0  0  0  0  0  0  0  0
    8.6870    0.4922  -14.8401 C   0  0  0  0  0  0  0  0  0  0  0  0
    8.1539    1.9334  -14.7564 C   0  0  0  0  0  0  0  0  0  0  0  0
    8.2627    9.3095  -10.7696 H   0  0  0  0  0  0  0  0  0  0  0  0
    9.7265    8.9714  -11.6460 H   0  0  0  0  0  0  0  0  0  0  0  0
    8.8001    7.6442  -10.9556 H   0  0  0  0  0  0  0  0  0  0  0  0
   10.2825    9.7965   -9.3941 H   0  0  0  0  0  0  0  0  0  0  0  0
    8.4866    7.5642   -8.3531 H   0  0  0  0  0  0  0  0  0  0  0  0
    8.0885    9.2768   -8.3783 H   0  0  0  0  0  0  0  0  0  0  0  0
   10.2420    6.8295   -6.8778 H   0  0  0  0  0  0  0  0  0  0  0  0
   11.4301    5.9826   -4.9418 H   0  0  0  0  0  0  0  0  0  0  0  0
   12.3505    6.4837   -2.6722 H   0  0  0  0  0  0  0  0  0  0  0  0
   13.0859    8.2669   -1.0821 H   0  0  0  0  0  0  0  0  0  0  0  0
   13.0580    9.9240   -1.5516 H   0  0  0  0  0  0  0  0  0  0  0  0
   11.1742   10.2470   -5.6052 H   0  0  0  0  0  0  0  0  0  0  0  0
   12.4837    7.3732   -7.8334 H   0  0  0  0  0  0  0  0  0  0  0  0
   12.0766    9.0680   -7.8740 H   0  0  0  0  0  0  0  0  0  0  0  0
   13.0797    7.6342   -9.9492 H   0  0  0  0  0  0  0  0  0  0  0  0
   12.3614    9.1526  -10.3987 H   0  0  0  0  0  0  0  0  0  0  0  0
   10.8652    7.0389  -11.7395 H   0  0  0  0  0  0  0  0  0  0  0  0
   13.6442    7.9584  -12.6045 H   0  0  0  0  0  0  0  0  0  0  0  0
   11.2860    7.3289  -14.3566 H   0  0  0  0  0  0  0  0  0  0  0  0
   12.9362    7.5375  -14.8089 H   0  0  0  0  0  0  0  0  0  0  0  0
    9.9231    6.0074  -13.2917 H   0  0  0  0  0  0  0  0  0  0  0  0
    8.1017    4.4040  -13.5138 H   0  0  0  0  0  0  0  0  0  0  0  0
   12.5886    3.3217  -15.3772 H   0  0  0  0  0  0  0  0  0  0  0  0
   11.6313    1.2958  -16.2913 H   0  0  0  0  0  0  0  0  0  0  0  0
    7.9014   -0.1946  -15.1637 H   0  0  0  0  0  0  0  0  0  0  0  0
    9.0000    0.1703  -13.8477 H   0  0  0  0  0  0  0  0  0  0  0  0
    7.4502    2.0207  -13.9263 H   0  0  0  0  0  0  0  0  0  0  0  0
    7.6080    2.1892  -15.6645 H   0  0  0  0  0  0  0  0  0  0  0  0
  2  1  1  0
  3  2  1  0
  4  3  1  0
  5  4  1  0
  6  5  1  0
  7  6  2  0
  8  7  1  0
  9  8  2  0
 10  9  1  0
 11  9  1  0
 12  6  1  0
 12 11  2  0
 13  5  1  0
 14  2  1  0
 14 13  1  0
 15 14  1  0
 16 15  1  0
 17 16  2  0
 18 17  1  0
 19 18  1  0
 20 19  1  0
 21 20  1  0
 22 21  2  0
 23 22  1  0
 24 23  2  0
 25 20  2  0
 25 24  1  0
 26 24  1  0
 27 26  1  0
 28 27  2  0
 29 27  1  0
 30 23  1  0
 30 29  1  0
 31  1  1  0
 32  1  1  0
 33  1  1  0
  2 34  1  1
 35  3  1  0
 36  3  1  0
  5 37  1  1
 38  7  1  0
 39  8  1  0
 40 10  1  0
 41 10  1  0
 42 12  1  0
 43 13  1  0
 44 13  1  0
 45 15  1  0
 46 15  1  0
 47 16  1  0
 48 17  1  0
 49 18  1  0
 50 18  1  0
 51 21  1  0
 52 22  1  0
 53 25  1  0
 54 26  1  0
 55 29  1  0
 56 29  1  0
 57 30  1  0
 58 30  1  0
M  END
>  <b_m_subgroup_collapsed>  (410) 
0

>  <r_i_docking_score>  (410) 
-8.0749025796722993

>  <s_m_subgroup_title>  (410) 
glide-dock_SP_D22_pv

>  <s_m_subgroupid>  (410) 
glide-dock_SP_D22_pv

>  <Molecule ChEMBL ID>  (410) 
CHEMBL4436589

>  <Standard Type>  (410) 
Ki

>  <Standard Value>  (410) 
21100.0

>  <label>  (410) 
0

$$$$
CHEMBL4085282
     RDKit          3D

 72 75  0  0  1  0  0  0  0  0999 V2000
    3.6848   -2.6880  -18.8548 C   0  0  0  0  0  0  0  0  0  0  0  0
    4.4861   -3.2114  -17.7261 N   0  0  0  0  0  0  0  0  0  0  0  0
    5.1016   -2.2117  -16.8224 C   0  0  2  0  0  0  0  0  0  0  0  0
    4.0543   -1.4532  -15.9664 C   0  0  0  0  0  0  0  0  0  0  0  0
    4.6747   -0.4244  -15.0275 C   0  0  0  0  0  0  0  0  0  0  0  0
    4.1627    0.1596  -13.8475 C   0  0  0  0  0  0  0  0  0  0  0  0
    4.8868    1.2021  -13.1980 C   0  0  0  0  0  0  0  0  0  0  0  0
    6.1106    1.6867  -13.7205 C   0  0  0  0  0  0  0  0  0  0  0  0
    6.6335    1.0980  -14.8865 C   0  0  0  0  0  0  0  0  0  0  0  0
    5.8953    0.0982  -15.4693 C   0  0  0  0  0  0  0  0  0  0  0  0
    6.5975   -0.2562  -16.6257 N   0  0  0  0  0  0  0  0  0  0  0  0
    7.7176    0.4983  -16.7375 C   0  0  0  0  0  0  0  0  0  0  0  0
    8.5314    0.4495  -17.6592 O   0  0  0  0  0  0  0  0  0  0  0  0
    7.7597    1.3448  -15.6796 N   0  0  0  0  0  0  0  0  0  0  0  0
    8.7232    2.4127  -15.4344 C   0  0  0  0  0  0  0  0  0  0  0  0
   10.0262    1.8820  -14.8080 C   0  0  0  0  0  0  0  0  0  0  0  0
   10.7365    2.9143  -14.1362 O   0  0  0  0  0  0  0  0  0  0  0  0
   11.3134    3.8995  -14.9803 C   0  0  0  0  0  0  0  0  0  0  0  0
   11.9235    5.0031  -14.1085 C   0  0  0  0  0  0  0  0  0  0  0  0
   10.8786    5.6972  -13.4415 O   0  0  0  0  0  0  0  0  0  0  0  0
   11.3259    6.8608  -12.7622 C   0  0  0  0  0  0  0  0  0  0  0  0
   10.2469    7.3557  -11.7832 C   0  0  0  0  0  0  0  0  0  0  0  0
   10.2787    6.5733  -10.5983 O   0  0  0  0  0  0  0  0  0  0  0  0
    9.5289    7.1286   -9.5277 C   0  0  0  0  0  0  0  0  0  0  0  0
    9.6281    6.1998   -8.3031 C   0  0  0  0  0  0  0  0  0  0  0  0
    9.6523    6.9319   -6.9467 C   0  0  0  0  0  0  0  0  0  0  0  0
   10.9462    7.7422   -6.7378 C   0  0  0  0  0  0  0  0  0  0  0  0
   11.2869    8.0139   -5.2835 C   0  0  0  0  0  0  0  0  0  0  0  0
   11.2867    9.3312   -4.7763 C   0  0  0  0  0  0  0  0  0  0  0  0
   11.6865    9.5700   -3.4460 C   0  0  0  0  0  0  0  0  0  0  0  0
   12.0860    8.5040   -2.6188 C   0  0  0  0  0  0  0  0  0  0  0  0
   12.0860    7.1892   -3.1193 C   0  0  0  0  0  0  0  0  0  0  0  0
   11.6857    6.9493   -4.4473 C   0  0  0  0  0  0  0  0  0  0  0  0
    6.0919   -1.2652  -17.5465 C   0  0  0  0  0  0  0  0  0  0  0  0
    3.2110   -3.5210  -19.3774 H   0  0  0  0  0  0  0  0  0  0  0  0
    2.8889   -2.0223  -18.5164 H   0  0  0  0  0  0  0  0  0  0  0  0
    4.3057   -2.1553  -19.5763 H   0  0  0  0  0  0  0  0  0  0  0  0
    5.2053   -3.8200  -18.0869 H   0  0  0  0  0  0  0  0  0  0  0  0
    5.6858   -2.8015  -16.1158 H   0  0  0  0  0  0  0  0  0  0  0  0
    3.4598   -2.1579  -15.3847 H   0  0  0  0  0  0  0  0  0  0  0  0
    3.3534   -0.9116  -16.6034 H   0  0  0  0  0  0  0  0  0  0  0  0
    3.2083   -0.1581  -13.4548 H   0  0  0  0  0  0  0  0  0  0  0  0
    4.4862    1.6761  -12.3152 H   0  0  0  0  0  0  0  0  0  0  0  0
    6.6243    2.5042  -13.2341 H   0  0  0  0  0  0  0  0  0  0  0  0
    8.2739    3.1492  -14.7694 H   0  0  0  0  0  0  0  0  0  0  0  0
    8.9301    2.9299  -16.3726 H   0  0  0  0  0  0  0  0  0  0  0  0
   10.6575    1.3905  -15.5520 H   0  0  0  0  0  0  0  0  0  0  0  0
    9.7831    1.1293  -14.0560 H   0  0  0  0  0  0  0  0  0  0  0  0
   10.5782    4.3396  -15.6552 H   0  0  0  0  0  0  0  0  0  0  0  0
   12.0881    3.4368  -15.5937 H   0  0  0  0  0  0  0  0  0  0  0  0
   12.4812    5.6954  -14.7412 H   0  0  0  0  0  0  0  0  0  0  0  0
   12.6268    4.5810  -13.3879 H   0  0  0  0  0  0  0  0  0  0  0  0
   11.5326    7.6303  -13.5078 H   0  0  0  0  0  0  0  0  0  0  0  0
   12.2634    6.6795  -12.2365 H   0  0  0  0  0  0  0  0  0  0  0  0
    9.2556    7.3304  -12.2381 H   0  0  0  0  0  0  0  0  0  0  0  0
   10.4593    8.3926  -11.5248 H   0  0  0  0  0  0  0  0  0  0  0  0
    8.4860    7.2526   -9.8113 H   0  0  0  0  0  0  0  0  0  0  0  0
    9.9237    8.1173   -9.2978 H   0  0  0  0  0  0  0  0  0  0  0  0
   10.5254    5.5841   -8.3792 H   0  0  0  0  0  0  0  0  0  0  0  0
    8.7921    5.4990   -8.3260 H   0  0  0  0  0  0  0  0  0  0  0  0
    9.5787    6.1741   -6.1685 H   0  0  0  0  0  0  0  0  0  0  0  0
    8.7734    7.5684   -6.8271 H   0  0  0  0  0  0  0  0  0  0  0  0
   10.8949    8.6857   -7.2832 H   0  0  0  0  0  0  0  0  0  0  0  0
   11.7920    7.1979   -7.1606 H   0  0  0  0  0  0  0  0  0  0  0  0
   10.9927   10.1613   -5.4040 H   0  0  0  0  0  0  0  0  0  0  0  0
   11.6840   10.5744   -3.0510 H   0  0  0  0  0  0  0  0  0  0  0  0
   12.3848    8.6970   -1.5988 H   0  0  0  0  0  0  0  0  0  0  0  0
   12.3883    6.3652   -2.4875 H   0  0  0  0  0  0  0  0  0  0  0  0
   11.6978    5.9396   -4.8295 H   0  0  0  0  0  0  0  0  0  0  0  0
    5.6058   -0.7352  -18.3662 H   0  0  0  0  0  0  0  0  0  0  0  0
    6.9225   -1.8303  -17.9714 H   0  0  0  0  0  0  0  0  0  0  0  0
    3.8464   -3.7771  -17.1526 H   0  0  0  0  0  0  0  0  0  0  0  0
  2  1  1  0
  3  2  1  0
  4  3  1  0
  5  4  1  0
  6  5  1  0
  7  6  2  0
  8  7  1  0
  9  8  2  0
 10  5  2  0
 10  9  1  0
 11 10  1  0
 12 11  1  0
 13 12  2  0
 14  9  1  0
 14 12  1  0
 15 14  1  0
 16 15  1  0
 17 16  1  0
 18 17  1  0
 19 18  1  0
 20 19  1  0
 21 20  1  0
 22 21  1  0
 23 22  1  0
 24 23  1  0
 25 24  1  0
 26 25  1  0
 27 26  1  0
 28 27  1  0
 29 28  2  0
 30 29  1  0
 31 30  2  0
 32 31  1  0
 33 28  1  0
 33 32  2  0
 34  3  1  0
 34 11  1  0
 35  1  1  0
 36  1  1  0
 37  1  1  0
 38  2  1  0
  3 39  1  1
 40  4  1  0
 41  4  1  0
 42  6  1  0
 43  7  1  0
 44  8  1  0
 45 15  1  0
 46 15  1  0
 47 16  1  0
 48 16  1  0
 49 18  1  0
 50 18  1  0
 51 19  1  0
 52 19  1  0
 53 21  1  0
 54 21  1  0
 55 22  1  0
 56 22  1  0
 57 24  1  0
 58 24  1  0
 59 25  1  0
 60 25  1  0
 61 26  1  0
 62 26  1  0
 63 27  1  0
 64 27  1  0
 65 29  1  0
 66 30  1  0
 67 31  1  0
 68 32  1  0
 69 33  1  0
 70 34  1  0
 71 34  1  0
 72  2  1  0
M  CHG  1   2   1
M  END
>  <b_m_subgroup_collapsed>  (411) 
0

>  <r_i_docking_score>  (411) 
-8.0729039392154096

>  <s_m_subgroup_title>  (411) 
glide-dock_SP_D22_pv

>  <s_m_subgroupid>  (411) 
glide-dock_SP_D22_pv

>  <Molecule ChEMBL ID>  (411) 
CHEMBL4085282

>  <Standard Type>  (411) 
Ki

>  <Standard Value>  (411) 
34.7

>  <label>  (411) 
1

$$$$
CHEMBL4472703
     RDKit          3D

 38 39  0  0  1  0  0  0  0  0999 V2000
    9.1861    4.4650   -8.6470 C   0  0  0  0  0  0  0  0  0  0  0  0
   10.3137    5.4972   -8.4733 C   0  0  0  0  0  0  0  0  0  0  0  0
    9.8369    6.9090   -8.0673 C   0  0  1  0  0  0  0  0  0  0  0  0
   10.7678    7.5590   -7.0302 C   0  0  0  0  0  0  0  0  0  0  0  0
   10.8268    7.0720   -5.7016 C   0  0  0  0  0  0  0  0  0  0  0  0
   11.5690    7.7417   -4.7022 C   0  0  0  0  0  0  0  0  0  0  0  0
   11.6748    7.1519   -3.4600 O   0  0  0  0  0  0  0  0  0  0  0  0
   12.2481    7.9185   -2.4109 C   0  0  0  0  0  0  0  0  0  0  0  0
   12.1820    8.9724   -5.0299 C   0  0  0  0  0  0  0  0  0  0  0  0
   12.1892    9.4223   -6.3576 C   0  0  0  0  0  0  0  0  0  0  0  0
   11.5475    8.6887   -7.3712 C   0  0  0  0  0  0  0  0  0  0  0  0
   11.6909    9.1645   -8.8078 C   0  0  0  0  0  0  0  0  0  0  0  0
   10.9639    8.3204   -9.8435 C   0  0  0  0  0  0  0  0  0  0  0  0
    9.6157    7.8481   -9.2937 C   0  0  2  0  0  0  0  0  0  0  0  0
    8.7696    9.0630   -8.8668 C   0  0  0  0  0  0  0  0  0  0  0  0
    8.8860    7.1683  -10.3728 N   0  0  0  0  0  0  0  0  0  0  0  0
    9.5886    3.4519   -8.6471 H   0  0  0  0  0  0  0  0  0  0  0  0
    8.4522    4.5239   -7.8473 H   0  0  0  0  0  0  0  0  0  0  0  0
    8.6465    4.5969   -9.5825 H   0  0  0  0  0  0  0  0  0  0  0  0
   10.8858    5.5396   -9.3900 H   0  0  0  0  0  0  0  0  0  0  0  0
   11.0125    5.1337   -7.7263 H   0  0  0  0  0  0  0  0  0  0  0  0
    8.8836    6.7860   -7.5504 H   0  0  0  0  0  0  0  0  0  0  0  0
   10.2894    6.1725   -5.4393 H   0  0  0  0  0  0  0  0  0  0  0  0
   12.2476    7.3472   -1.4862 H   0  0  0  0  0  0  0  0  0  0  0  0
   13.2863    8.1713   -2.6308 H   0  0  0  0  0  0  0  0  0  0  0  0
   11.6856    8.8357   -2.2362 H   0  0  0  0  0  0  0  0  0  0  0  0
   12.7296    9.5500   -4.3025 H   0  0  0  0  0  0  0  0  0  0  0  0
   12.7372   10.3184   -6.6030 H   0  0  0  0  0  0  0  0  0  0  0  0
   11.2861   10.1711   -8.8796 H   0  0  0  0  0  0  0  0  0  0  0  0
   12.7513    9.1943   -9.0450 H   0  0  0  0  0  0  0  0  0  0  0  0
   11.5918    7.4716  -10.1132 H   0  0  0  0  0  0  0  0  0  0  0  0
   10.8427    8.9028  -10.7568 H   0  0  0  0  0  0  0  0  0  0  0  0
    9.2912    9.7709   -8.2374 H   0  0  0  0  0  0  0  0  0  0  0  0
    8.3459    9.6055   -9.7148 H   0  0  0  0  0  0  0  0  0  0  0  0
    7.9833    8.7546   -8.1987 H   0  0  0  0  0  0  0  0  0  0  0  0
    9.1572    7.5407  -11.2690 H   0  0  0  0  0  0  0  0  0  0  0  0
    9.0502    6.1742  -10.3356 H   0  0  0  0  0  0  0  0  0  0  0  0
    7.8803    7.3716  -10.2471 H   0  0  0  0  0  0  0  0  0  0  0  0
  2  1  1  0
  3  2  1  0
  4  3  1  0
  5  4  1  0
  6  5  2  0
  7  6  1  0
  8  7  1  0
  9  6  1  0
 10  9  2  0
 11  4  2  0
 11 10  1  0
 12 11  1  0
 13 12  1  0
 14  3  1  0
 14 13  1  0
 14 15  1  1
 16 14  1  0
 17  1  1  0
 18  1  1  0
 19  1  1  0
 20  2  1  0
 21  2  1  0
  3 22  1  1
 23  5  1  0
 24  8  1  0
 25  8  1  0
 26  8  1  0
 27  9  1  0
 28 10  1  0
 29 12  1  0
 30 12  1  0
 31 13  1  0
 32 13  1  0
 33 15  1  0
 34 15  1  0
 35 15  1  0
 36 16  1  0
 37 16  1  0
 38 16  1  0
M  CHG  1  16   1
M  END
>  <b_m_subgroup_collapsed>  (412) 
0

>  <r_i_docking_score>  (412) 
-8.0726402361470608

>  <s_m_subgroup_title>  (412) 
glide-dock_SP_D22_pv

>  <s_m_subgroupid>  (412) 
glide-dock_SP_D22_pv

>  <Molecule ChEMBL ID>  (412) 
CHEMBL4472703

>  <Standard Type>  (412) 
Ki

>  <Standard Value>  (412) 
10000.0

>  <label>  (412) 
0

$$$$
CHEMBL30713
     RDKit          3D

 28 29  0  0  1  0  0  0  0  0999 V2000
    9.0511    5.4478   -8.3254 C   0  0  0  0  0  0  0  0  0  0  0  0
    9.3713    6.5138   -7.2663 C   0  0  2  0  0  0  0  0  0  0  0  0
    8.4860    7.6719   -7.4469 N   0  0  0  0  0  0  0  0  0  0  0  0
   10.8493    6.9415   -7.3147 C   0  0  0  0  0  0  0  0  0  0  0  0
   11.1702    8.0295   -6.3333 C   0  0  0  0  0  0  0  0  0  0  0  0
   11.2084    9.3723   -6.6049 C   0  0  0  0  0  0  0  0  0  0  0  0
   11.5144   10.0631   -5.4469 N   0  0  0  0  0  0  0  0  0  0  0  0
   11.7293    9.1873   -4.4022 C   0  0  0  0  0  0  0  0  0  0  0  0
   12.0860    9.3824   -3.0567 C   0  0  0  0  0  0  0  0  0  0  0  0
   12.2618    8.2689   -2.2185 C   0  0  0  0  0  0  0  0  0  0  0  0
   12.0634    6.9723   -2.7263 C   0  0  0  0  0  0  0  0  0  0  0  0
   11.6860    6.7871   -4.0715 C   0  0  0  0  0  0  0  0  0  0  0  0
   11.5171    7.8865   -4.9447 C   0  0  0  0  0  0  0  0  0  0  0  0
    9.7068    4.5817   -8.2469 H   0  0  0  0  0  0  0  0  0  0  0  0
    8.0274    5.0888   -8.2242 H   0  0  0  0  0  0  0  0  0  0  0  0
    9.1606    5.8445   -9.3357 H   0  0  0  0  0  0  0  0  0  0  0  0
    9.1544    6.1235   -6.2731 H   0  0  0  0  0  0  0  0  0  0  0  0
    8.7144    8.1443   -8.3087 H   0  0  0  0  0  0  0  0  0  0  0  0
    7.5032    7.3723   -7.5255 H   0  0  0  0  0  0  0  0  0  0  0  0
   11.1070    7.2655   -8.3242 H   0  0  0  0  0  0  0  0  0  0  0  0
   11.4799    6.0739   -7.1155 H   0  0  0  0  0  0  0  0  0  0  0  0
   11.0419    9.8895   -7.5368 H   0  0  0  0  0  0  0  0  0  0  0  0
   11.6086   11.0683   -5.4095 H   0  0  0  0  0  0  0  0  0  0  0  0
   12.2302   10.3784   -2.6640 H   0  0  0  0  0  0  0  0  0  0  0  0
   12.5409    8.4128   -1.1848 H   0  0  0  0  0  0  0  0  0  0  0  0
   12.1893    6.1131   -2.0823 H   0  0  0  0  0  0  0  0  0  0  0  0
   11.5318    5.7850   -4.4442 H   0  0  0  0  0  0  0  0  0  0  0  0
    8.5791    8.3075   -6.6692 H   0  0  0  0  0  0  0  0  0  0  0  0
  2  1  1  0
  3  2  1  0
  4  2  1  0
  5  4  1  0
  6  5  2  0
  7  6  1  0
  8  7  1  0
  9  8  2  0
 10  9  1  0
 11 10  2  0
 12 11  1  0
 13  5  1  0
 13  8  1  0
 13 12  2  0
 14  1  1  0
 15  1  1  0
 16  1  1  0
  2 17  1  1
 18  3  1  0
 19  3  1  0
 20  4  1  0
 21  4  1  0
 22  6  1  0
 23  7  1  0
 24  9  1  0
 25 10  1  0
 26 11  1  0
 27 12  1  0
 28  3  1  0
M  CHG  1   3   1
M  END
>  <b_m_subgroup_collapsed>  (413) 
0

>  <r_i_docking_score>  (413) 
-8.0700430688324207

>  <s_m_subgroup_title>  (413) 
glide-dock_SP_D22_pv

>  <s_m_subgroupid>  (413) 
glide-dock_SP_D22_pv

>  <Molecule ChEMBL ID>  (413) 
CHEMBL30713

>  <Standard Type>  (413) 
Ki

>  <Standard Value>  (413) 
10000.0

>  <label>  (413) 
0

$$$$
CHEMBL550849
     RDKit          3D

 47 49  0  0  1  0  0  0  0  0999 V2000
   10.0437    4.5118  -13.0728 O   0  0  0  0  0  0  0  0  0  0  0  0
    8.8754    4.1719  -13.2563 C   0  0  0  0  0  0  0  0  0  0  0  0
    7.8185    4.6937  -12.6188 N   0  0  0  0  0  0  0  0  0  0  0  0
    7.8574    5.7639  -11.6273 C   0  0  0  0  0  0  0  0  0  0  0  0
    8.5172    5.2970  -10.3098 C   0  0  0  0  0  0  0  0  0  0  0  0
    8.5234    6.3376   -9.2491 N   0  0  2  0  0  0  0  0  0  0  0  0
    9.4316    7.4740   -9.5435 C   0  0  0  0  0  0  0  0  0  0  0  0
    9.3175    8.5774   -8.4746 C   0  0  0  0  0  0  0  0  0  0  0  0
    9.5633    8.0689   -7.0400 C   0  0  2  0  0  0  0  0  0  0  0  0
   11.0550    7.8954   -6.6825 C   0  0  0  0  0  0  0  0  0  0  0  0
   11.6341    6.9735   -7.4472 F   0  0  0  0  0  0  0  0  0  0  0  0
   11.6914    9.0563   -6.8462 F   0  0  0  0  0  0  0  0  0  0  0  0
   11.1776    7.5379   -5.4033 F   0  0  0  0  0  0  0  0  0  0  0  0
    8.7209    6.8056   -6.7847 C   0  0  0  0  0  0  0  0  0  0  0  0
    8.8064    5.7621   -7.9113 C   0  0  0  0  0  0  0  0  0  0  0  0
    6.5616    4.0690  -12.9820 C   0  0  0  0  0  0  0  0  0  0  0  0
    7.0061    2.9778  -13.9482 C   0  0  0  0  0  0  0  0  0  0  0  0
    8.4370    3.2235  -14.1056 N   0  0  0  0  0  0  0  0  0  0  0  0
    9.2678    2.4013  -14.9181 C   0  0  0  0  0  0  0  0  0  0  0  0
    9.0733    1.0018  -14.9180 C   0  0  0  0  0  0  0  0  0  0  0  0
    9.8813    0.1700  -15.7117 C   0  0  0  0  0  0  0  0  0  0  0  0
   10.8861    0.7284  -16.5233 C   0  0  0  0  0  0  0  0  0  0  0  0
   11.0835    2.1213  -16.5398 C   0  0  0  0  0  0  0  0  0  0  0  0
   12.3143    2.7946  -17.5467 Cl  0  0  0  0  0  0  0  0  0  0  0  0
   10.2720    2.9610  -15.7506 C   0  0  0  0  0  0  0  0  0  0  0  0
   10.4395    4.3049  -15.8237 F   0  0  0  0  0  0  0  0  0  0  0  0
    8.3898    6.6081  -12.0676 H   0  0  0  0  0  0  0  0  0  0  0  0
    6.8404    6.1103  -11.4465 H   0  0  0  0  0  0  0  0  0  0  0  0
    7.9685    4.4266   -9.9485 H   0  0  0  0  0  0  0  0  0  0  0  0
    9.5407    4.9651  -10.4819 H   0  0  0  0  0  0  0  0  0  0  0  0
   10.4590    7.1167   -9.6236 H   0  0  0  0  0  0  0  0  0  0  0  0
    9.1852    7.9195  -10.5052 H   0  0  0  0  0  0  0  0  0  0  0  0
   10.0187    9.3751   -8.7129 H   0  0  0  0  0  0  0  0  0  0  0  0
    8.3275    9.0298   -8.5277 H   0  0  0  0  0  0  0  0  0  0  0  0
    9.1920    8.8411   -6.3639 H   0  0  0  0  0  0  0  0  0  0  0  0
    9.0133    6.3432   -5.8464 H   0  0  0  0  0  0  0  0  0  0  0  0
    7.6862    7.1106   -6.6470 H   0  0  0  0  0  0  0  0  0  0  0  0
    8.0822    4.9719   -7.7134 H   0  0  0  0  0  0  0  0  0  0  0  0
    9.7937    5.3016   -7.9239 H   0  0  0  0  0  0  0  0  0  0  0  0
    6.0609    3.6623  -12.1019 H   0  0  0  0  0  0  0  0  0  0  0  0
    5.8998    4.7926  -13.4591 H   0  0  0  0  0  0  0  0  0  0  0  0
    6.4881    3.0436  -14.9050 H   0  0  0  0  0  0  0  0  0  0  0  0
    6.8123    1.9925  -13.5228 H   0  0  0  0  0  0  0  0  0  0  0  0
    8.3183    0.5485  -14.2947 H   0  0  0  0  0  0  0  0  0  0  0  0
    9.7286   -0.8981  -15.6963 H   0  0  0  0  0  0  0  0  0  0  0  0
   11.5087    0.0868  -17.1303 H   0  0  0  0  0  0  0  0  0  0  0  0
    7.5823    6.7381   -9.2286 H   0  0  0  0  0  0  0  0  0  0  0  0
  2  1  2  0
  3  2  1  0
  4  3  1  0
  5  4  1  0
  6  5  1  0
  7  6  1  0
  8  7  1  0
  9  8  1  0
 10  9  1  0
 11 10  1  0
 12 10  1  0
 13 10  1  0
 14  9  1  0
 15  6  1  0
 15 14  1  0
 16  3  1  0
 17 16  1  0
 18  2  1  0
 18 17  1  0
 19 18  1  0
 20 19  2  0
 21 20  1  0
 22 21  2  0
 23 22  1  0
 24 23  1  0
 25 19  1  0
 25 23  2  0
 26 25  1  0
 27  4  1  0
 28  4  1  0
 29  5  1  0
 30  5  1  0
 31  7  1  0
 32  7  1  0
 33  8  1  0
 34  8  1  0
  9 35  1  1
 36 14  1  0
 37 14  1  0
 38 15  1  0
 39 15  1  0
 40 16  1  0
 41 16  1  0
 42 17  1  0
 43 17  1  0
 44 20  1  0
 45 21  1  0
 46 22  1  0
  6 47  1  1
M  CHG  1   6   1
M  END
>  <b_m_subgroup_collapsed>  (414) 
0

>  <r_i_docking_score>  (414) 
-8.0696912748921701

>  <s_m_subgroup_title>  (414) 
glide-dock_SP_D22_pv

>  <s_m_subgroupid>  (414) 
glide-dock_SP_D22_pv

>  <Molecule ChEMBL ID>  (414) 
CHEMBL550849

>  <Standard Type>  (414) 
Ki

>  <Standard Value>  (414) 
10000.0

>  <label>  (414) 
0

$$$$
CHEMBL1172212
     RDKit          3D

 44 47  0  0  1  0  0  0  0  0999 V2000
    8.0810    6.5659  -11.8473 O   0  0  0  0  0  0  0  0  0  0  0  0
    9.4312    6.2687  -11.5425 C   0  0  0  0  0  0  0  0  0  0  0  0
    9.9967    5.3435  -12.6405 C   0  0  0  0  0  0  0  0  0  0  0  0
    9.3771    4.0934  -12.8649 C   0  0  0  0  0  0  0  0  0  0  0  0
    9.8638    3.2088  -13.8453 C   0  0  0  0  0  0  0  0  0  0  0  0
   10.9830    3.5612  -14.6201 C   0  0  0  0  0  0  0  0  0  0  0  0
   11.6027    4.8083  -14.4227 C   0  0  0  0  0  0  0  0  0  0  0  0
   11.1098    5.6961  -13.4468 C   0  0  0  0  0  0  0  0  0  0  0  0
   10.1849    7.6101  -11.4409 C   0  0  0  0  0  0  0  0  0  0  0  0
    9.7234    8.4572  -10.2517 C   0  0  0  0  0  0  0  0  0  0  0  0
    9.9604    7.7546   -8.9928 N   0  0  0  0  0  0  0  0  0  0  0  0
    9.5709    8.6472   -7.8984 C   0  0  0  0  0  0  0  0  0  0  0  0
   10.3440    8.4836   -6.6264 C   0  0  0  0  0  0  0  0  0  0  0  0
   10.6781    7.3183   -5.9848 C   0  0  0  0  0  0  0  0  0  0  0  0
   11.3238    7.5665   -4.7189 C   0  0  0  0  0  0  0  0  0  0  0  0
   11.7671    6.6724   -3.7271 C   0  0  0  0  0  0  0  0  0  0  0  0
   12.3366    7.1062   -2.5181 C   0  0  0  0  0  0  0  0  0  0  0  0
   12.4861    8.4825   -2.2680 C   0  0  0  0  0  0  0  0  0  0  0  0
   12.0838    9.4069   -3.2451 C   0  0  0  0  0  0  0  0  0  0  0  0
   11.5105    8.9566   -4.4531 C   0  0  0  0  0  0  0  0  0  0  0  0
   10.9136    9.9108   -5.7949 S   0  0  0  0  0  0  0  0  0  0  0  0
    9.1356    6.5397   -8.9815 C   0  0  0  0  0  0  0  0  0  0  0  0
    9.4820    5.5964  -10.1476 C   0  0  0  0  0  0  0  0  0  0  0  0
    7.6418    7.0275  -11.1296 H   0  0  0  0  0  0  0  0  0  0  0  0
    8.5211    3.8062  -12.2752 H   0  0  0  0  0  0  0  0  0  0  0  0
    9.3841    2.2509  -13.9887 H   0  0  0  0  0  0  0  0  0  0  0  0
   11.3633    2.8793  -15.3670 H   0  0  0  0  0  0  0  0  0  0  0  0
   12.4569    5.0887  -15.0197 H   0  0  0  0  0  0  0  0  0  0  0  0
   11.6177    6.6423  -13.3334 H   0  0  0  0  0  0  0  0  0  0  0  0
   11.2529    7.4286  -11.3165 H   0  0  0  0  0  0  0  0  0  0  0  0
   10.0674    8.1770  -12.3656 H   0  0  0  0  0  0  0  0  0  0  0  0
   10.3119    9.3728  -10.2482 H   0  0  0  0  0  0  0  0  0  0  0  0
    8.6751    8.7429  -10.3517 H   0  0  0  0  0  0  0  0  0  0  0  0
    9.6980    9.6816   -8.2139 H   0  0  0  0  0  0  0  0  0  0  0  0
    8.5027    8.5529   -7.6955 H   0  0  0  0  0  0  0  0  0  0  0  0
   10.4508    6.3250   -6.3365 H   0  0  0  0  0  0  0  0  0  0  0  0
   11.6484    5.6241   -3.9081 H   0  0  0  0  0  0  0  0  0  0  0  0
   12.6526    6.3802   -1.7834 H   0  0  0  0  0  0  0  0  0  0  0  0
   12.9166    8.8282   -1.3401 H   0  0  0  0  0  0  0  0  0  0  0  0
   12.1870   10.4657   -3.0470 H   0  0  0  0  0  0  0  0  0  0  0  0
    9.2518    6.0067   -8.0416 H   0  0  0  0  0  0  0  0  0  0  0  0
    8.0861    6.8094   -9.0454 H   0  0  0  0  0  0  0  0  0  0  0  0
    8.8276    4.7236  -10.1113 H   0  0  0  0  0  0  0  0  0  0  0  0
   10.4859    5.2211   -9.9599 H   0  0  0  0  0  0  0  0  0  0  0  0
  2  1  1  0
  3  2  1  0
  4  3  2  0
  5  4  1  0
  6  5  2  0
  7  6  1  0
  8  3  1  0
  8  7  2  0
  9  2  1  0
 10  9  1  0
 11 10  1  0
 12 11  1  0
 13 12  1  0
 14 13  2  0
 15 14  1  0
 16 15  2  0
 17 16  1  0
 18 17  2  0
 19 18  1  0
 20 15  1  0
 20 19  2  0
 21 13  1  0
 21 20  1  0
 22 11  1  0
 23  2  1  0
 23 22  1  0
 24  1  1  0
 25  4  1  0
 26  5  1  0
 27  6  1  0
 28  7  1  0
 29  8  1  0
 30  9  1  0
 31  9  1  0
 32 10  1  0
 33 10  1  0
 34 12  1  0
 35 12  1  0
 36 14  1  0
 37 16  1  0
 38 17  1  0
 39 18  1  0
 40 19  1  0
 41 22  1  0
 42 22  1  0
 43 23  1  0
 44 23  1  0
M  END
>  <b_m_subgroup_collapsed>  (415) 
0

>  <r_i_docking_score>  (415) 
-8.0643461516374408

>  <s_m_subgroup_title>  (415) 
glide-dock_SP_D22_pv

>  <s_m_subgroupid>  (415) 
glide-dock_SP_D22_pv

>  <Molecule ChEMBL ID>  (415) 
CHEMBL1172212

>  <Standard Type>  (415) 
Ki

>  <Standard Value>  (415) 
46.8

>  <label>  (415) 
1

$$$$
CHEMBL210101
     RDKit          3D

 50 52  0  0  1  0  0  0  0  0999 V2000
    5.3080    3.7481  -12.9522 C   0  0  0  0  0  0  0  0  0  0  0  0
    6.4290    4.3910  -12.3979 O   0  0  0  0  0  0  0  0  0  0  0  0
    7.5018    4.2148  -13.2699 N   0  0  0  0  0  0  0  0  0  0  0  0
    8.4678    5.0050  -13.0201 C   0  0  0  0  0  0  0  0  0  0  0  0
    8.3941    6.0435  -11.8846 C   0  0  0  0  0  0  0  0  0  0  0  0
    8.5992    5.3915  -10.5000 C   0  0  0  0  0  0  0  0  0  0  0  0
    8.8863    6.3668   -9.4140 N   0  0  2  0  0  0  0  0  0  0  0  0
   10.2409    6.9735   -9.5592 C   0  0  0  0  0  0  0  0  0  0  0  0
   10.5999    7.9198   -8.4082 C   0  0  0  0  0  0  0  0  0  0  0  0
   10.4790    7.2034   -7.0538 C   0  0  1  0  0  0  0  0  0  0  0  0
   10.9360    8.0488   -5.8723 C   0  0  0  0  0  0  0  0  0  0  0  0
   10.6536    9.4262   -5.8163 C   0  0  0  0  0  0  0  0  0  0  0  0
   11.1074   10.1652   -4.7126 C   0  0  0  0  0  0  0  0  0  0  0  0
   11.8364    9.5034   -3.7061 C   0  0  0  0  0  0  0  0  0  0  0  0
   12.0724    8.1222   -3.8485 C   0  0  0  0  0  0  0  0  0  0  0  0
   11.6256    7.4054   -4.9021 N   0  0  0  0  0  0  0  0  0  0  0  0
    9.0381    6.6952   -6.9144 C   0  0  0  0  0  0  0  0  0  0  0  0
    8.7027    5.7401   -8.0744 C   0  0  0  0  0  0  0  0  0  0  0  0
    9.7025    4.9749  -13.8625 C   0  0  0  0  0  0  0  0  0  0  0  0
    9.6839    4.3196  -15.1192 C   0  0  0  0  0  0  0  0  0  0  0  0
   10.8151    4.3136  -15.9578 C   0  0  0  0  0  0  0  0  0  0  0  0
   11.9941    4.9573  -15.5489 C   0  0  0  0  0  0  0  0  0  0  0  0
   13.3652    4.9814  -16.5932 Cl  0  0  0  0  0  0  0  0  0  0  0  0
   12.0473    5.5799  -14.2899 C   0  0  0  0  0  0  0  0  0  0  0  0
   10.9161    5.5782  -13.4488 C   0  0  0  0  0  0  0  0  0  0  0  0
    4.4878    3.9261  -12.2706 H   0  0  0  0  0  0  0  0  0  0  0  0
    5.0413    4.1705  -13.9218 H   0  0  0  0  0  0  0  0  0  0  0  0
    5.4578    2.6721  -13.0499 H   0  0  0  0  0  0  0  0  0  0  0  0
    7.4211    6.5386  -11.8868 H   0  0  0  0  0  0  0  0  0  0  0  0
    9.0811    6.8608  -12.0869 H   0  0  0  0  0  0  0  0  0  0  0  0
    9.3997    4.6490  -10.5375 H   0  0  0  0  0  0  0  0  0  0  0  0
    7.6883    4.8418  -10.2491 H   0  0  0  0  0  0  0  0  0  0  0  0
   10.3213    7.5292  -10.4896 H   0  0  0  0  0  0  0  0  0  0  0  0
   10.9823    6.1774   -9.6035 H   0  0  0  0  0  0  0  0  0  0  0  0
    9.9429    8.7864   -8.4550 H   0  0  0  0  0  0  0  0  0  0  0  0
   11.6163    8.2919   -8.5452 H   0  0  0  0  0  0  0  0  0  0  0  0
   11.1416    6.3362   -7.0794 H   0  0  0  0  0  0  0  0  0  0  0  0
   10.0886    9.9133   -6.5946 H   0  0  0  0  0  0  0  0  0  0  0  0
   10.8908   11.2203   -4.6443 H   0  0  0  0  0  0  0  0  0  0  0  0
   12.2082   10.0401   -2.8471 H   0  0  0  0  0  0  0  0  0  0  0  0
   12.6292    7.5803   -3.0977 H   0  0  0  0  0  0  0  0  0  0  0  0
    8.9086    6.1732   -5.9665 H   0  0  0  0  0  0  0  0  0  0  0  0
    8.3352    7.5303   -6.8939 H   0  0  0  0  0  0  0  0  0  0  0  0
    7.6820    5.3876   -7.9657 H   0  0  0  0  0  0  0  0  0  0  0  0
    9.3365    4.8548   -8.0038 H   0  0  0  0  0  0  0  0  0  0  0  0
    8.7930    3.8171  -15.4663 H   0  0  0  0  0  0  0  0  0  0  0  0
   10.7694    3.8193  -16.9165 H   0  0  0  0  0  0  0  0  0  0  0  0
   12.9528    6.0704  -13.9685 H   0  0  0  0  0  0  0  0  0  0  0  0
   11.0008    6.0654  -12.4920 H   0  0  0  0  0  0  0  0  0  0  0  0
    8.1830    7.0959   -9.4913 H   0  0  0  0  0  0  0  0  0  0  0  0
  2  1  1  0
  3  2  1  0
  4  3  2  0
  5  4  1  0
  6  5  1  0
  7  6  1  0
  8  7  1  0
  9  8  1  0
 10  9  1  0
 11 10  1  0
 12 11  2  0
 13 12  1  0
 14 13  2  0
 15 14  1  0
 16 11  1  0
 16 15  2  0
 17 10  1  0
 18  7  1  0
 18 17  1  0
 19  4  1  0
 20 19  1  0
 21 20  2  0
 22 21  1  0
 23 22  1  0
 24 22  2  0
 25 19  2  0
 25 24  1  0
 26  1  1  0
 27  1  1  0
 28  1  1  0
 29  5  1  0
 30  5  1  0
 31  6  1  0
 32  6  1  0
 33  8  1  0
 34  8  1  0
 35  9  1  0
 36  9  1  0
 10 37  1  6
 38 12  1  0
 39 13  1  0
 40 14  1  0
 41 15  1  0
 42 17  1  0
 43 17  1  0
 44 18  1  0
 45 18  1  0
 46 20  1  0
 47 21  1  0
 48 24  1  0
 49 25  1  0
  7 50  1  1
M  CHG  1   7   1
M  END
>  <b_m_subgroup_collapsed>  (416) 
0

>  <r_i_docking_score>  (416) 
-8.0638840982135296

>  <s_m_subgroup_title>  (416) 
glide-dock_SP_D22_pv

>  <s_m_subgroupid>  (416) 
glide-dock_SP_D22_pv

>  <Molecule ChEMBL ID>  (416) 
CHEMBL210101

>  <Standard Type>  (416) 
Ki

>  <Standard Value>  (416) 
25.3

>  <label>  (416) 
1

$$$$
CHEMBL309015
     RDKit          3D

 58 61  0  0  1  0  0  0  0  0999 V2000
   10.7788    8.9639   -7.2519 C   0  0  0  0  0  0  0  0  0  0  0  0
   11.2963    8.0093   -6.4548 C   0  0  0  0  0  0  0  0  0  0  0  0
   11.5629    8.1249   -5.0158 C   0  0  0  0  0  0  0  0  0  0  0  0
   11.6890    9.3762   -4.3758 C   0  0  0  0  0  0  0  0  0  0  0  0
   11.9864    9.4434   -3.0034 C   0  0  0  0  0  0  0  0  0  0  0  0
   12.1375    8.2653   -2.2491 C   0  0  0  0  0  0  0  0  0  0  0  0
   11.9843    7.0131   -2.8727 C   0  0  0  0  0  0  0  0  0  0  0  0
   11.6870    6.9483   -4.2471 C   0  0  0  0  0  0  0  0  0  0  0  0
   10.5532    8.8388   -8.7520 C   0  0  0  0  0  0  0  0  0  0  0  0
   11.0714    7.6334   -9.3038 O   0  0  0  0  0  0  0  0  0  0  0  0
   10.2525    6.4857   -9.1216 C   0  0  0  0  0  0  0  0  0  0  0  0
    9.2055    6.3293  -10.2277 C   0  0  1  0  0  0  0  0  0  0  0  0
    9.7561    6.4656  -11.6599 C   0  0  0  0  0  0  0  0  0  0  0  0
    8.6695    6.1864  -12.7060 C   0  0  0  0  0  0  0  0  0  0  0  0
    8.0421    4.8610  -12.4978 N   0  0  2  0  0  0  0  0  0  0  0  0
    7.1278    4.4834  -13.6006 C   0  0  0  0  0  0  0  0  0  0  0  0
    7.1409    2.9831  -13.8470 C   0  0  0  0  0  0  0  0  0  0  0  0
    6.0177    2.2255  -13.4485 C   0  0  0  0  0  0  0  0  0  0  0  0
    5.9830    0.8343  -13.6587 C   0  0  0  0  0  0  0  0  0  0  0  0
    7.0787    0.1848  -14.2553 C   0  0  0  0  0  0  0  0  0  0  0  0
    8.2132    0.9236  -14.6468 C   0  0  0  0  0  0  0  0  0  0  0  0
    9.3122    0.2544  -15.2247 C   0  0  0  0  0  0  0  0  0  0  0  0
   10.4601    0.9695  -15.6063 C   0  0  0  0  0  0  0  0  0  0  0  0
   10.5092    2.3618  -15.4226 C   0  0  0  0  0  0  0  0  0  0  0  0
    9.4131    3.0382  -14.8562 C   0  0  0  0  0  0  0  0  0  0  0  0
    8.2525    2.3310  -14.4520 C   0  0  0  0  0  0  0  0  0  0  0  0
    7.4349    4.7553  -11.1538 C   0  0  0  0  0  0  0  0  0  0  0  0
    8.5089    4.9680  -10.0752 C   0  0  0  0  0  0  0  0  0  0  0  0
   10.4890    9.9118   -6.8271 H   0  0  0  0  0  0  0  0  0  0  0  0
   11.5856    7.0642   -6.8887 H   0  0  0  0  0  0  0  0  0  0  0  0
   11.5877   10.2944   -4.9349 H   0  0  0  0  0  0  0  0  0  0  0  0
   12.0863   10.4070   -2.5257 H   0  0  0  0  0  0  0  0  0  0  0  0
   12.3596    8.3279   -1.1946 H   0  0  0  0  0  0  0  0  0  0  0  0
   12.0864    6.1033   -2.2984 H   0  0  0  0  0  0  0  0  0  0  0  0
   11.5701    5.9822   -4.7172 H   0  0  0  0  0  0  0  0  0  0  0  0
    9.4935    8.9618   -8.9816 H   0  0  0  0  0  0  0  0  0  0  0  0
   11.0730    9.6688   -9.2321 H   0  0  0  0  0  0  0  0  0  0  0  0
   10.8860    5.6065   -9.1121 H   0  0  0  0  0  0  0  0  0  0  0  0
    9.7525    6.4960   -8.1526 H   0  0  0  0  0  0  0  0  0  0  0  0
    8.4860    7.1289  -10.0834 H   0  0  0  0  0  0  0  0  0  0  0  0
   10.1672    7.4647  -11.8105 H   0  0  0  0  0  0  0  0  0  0  0  0
   10.5700    5.7702  -11.8374 H   0  0  0  0  0  0  0  0  0  0  0  0
    9.1339    6.1723  -13.6884 H   0  0  0  0  0  0  0  0  0  0  0  0
    7.9114    6.9716  -12.6964 H   0  0  0  0  0  0  0  0  0  0  0  0
    6.1176    4.8490  -13.4050 H   0  0  0  0  0  0  0  0  0  0  0  0
    7.4496    4.9659  -14.5198 H   0  0  0  0  0  0  0  0  0  0  0  0
    5.1706    2.7076  -12.9840 H   0  0  0  0  0  0  0  0  0  0  0  0
    5.1170    0.2629  -13.3595 H   0  0  0  0  0  0  0  0  0  0  0  0
    7.0439   -0.8845  -14.4104 H   0  0  0  0  0  0  0  0  0  0  0  0
    9.2865   -0.8145  -15.3714 H   0  0  0  0  0  0  0  0  0  0  0  0
   11.3019    0.4516  -16.0400 H   0  0  0  0  0  0  0  0  0  0  0  0
   11.3908    2.9114  -15.7184 H   0  0  0  0  0  0  0  0  0  0  0  0
    9.4980    4.1061  -14.7441 H   0  0  0  0  0  0  0  0  0  0  0  0
    6.9734    3.7739  -11.0441 H   0  0  0  0  0  0  0  0  0  0  0  0
    6.6447    5.5009  -11.0473 H   0  0  0  0  0  0  0  0  0  0  0  0
    9.2507    4.1728  -10.1485 H   0  0  0  0  0  0  0  0  0  0  0  0
    8.0843    4.8833   -9.0764 H   0  0  0  0  0  0  0  0  0  0  0  0
    8.7937    4.1880  -12.5250 H   0  0  0  0  0  0  0  0  0  0  0  0
  2  1  2  0
  3  2  1  0
  4  3  2  0
  5  4  1  0
  6  5  2  0
  7  6  1  0
  8  3  1  0
  8  7  2  0
  9  1  1  0
 10  9  1  0
 11 10  1  0
 12 11  1  0
 13 12  1  0
 14 13  1  0
 15 14  1  0
 16 15  1  0
 17 16  1  0
 18 17  2  0
 19 18  1  0
 20 19  2  0
 21 20  1  0
 22 21  2  0
 23 22  1  0
 24 23  2  0
 25 24  1  0
 26 17  1  0
 26 21  1  0
 26 25  2  0
 27 15  1  0
 28 12  1  0
 28 27  1  0
 29  1  1  0
 30  2  1  0
 31  4  1  0
 32  5  1  0
 33  6  1  0
 34  7  1  0
 35  8  1  0
 36  9  1  0
 37  9  1  0
 38 11  1  0
 39 11  1  0
 12 40  1  1
 41 13  1  0
 42 13  1  0
 43 14  1  0
 44 14  1  0
 45 16  1  0
 46 16  1  0
 47 18  1  0
 48 19  1  0
 49 20  1  0
 50 22  1  0
 51 23  1  0
 52 24  1  0
 53 25  1  0
 54 27  1  0
 55 27  1  0
 56 28  1  0
 57 28  1  0
 15 58  1  1
M  CHG  1  15   1
M  END
>  <b_m_subgroup_collapsed>  (417) 
0

>  <r_i_docking_score>  (417) 
-8.0620668811838794

>  <s_m_subgroup_title>  (417) 
glide-dock_SP_D22_pv

>  <s_m_subgroupid>  (417) 
glide-dock_SP_D22_pv

>  <Molecule ChEMBL ID>  (417) 
CHEMBL309015

>  <Standard Type>  (417) 
Ki

>  <Standard Value>  (417) 
10000.0

>  <label>  (417) 
0

$$$$
CHEMBL3775534
     RDKit          3D

 60 64  0  0  1  0  0  0  0  0999 V2000
   12.4871    6.1328   -2.8977 C   0  0  0  0  0  0  0  0  0  0  0  0
   12.4144    7.5903   -2.6982 C   0  0  0  0  0  0  0  0  0  0  0  0
   12.6937    8.0902   -1.4469 N   0  0  0  0  0  0  0  0  0  0  0  0
   12.4850    9.3723   -1.5547 C   0  0  0  0  0  0  0  0  0  0  0  0
   12.0861    9.7727   -2.7852 O   0  0  0  0  0  0  0  0  0  0  0  0
   12.0594    8.6270   -3.5239 C   0  0  0  0  0  0  0  0  0  0  0  0
   11.6227    8.7644   -4.9052 C   0  0  0  0  0  0  0  0  0  0  0  0
   11.8738    9.8899   -5.5799 N   0  0  0  0  0  0  0  0  0  0  0  0
   11.2860    9.7422   -6.8067 N   0  0  0  0  0  0  0  0  0  0  0  0
   10.7128    8.5403   -6.7768 C   0  0  0  0  0  0  0  0  0  0  0  0
    9.8089    7.8091   -8.0939 S   0  0  0  0  0  0  0  0  0  0  0  0
   10.5525    8.7319   -9.4406 C   0  0  0  0  0  0  0  0  0  0  0  0
   10.1279    8.1751  -10.7885 C   0  0  0  0  0  0  0  0  0  0  0  0
   10.8530    6.8873  -11.2088 C   0  0  0  0  0  0  0  0  0  0  0  0
   10.6384    6.5723  -12.6469 N   0  0  1  0  0  0  0  0  0  0  0  0
   11.6860    7.0584  -13.5835 C   0  0  0  0  0  0  0  0  0  0  0  0
   11.5595    6.1831  -14.8479 C   0  0  1  0  0  0  0  0  0  0  0  0
   12.8086    5.3882  -15.2414 C   0  0  0  0  0  0  0  0  0  0  0  0
   12.2308    4.1103  -15.8421 C   0  0  0  0  0  0  0  0  0  0  0  0
   11.0301    3.8555  -15.0605 N   0  0  0  0  0  0  0  0  0  0  0  0
   10.2661    2.6776  -15.2174 C   0  0  0  0  0  0  0  0  0  0  0  0
   10.8021    1.5620  -15.9076 C   0  0  0  0  0  0  0  0  0  0  0  0
   10.0608    0.3755  -16.0555 C   0  0  0  0  0  0  0  0  0  0  0  0
    8.7678    0.2839  -15.5144 C   0  0  0  0  0  0  0  0  0  0  0  0
    8.2160    1.3764  -14.8218 C   0  0  0  0  0  0  0  0  0  0  0  0
    6.8856    1.2573  -14.2469 C   0  0  0  0  0  0  0  0  0  0  0  0
    5.8290    1.1590  -13.7854 N   0  0  0  0  0  0  0  0  0  0  0  0
    8.9595    2.5681  -14.6785 C   0  0  0  0  0  0  0  0  0  0  0  0
   10.5139    5.1104  -14.5230 C   0  0  1  0  0  0  0  0  0  0  0  0
   10.4480    5.1474  -12.9961 C   0  0  0  0  0  0  0  0  0  0  0  0
   10.8860    7.8862   -5.6216 N   0  0  0  0  0  0  0  0  0  0  0  0
   10.3645    6.5723   -5.3118 C   0  0  0  0  0  0  0  0  0  0  0  0
   12.4860    5.8504   -3.9445 H   0  0  0  0  0  0  0  0  0  0  0  0
   11.6255    5.6899   -2.4120 H   0  0  0  0  0  0  0  0  0  0  0  0
   13.3756    5.7085   -2.4354 H   0  0  0  0  0  0  0  0  0  0  0  0
   12.5642   10.0695   -0.7360 H   0  0  0  0  0  0  0  0  0  0  0  0
   10.2300    9.7706   -9.3608 H   0  0  0  0  0  0  0  0  0  0  0  0
   11.6398    8.7274   -9.3504 H   0  0  0  0  0  0  0  0  0  0  0  0
    9.0434    8.0607  -10.8434 H   0  0  0  0  0  0  0  0  0  0  0  0
   10.3917    8.9724  -11.4479 H   0  0  0  0  0  0  0  0  0  0  0  0
   11.9192    6.9724  -10.9941 H   0  0  0  0  0  0  0  0  0  0  0  0
   10.4724    6.0714  -10.5929 H   0  0  0  0  0  0  0  0  0  0  0  0
   11.5510    8.1106  -13.8321 H   0  0  0  0  0  0  0  0  0  0  0  0
   12.6776    6.9518  -13.1413 H   0  0  0  0  0  0  0  0  0  0  0  0
   11.2323    6.7708  -15.7065 H   0  0  0  0  0  0  0  0  0  0  0  0
   13.4660    5.9251  -15.9258 H   0  0  0  0  0  0  0  0  0  0  0  0
   13.3847    5.1220  -14.3555 H   0  0  0  0  0  0  0  0  0  0  0  0
   11.9599    4.2558  -16.8888 H   0  0  0  0  0  0  0  0  0  0  0  0
   12.9534    3.2989  -15.7819 H   0  0  0  0  0  0  0  0  0  0  0  0
   11.7942    1.5859  -16.3313 H   0  0  0  0  0  0  0  0  0  0  0  0
   10.4854   -0.4657  -16.5832 H   0  0  0  0  0  0  0  0  0  0  0  0
    8.2007   -0.6277  -15.6305 H   0  0  0  0  0  0  0  0  0  0  0  0
    8.5119    3.3919  -14.1446 H   0  0  0  0  0  0  0  0  0  0  0  0
    9.5516    5.3718  -14.9662 H   0  0  0  0  0  0  0  0  0  0  0  0
   11.2855    4.5505  -12.6469 H   0  0  0  0  0  0  0  0  0  0  0  0
    9.5247    4.7373  -12.5867 H   0  0  0  0  0  0  0  0  0  0  0  0
    9.3518    6.4670   -5.7014 H   0  0  0  0  0  0  0  0  0  0  0  0
   10.3145    6.3996   -4.2470 H   0  0  0  0  0  0  0  0  0  0  0  0
   11.0040    5.8199   -5.7715 H   0  0  0  0  0  0  0  0  0  0  0  0
    9.7717    7.0208  -12.9098 H   0  0  0  0  0  0  0  0  0  0  0  0
  2  1  1  0
  3  2  1  0
  4  3  2  0
  5  4  1  0
  6  2  2  0
  6  5  1  0
  7  6  1  0
  8  7  2  0
  9  8  1  0
 10  9  2  0
 11 10  1  0
 12 11  1  0
 13 12  1  0
 14 13  1  0
 15 14  1  0
 16 15  1  0
 17 16  1  0
 18 17  1  0
 19 18  1  0
 20 19  1  0
 21 20  1  0
 22 21  2  0
 23 22  1  0
 24 23  2  0
 25 24  1  0
 26 25  1  0
 27 26  3  0
 28 21  1  0
 28 25  2  0
 29 17  1  0
 29 20  1  0
 30 15  1  0
 30 29  1  0
 31  7  1  0
 31 10  1  0
 32 31  1  0
 33  1  1  0
 34  1  1  0
 35  1  1  0
 36  4  1  0
 37 12  1  0
 38 12  1  0
 39 13  1  0
 40 13  1  0
 41 14  1  0
 42 14  1  0
 43 16  1  0
 44 16  1  0
 17 45  1  6
 46 18  1  0
 47 18  1  0
 48 19  1  0
 49 19  1  0
 50 22  1  0
 51 23  1  0
 52 24  1  0
 53 28  1  0
 29 54  1  6
 55 30  1  0
 56 30  1  0
 57 32  1  0
 58 32  1  0
 59 32  1  0
 15 60  1  6
M  CHG  1  15   1
M  END
>  <b_m_subgroup_collapsed>  (418) 
0

>  <r_i_docking_score>  (418) 
-8.0616205228532802

>  <s_m_subgroup_title>  (418) 
glide-dock_SP_D22_pv

>  <s_m_subgroupid>  (418) 
glide-dock_SP_D22_pv

>  <Molecule ChEMBL ID>  (418) 
CHEMBL3775534

>  <Standard Type>  (418) 
Ki

>  <Standard Value>  (418) 
5.75

>  <label>  (418) 
1

$$$$
CHEMBL3344462
     RDKit          3D

 53 56  0  0  1  0  0  0  0  0999 V2000
   12.6041    8.5846   -1.9686 C   0  0  0  0  0  0  0  0  0  0  0  0
   11.8686    9.2195   -3.1554 C   0  0  0  0  0  0  0  0  0  0  0  0
   12.1773    8.6157   -4.5398 C   0  0  1  0  0  0  0  0  0  0  0  0
   11.6863    7.1542   -4.6595 C   0  0  0  0  0  0  0  0  0  0  0  0
   11.6111    9.5464   -5.6459 C   0  0  0  0  0  0  0  0  0  0  0  0
   11.2676    8.9137   -6.9598 C   0  0  0  0  0  0  0  0  0  0  0  0
   10.0254    8.5446   -7.4084 C   0  0  0  0  0  0  0  0  0  0  0  0
   10.0522    8.0169   -8.7321 C   0  0  0  0  0  0  0  0  0  0  0  0
   11.2984    7.9988   -9.2790 C   0  0  0  0  0  0  0  0  0  0  0  0
   12.4860    8.5723   -8.1631 S   0  0  0  0  0  0  0  0  0  0  0  0
   11.6267    7.4531  -10.6238 C   0  0  0  0  0  0  0  0  0  0  0  0
   10.3571    7.1096  -11.4614 C   0  0  1  0  0  0  0  0  0  0  0  0
   10.6514    6.1727  -12.6469 C   0  0  0  0  0  0  0  0  0  0  0  0
   11.7990    6.3716  -13.4468 C   0  0  0  0  0  0  0  0  0  0  0  0
   12.1319    5.4628  -14.4707 C   0  0  0  0  0  0  0  0  0  0  0  0
   13.2859    5.6469  -15.1770 O   0  0  0  0  0  0  0  0  0  0  0  0
   11.3113    4.3477  -14.7404 C   0  0  0  0  0  0  0  0  0  0  0  0
   11.7188    3.4766  -15.7302 O   0  0  0  0  0  0  0  0  0  0  0  0
   11.0421    2.2342  -15.8509 C   0  0  0  0  0  0  0  0  0  0  0  0
   10.1316    4.1753  -13.9768 C   0  0  0  0  0  0  0  0  0  0  0  0
    9.8016    5.0767  -12.9441 C   0  0  0  0  0  0  0  0  0  0  0  0
    8.5529    4.8190  -12.1236 C   0  0  0  0  0  0  0  0  0  0  0  0
    8.1270    6.0487  -11.3217 C   0  0  0  0  0  0  0  0  0  0  0  0
    9.2866    6.5718  -10.5658 N   0  0  2  0  0  0  0  0  0  0  0  0
    8.8860    7.5527   -9.5250 C   0  0  0  0  0  0  0  0  0  0  0  0
   12.2942    9.0729   -1.0468 H   0  0  0  0  0  0  0  0  0  0  0  0
   13.6825    8.7139   -2.0498 H   0  0  0  0  0  0  0  0  0  0  0  0
   12.3870    7.5226   -1.8624 H   0  0  0  0  0  0  0  0  0  0  0  0
   10.8000    9.1609   -2.9873 H   0  0  0  0  0  0  0  0  0  0  0  0
   12.1039   10.2830   -3.1567 H   0  0  0  0  0  0  0  0  0  0  0  0
   13.2618    8.5962   -4.6469 H   0  0  0  0  0  0  0  0  0  0  0  0
   10.5984    7.0929   -4.6468 H   0  0  0  0  0  0  0  0  0  0  0  0
   12.0648    6.5273   -3.8534 H   0  0  0  0  0  0  0  0  0  0  0  0
   12.0209    6.6900   -5.5872 H   0  0  0  0  0  0  0  0  0  0  0  0
   10.7045   10.0261   -5.2725 H   0  0  0  0  0  0  0  0  0  0  0  0
   12.3116   10.3653   -5.8158 H   0  0  0  0  0  0  0  0  0  0  0  0
    9.1075    8.6450   -6.8457 H   0  0  0  0  0  0  0  0  0  0  0  0
   12.2655    8.1535  -11.1628 H   0  0  0  0  0  0  0  0  0  0  0  0
   12.2292    6.5723  -10.4398 H   0  0  0  0  0  0  0  0  0  0  0  0
    9.9723    8.0370  -11.8898 H   0  0  0  0  0  0  0  0  0  0  0  0
   12.4571    7.2061  -13.2550 H   0  0  0  0  0  0  0  0  0  0  0  0
   13.9245    6.1698  -14.7129 H   0  0  0  0  0  0  0  0  0  0  0  0
   11.5508    1.6196  -16.5938 H   0  0  0  0  0  0  0  0  0  0  0  0
   10.0134    2.3718  -16.1849 H   0  0  0  0  0  0  0  0  0  0  0  0
   11.0468    1.6820  -14.9098 H   0  0  0  0  0  0  0  0  0  0  0  0
    9.4719    3.3393  -14.1540 H   0  0  0  0  0  0  0  0  0  0  0  0
    7.7383    4.5047  -12.7776 H   0  0  0  0  0  0  0  0  0  0  0  0
    8.7580    3.9849  -11.4533 H   0  0  0  0  0  0  0  0  0  0  0  0
    7.7371    6.8263  -11.9808 H   0  0  0  0  0  0  0  0  0  0  0  0
    7.3163    5.7723  -10.6467 H   0  0  0  0  0  0  0  0  0  0  0  0
    8.1355    7.1075   -8.8705 H   0  0  0  0  0  0  0  0  0  0  0  0
    8.4860    8.4335  -10.0209 H   0  0  0  0  0  0  0  0  0  0  0  0
    9.6827    5.7861  -10.0716 H   0  0  0  0  0  0  0  0  0  0  0  0
  2  1  1  0
  3  2  1  0
  4  3  1  0
  5  3  1  0
  6  5  1  0
  7  6  2  0
  8  7  1  0
  9  8  2  0
 10  6  1  0
 10  9  1  0
 11  9  1  0
 12 11  1  0
 13 12  1  0
 14 13  1  0
 15 14  2  0
 16 15  1  0
 17 15  1  0
 18 17  1  0
 19 18  1  0
 20 17  2  0
 21 13  2  0
 21 20  1  0
 22 21  1  0
 23 22  1  0
 24 12  1  0
 24 23  1  0
 25  8  1  0
 25 24  1  0
 26  1  1  0
 27  1  1  0
 28  1  1  0
 29  2  1  0
 30  2  1  0
  3 31  1  6
 32  4  1  0
 33  4  1  0
 34  4  1  0
 35  5  1  0
 36  5  1  0
 37  7  1  0
 38 11  1  0
 39 11  1  0
 12 40  1  6
 41 14  1  0
 42 16  1  0
 43 19  1  0
 44 19  1  0
 45 19  1  0
 46 20  1  0
 47 22  1  0
 48 22  1  0
 49 23  1  0
 50 23  1  0
 51 25  1  0
 52 25  1  0
 24 53  1  1
M  CHG  1  24   1
M  END
>  <b_m_subgroup_collapsed>  (419) 
0

>  <r_i_docking_score>  (419) 
-8.0609634877543304

>  <s_m_subgroup_title>  (419) 
glide-dock_SP_D22_pv

>  <s_m_subgroupid>  (419) 
glide-dock_SP_D22_pv

>  <Molecule ChEMBL ID>  (419) 
CHEMBL3344462

>  <Standard Type>  (419) 
Ki

>  <Standard Value>  (419) 
29.1

>  <label>  (419) 
1

$$$$
CHEMBL404888
     RDKit          3D

 51 53  0  0  1  0  0  0  0  0999 V2000
    5.3875    4.4317  -12.7763 C   0  0  0  0  0  0  0  0  0  0  0  0
    6.5792    3.7886  -13.1920 O   0  0  0  0  0  0  0  0  0  0  0  0
    7.7695    4.4665  -13.0372 C   0  0  0  0  0  0  0  0  0  0  0  0
    7.8901    5.6941  -12.3358 C   0  0  0  0  0  0  0  0  0  0  0  0
    9.1380    6.3398  -12.2314 C   0  0  0  0  0  0  0  0  0  0  0  0
    9.2646    7.6418  -11.4571 C   0  0  0  0  0  0  0  0  0  0  0  0
    9.2861    7.4336   -9.9883 N   0  0  0  0  0  0  0  0  0  0  0  0
    9.2468    8.7164   -9.2424 C   0  0  0  0  0  0  0  0  0  0  0  0
    9.1695    8.4502   -7.7346 C   0  0  0  0  0  0  0  0  0  0  0  0
   10.3226    7.6605   -7.3272 N   0  0  0  0  0  0  0  0  0  0  0  0
   10.8747    7.8715   -6.0460 C   0  0  0  0  0  0  0  0  0  0  0  0
   11.0690    9.1870   -5.5574 C   0  0  0  0  0  0  0  0  0  0  0  0
   11.5764    9.4057   -4.2630 C   0  0  0  0  0  0  0  0  0  0  0  0
   11.9150    8.3127   -3.4460 C   0  0  0  0  0  0  0  0  0  0  0  0
   12.4869    8.5764   -1.8467 Cl  0  0  0  0  0  0  0  0  0  0  0  0
   11.7563    7.0020   -3.9249 C   0  0  0  0  0  0  0  0  0  0  0  0
   11.2464    6.7886   -5.2169 C   0  0  0  0  0  0  0  0  0  0  0  0
   10.3917    6.3613   -7.9838 C   0  0  0  0  0  0  0  0  0  0  0  0
   10.3721    6.5281   -9.5155 C   0  0  0  0  0  0  0  0  0  0  0  0
   10.2703    5.7669  -12.8408 C   0  0  0  0  0  0  0  0  0  0  0  0
   10.1651    4.5397  -13.5211 C   0  0  0  0  0  0  0  0  0  0  0  0
    8.9177    3.8757  -13.6130 C   0  0  0  0  0  0  0  0  0  0  0  0
    8.7428    2.6624  -14.2472 O   0  0  0  0  0  0  0  0  0  0  0  0
    9.8911    1.9371  -14.6615 C   0  0  0  0  0  0  0  0  0  0  0  0
    9.4393    0.5392  -15.0878 C   0  0  0  0  0  0  0  0  0  0  0  0
   10.4855   -0.1905  -15.4698 F   0  0  0  0  0  0  0  0  0  0  0  0
    4.5286    3.8209  -13.0563 H   0  0  0  0  0  0  0  0  0  0  0  0
    5.3615    4.5612  -11.6948 H   0  0  0  0  0  0  0  0  0  0  0  0
    5.2837    5.4030  -13.2606 H   0  0  0  0  0  0  0  0  0  0  0  0
    7.0372    6.1528  -11.8564 H   0  0  0  0  0  0  0  0  0  0  0  0
    8.4214    8.2826  -11.7228 H   0  0  0  0  0  0  0  0  0  0  0  0
   10.1666    8.1713  -11.7679 H   0  0  0  0  0  0  0  0  0  0  0  0
    8.3934    9.3207   -9.5561 H   0  0  0  0  0  0  0  0  0  0  0  0
   10.1422    9.3002   -9.4681 H   0  0  0  0  0  0  0  0  0  0  0  0
    8.2615    7.8926   -7.4947 H   0  0  0  0  0  0  0  0  0  0  0  0
    9.0910    9.3724   -7.1829 H   0  0  0  0  0  0  0  0  0  0  0  0
   10.8284   10.0474   -6.1630 H   0  0  0  0  0  0  0  0  0  0  0  0
   11.6862   10.4122   -3.8886 H   0  0  0  0  0  0  0  0  0  0  0  0
   12.0099    6.1609   -3.2959 H   0  0  0  0  0  0  0  0  0  0  0  0
   11.1183    5.7727   -5.5411 H   0  0  0  0  0  0  0  0  0  0  0  0
   11.2860    5.8161   -7.6945 H   0  0  0  0  0  0  0  0  0  0  0  0
    9.5381    5.7618   -7.6625 H   0  0  0  0  0  0  0  0  0  0  0  0
   10.2666    5.5416   -9.9650 H   0  0  0  0  0  0  0  0  0  0  0  0
   11.3302    6.9319   -9.8456 H   0  0  0  0  0  0  0  0  0  0  0  0
   11.2315    6.2585  -12.7784 H   0  0  0  0  0  0  0  0  0  0  0  0
   11.0586    4.1287  -13.9639 H   0  0  0  0  0  0  0  0  0  0  0  0
   10.3780    2.4478  -15.4943 H   0  0  0  0  0  0  0  0  0  0  0  0
   10.6129    1.8476  -13.8475 H   0  0  0  0  0  0  0  0  0  0  0  0
    8.9546    0.0167  -14.2630 H   0  0  0  0  0  0  0  0  0  0  0  0
    8.7421    0.5821  -15.9252 H   0  0  0  0  0  0  0  0  0  0  0  0
    8.3990    6.9886   -9.7744 H   0  0  0  0  0  0  0  0  0  0  0  0
  2  1  1  0
  3  2  1  0
  4  3  1  0
  5  4  2  0
  6  5  1  0
  7  6  1  0
  8  7  1  0
  9  8  1  0
 10  9  1  0
 11 10  1  0
 12 11  1  0
 13 12  2  0
 14 13  1  0
 15 14  1  0
 16 14  2  0
 17 11  2  0
 17 16  1  0
 18 10  1  0
 19  7  1  0
 19 18  1  0
 20  5  1  0
 21 20  2  0
 22  3  2  0
 22 21  1  0
 23 22  1  0
 24 23  1  0
 25 24  1  0
 26 25  1  0
 27  1  1  0
 28  1  1  0
 29  1  1  0
 30  4  1  0
 31  6  1  0
 32  6  1  0
 33  8  1  0
 34  8  1  0
 35  9  1  0
 36  9  1  0
 37 12  1  0
 38 13  1  0
 39 16  1  0
 40 17  1  0
 41 18  1  0
 42 18  1  0
 43 19  1  0
 44 19  1  0
 45 20  1  0
 46 21  1  0
 47 24  1  0
 48 24  1  0
 49 25  1  0
 50 25  1  0
 51  7  1  0
M  CHG  1   7   1
M  END
>  <b_m_subgroup_collapsed>  (420) 
0

>  <r_i_docking_score>  (420) 
-8.0600708115384698

>  <s_m_subgroup_title>  (420) 
glide-dock_SP_D22_pv

>  <s_m_subgroupid>  (420) 
glide-dock_SP_D22_pv

>  <Molecule ChEMBL ID>  (420) 
CHEMBL404888

>  <Standard Type>  (420) 
Ki

>  <Standard Value>  (420) 
21000.0

>  <label>  (420) 
0

$$$$
CHEMBL133830
     RDKit          3D

 26 27  0  0  1  0  0  0  0  0999 V2000
    8.8860    8.5715   -7.3080 N   0  0  0  0  0  0  0  0  0  0  0  0
   10.3148    8.7989   -7.6046 C   0  0  2  0  0  0  0  0  0  0  0  0
   11.0158    7.4533   -7.8058 C   0  0  0  0  0  0  0  0  0  0  0  0
   10.9875    6.6077   -6.5243 C   0  0  0  0  0  0  0  0  0  0  0  0
   11.3159    7.3896   -5.2598 C   0  0  0  0  0  0  0  0  0  0  0  0
   11.6861    6.6781   -4.1046 C   0  0  0  0  0  0  0  0  0  0  0  0
   12.0798    7.3447   -2.9336 C   0  0  0  0  0  0  0  0  0  0  0  0
   12.0859    8.7478   -2.8989 C   0  0  0  0  0  0  0  0  0  0  0  0
   12.4858    9.3722   -1.7535 O   0  0  0  0  0  0  0  0  0  0  0  0
   11.6869    9.4759   -4.0408 C   0  0  0  0  0  0  0  0  0  0  0  0
   11.3200    8.8040   -5.2308 C   0  0  0  0  0  0  0  0  0  0  0  0
   11.0250    9.6038   -6.4906 C   0  0  0  0  0  0  0  0  0  0  0  0
    8.7897    8.0464   -6.4508 H   0  0  0  0  0  0  0  0  0  0  0  0
    8.3929    9.4471   -7.2102 H   0  0  0  0  0  0  0  0  0  0  0  0
   10.3578    9.3708   -8.5327 H   0  0  0  0  0  0  0  0  0  0  0  0
   10.5797    6.8973   -8.6370 H   0  0  0  0  0  0  0  0  0  0  0  0
   12.0538    7.6442   -8.0810 H   0  0  0  0  0  0  0  0  0  0  0  0
   11.6846    5.7735   -6.6247 H   0  0  0  0  0  0  0  0  0  0  0  0
    9.9972    6.1721   -6.3925 H   0  0  0  0  0  0  0  0  0  0  0  0
   11.7029    5.6060   -4.1282 H   0  0  0  0  0  0  0  0  0  0  0  0
   12.3777    6.7765   -2.0646 H   0  0  0  0  0  0  0  0  0  0  0  0
   12.8052   10.2641   -1.8474 H   0  0  0  0  0  0  0  0  0  0  0  0
   11.6856   10.5550   -4.0108 H   0  0  0  0  0  0  0  0  0  0  0  0
   10.4861   10.5149   -6.2379 H   0  0  0  0  0  0  0  0  0  0  0  0
   11.9918    9.9374   -6.8702 H   0  0  0  0  0  0  0  0  0  0  0  0
    8.4380    8.0441   -8.0497 H   0  0  0  0  0  0  0  0  0  0  0  0
  2  1  1  0
  3  2  1  0
  4  3  1  0
  5  4  1  0
  6  5  1  0
  7  6  2  0
  8  7  1  0
  9  8  1  0
 10  8  2  0
 11  5  2  0
 11 10  1  0
 12  2  1  0
 12 11  1  0
 13  1  1  0
 14  1  1  0
  2 15  1  6
 16  3  1  0
 17  3  1  0
 18  4  1  0
 19  4  1  0
 20  6  1  0
 21  7  1  0
 22  9  1  0
 23 10  1  0
 24 12  1  0
 25 12  1  0
 26  1  1  0
M  CHG  1   1   1
M  END
>  <b_m_subgroup_collapsed>  (421) 
0

>  <r_i_docking_score>  (421) 
-8.0559204539849603

>  <s_m_subgroup_title>  (421) 
glide-dock_SP_D22_pv

>  <s_m_subgroupid>  (421) 
glide-dock_SP_D22_pv

>  <Molecule ChEMBL ID>  (421) 
CHEMBL133830

>  <Standard Type>  (421) 
Ki

>  <Standard Value>  (421) 
3.3

>  <label>  (421) 
1

$$$$
CHEMBL68191
     RDKit          3D

 54 57  0  0  1  0  0  0  0  0999 V2000
   14.6376    6.7381  -16.6473 C   0  0  0  0  0  0  0  0  0  0  0  0
   13.1218    6.9882  -16.6955 C   0  0  0  0  0  0  0  0  0  0  0  0
   12.4197    6.2697  -15.6136 N   0  0  0  0  0  0  0  0  0  0  0  0
   12.1712    6.9313  -14.4389 C   0  0  0  0  0  0  0  0  0  0  0  0
   12.4875    8.1108  -14.2802 O   0  0  0  0  0  0  0  0  0  0  0  0
   11.5026    6.1657  -13.2610 C   0  0  1  0  0  0  0  0  0  0  0  0
   10.8550    7.0278  -12.1972 N   0  0  0  0  0  0  0  0  0  0  0  0
   11.8323    7.6841  -11.2958 C   0  0  0  0  0  0  0  0  0  0  0  0
   11.1532    8.5411  -10.2022 C   0  0  0  0  0  0  0  0  0  0  0  0
   10.1692    7.7531   -9.4256 N   0  0  0  0  0  0  0  0  0  0  0  0
    9.5362    8.4929   -8.3061 C   0  0  0  0  0  0  0  0  0  0  0  0
   10.3319    8.3374   -7.0231 C   0  0  0  0  0  0  0  0  0  0  0  0
   11.1162    9.3945   -6.5154 C   0  0  0  0  0  0  0  0  0  0  0  0
   11.7838    9.2524   -5.2841 C   0  0  0  0  0  0  0  0  0  0  0  0
   11.6877    8.0454   -4.5651 C   0  0  0  0  0  0  0  0  0  0  0  0
   12.4827    7.8751   -3.0465 Cl  0  0  0  0  0  0  0  0  0  0  0  0
   10.9458    6.9726   -5.0904 C   0  0  0  0  0  0  0  0  0  0  0  0
   10.2583    7.1226   -6.3099 C   0  0  0  0  0  0  0  0  0  0  0  0
    9.1743    7.1931  -10.3541 C   0  0  0  0  0  0  0  0  0  0  0  0
    9.8598    6.3001  -11.3864 C   0  0  0  0  0  0  0  0  0  0  0  0
   10.5542    5.0757  -13.8157 C   0  0  0  0  0  0  0  0  0  0  0  0
   11.1433    4.2641  -14.9361 C   0  0  0  0  0  0  0  0  0  0  0  0
   10.7679    2.9149  -15.1091 C   0  0  0  0  0  0  0  0  0  0  0  0
   11.2796    2.1753  -16.1877 C   0  0  0  0  0  0  0  0  0  0  0  0
   12.1555    2.7914  -17.0982 C   0  0  0  0  0  0  0  0  0  0  0  0
   12.5336    4.1358  -16.9192 C   0  0  0  0  0  0  0  0  0  0  0  0
   12.0428    4.8948  -15.8225 C   0  0  0  0  0  0  0  0  0  0  0  0
   15.1563    7.3611  -17.3743 H   0  0  0  0  0  0  0  0  0  0  0  0
   15.0313    6.9655  -15.6598 H   0  0  0  0  0  0  0  0  0  0  0  0
   14.8990    5.7032  -16.8574 H   0  0  0  0  0  0  0  0  0  0  0  0
   12.7174    6.6988  -17.6652 H   0  0  0  0  0  0  0  0  0  0  0  0
   12.9348    8.0627  -16.6562 H   0  0  0  0  0  0  0  0  0  0  0  0
   12.3381    5.6417  -12.8036 H   0  0  0  0  0  0  0  0  0  0  0  0
   12.4855    6.9722  -10.8058 H   0  0  0  0  0  0  0  0  0  0  0  0
   12.5067    8.3321  -11.8506 H   0  0  0  0  0  0  0  0  0  0  0  0
   11.9081    8.9586   -9.5356 H   0  0  0  0  0  0  0  0  0  0  0  0
   10.6374    9.3723  -10.6654 H   0  0  0  0  0  0  0  0  0  0  0  0
    9.3954    9.5420   -8.5628 H   0  0  0  0  0  0  0  0  0  0  0  0
    8.5361    8.1012   -8.1050 H   0  0  0  0  0  0  0  0  0  0  0  0
   11.2056   10.3275   -7.0475 H   0  0  0  0  0  0  0  0  0  0  0  0
   12.3728   10.0678   -4.8917 H   0  0  0  0  0  0  0  0  0  0  0  0
   10.8839    6.0416   -4.5449 H   0  0  0  0  0  0  0  0  0  0  0  0
    9.6599    6.3031   -6.6811 H   0  0  0  0  0  0  0  0  0  0  0  0
    8.4744    6.5786   -9.7928 H   0  0  0  0  0  0  0  0  0  0  0  0
    8.6052    7.9875  -10.8436 H   0  0  0  0  0  0  0  0  0  0  0  0
    9.0489    5.9271  -12.0118 H   0  0  0  0  0  0  0  0  0  0  0  0
   10.2985    5.4405  -10.8847 H   0  0  0  0  0  0  0  0  0  0  0  0
    9.6339    5.5256  -14.1877 H   0  0  0  0  0  0  0  0  0  0  0  0
   10.2820    4.3651  -13.0347 H   0  0  0  0  0  0  0  0  0  0  0  0
   10.0842    2.4463  -14.4145 H   0  0  0  0  0  0  0  0  0  0  0  0
   10.9943    1.1423  -16.3209 H   0  0  0  0  0  0  0  0  0  0  0  0
   12.5430    2.2291  -17.9345 H   0  0  0  0  0  0  0  0  0  0  0  0
   13.2077    4.5576  -17.6462 H   0  0  0  0  0  0  0  0  0  0  0  0
   10.6496    6.9657   -9.0141 H   0  0  0  0  0  0  0  0  0  0  0  0
  2  1  1  0
  3  2  1  0
  4  3  1  0
  5  4  2  0
  6  4  1  0
  7  6  1  0
  8  7  1  0
  9  8  1  0
 10  9  1  0
 11 10  1  0
 12 11  1  0
 13 12  1  0
 14 13  2  0
 15 14  1  0
 16 15  1  0
 17 15  2  0
 18 12  2  0
 18 17  1  0
 19 10  1  0
 20  7  1  0
 20 19  1  0
 21  6  1  0
 22 21  1  0
 23 22  2  0
 24 23  1  0
 25 24  2  0
 26 25  1  0
 27  3  1  0
 27 22  1  0
 27 26  2  0
 28  1  1  0
 29  1  1  0
 30  1  1  0
 31  2  1  0
 32  2  1  0
  6 33  1  1
 34  8  1  0
 35  8  1  0
 36  9  1  0
 37  9  1  0
 38 11  1  0
 39 11  1  0
 40 13  1  0
 41 14  1  0
 42 17  1  0
 43 18  1  0
 44 19  1  0
 45 19  1  0
 46 20  1  0
 47 20  1  0
 48 21  1  0
 49 21  1  0
 50 23  1  0
 51 24  1  0
 52 25  1  0
 53 26  1  0
 54 10  1  0
M  CHG  1  10   1
M  END
>  <b_m_subgroup_collapsed>  (422) 
0

>  <r_i_docking_score>  (422) 
-8.0517571121824698

>  <s_m_subgroup_title>  (422) 
glide-dock_SP_D22_pv

>  <s_m_subgroupid>  (422) 
glide-dock_SP_D22_pv

>  <Molecule ChEMBL ID>  (422) 
CHEMBL68191

>  <Standard Type>  (422) 
Ki

>  <Standard Value>  (422) 
21.0

>  <label>  (422) 
1

$$$$
CHEMBL458992
     RDKit          3D

 63 66  0  0  1  0  0  0  0  0999 V2000
    5.3015    2.4525  -12.7080 C   0  0  0  0  0  0  0  0  0  0  0  0
    5.6968    1.3049  -13.4461 O   0  0  0  0  0  0  0  0  0  0  0  0
    6.8152    1.4015  -14.2464 C   0  0  0  0  0  0  0  0  0  0  0  0
    7.1937    0.2471  -14.9613 C   0  0  0  0  0  0  0  0  0  0  0  0
    8.3293    0.2586  -15.7936 C   0  0  0  0  0  0  0  0  0  0  0  0
    9.1017    1.4247  -15.9188 C   0  0  0  0  0  0  0  0  0  0  0  0
    8.7400    2.5854  -15.2072 C   0  0  0  0  0  0  0  0  0  0  0  0
    9.5694    3.8439  -15.3575 C   0  0  0  0  0  0  0  0  0  0  0  0
   10.9340    3.7480  -14.6590 C   0  0  0  0  0  0  0  0  0  0  0  0
   11.7584    4.9949  -14.9232 C   0  0  0  0  0  0  0  0  0  0  0  0
   12.5539    5.0468  -16.0884 C   0  0  0  0  0  0  0  0  0  0  0  0
   13.2587    6.2177  -16.4173 C   0  0  0  0  0  0  0  0  0  0  0  0
   13.1704    7.3401  -15.5794 C   0  0  0  0  0  0  0  0  0  0  0  0
   12.4054    7.2854  -14.3987 C   0  0  0  0  0  0  0  0  0  0  0  0
   11.6852    6.1109  -14.0563 C   0  0  0  0  0  0  0  0  0  0  0  0
   10.8724    6.0073  -12.9434 O   0  0  0  0  0  0  0  0  0  0  0  0
   10.9182    7.0491  -11.9760 C   0  0  0  0  0  0  0  0  0  0  0  0
   10.1355    6.6497  -10.7066 C   0  0  0  0  0  0  0  0  0  0  0  0
   10.1810    7.6921   -9.6809 N   0  0  0  0  0  0  0  0  0  0  0  0
   11.5151    7.8670   -9.0944 C   0  0  0  0  0  0  0  0  0  0  0  0
   11.5004    9.1025   -8.1805 C   0  0  0  0  0  0  0  0  0  0  0  0
   10.4998    8.9703   -7.1294 N   0  0  0  0  0  0  0  0  0  0  0  0
   10.9929    8.6251   -5.8660 C   0  0  0  0  0  0  0  0  0  0  0  0
   11.3860    9.6614   -4.9935 C   0  0  0  0  0  0  0  0  0  0  0  0
   11.8975    9.3628   -3.7150 C   0  0  0  0  0  0  0  0  0  0  0  0
   12.0412    8.0217   -3.3138 C   0  0  0  0  0  0  0  0  0  0  0  0
   12.4863    7.7352   -2.0692 F   0  0  0  0  0  0  0  0  0  0  0  0
   11.6859    6.9812   -4.1930 C   0  0  0  0  0  0  0  0  0  0  0  0
   11.1466    7.2797   -5.4617 C   0  0  0  0  0  0  0  0  0  0  0  0
    9.1858    8.4959   -7.5612 C   0  0  0  0  0  0  0  0  0  0  0  0
    9.2864    7.3302   -8.5734 C   0  0  0  0  0  0  0  0  0  0  0  0
    7.5992    2.5753  -14.3774 C   0  0  0  0  0  0  0  0  0  0  0  0
    4.4843    2.1718  -12.0517 H   0  0  0  0  0  0  0  0  0  0  0  0
    6.0888    2.8354  -12.0630 H   0  0  0  0  0  0  0  0  0  0  0  0
    4.9548    3.2504  -13.3659 H   0  0  0  0  0  0  0  0  0  0  0  0
    6.6127   -0.6588  -14.8690 H   0  0  0  0  0  0  0  0  0  0  0  0
    8.6069   -0.6276  -16.3398 H   0  0  0  0  0  0  0  0  0  0  0  0
    9.9725    1.4269  -16.5605 H   0  0  0  0  0  0  0  0  0  0  0  0
    9.0175    4.6999  -14.9709 H   0  0  0  0  0  0  0  0  0  0  0  0
    9.7108    4.0299  -16.4217 H   0  0  0  0  0  0  0  0  0  0  0  0
   11.4851    2.8801  -15.0226 H   0  0  0  0  0  0  0  0  0  0  0  0
   10.8042    3.5944  -13.5874 H   0  0  0  0  0  0  0  0  0  0  0  0
   12.6040    4.1941  -16.7500 H   0  0  0  0  0  0  0  0  0  0  0  0
   13.8510    6.2598  -17.3197 H   0  0  0  0  0  0  0  0  0  0  0  0
   13.6859    8.2513  -15.8445 H   0  0  0  0  0  0  0  0  0  0  0  0
   12.3716    8.1719  -13.7879 H   0  0  0  0  0  0  0  0  0  0  0  0
   11.9631    7.2455  -11.7413 H   0  0  0  0  0  0  0  0  0  0  0  0
   10.4856    7.9583  -12.3944 H   0  0  0  0  0  0  0  0  0  0  0  0
    9.0944    6.4869  -10.9906 H   0  0  0  0  0  0  0  0  0  0  0  0
   10.4858    5.7055  -10.2948 H   0  0  0  0  0  0  0  0  0  0  0  0
   11.7995    6.9726   -8.5368 H   0  0  0  0  0  0  0  0  0  0  0  0
   12.2753    8.0335   -9.8559 H   0  0  0  0  0  0  0  0  0  0  0  0
   12.4901    9.2485   -7.7468 H   0  0  0  0  0  0  0  0  0  0  0  0
   11.2858    9.9881   -8.7749 H   0  0  0  0  0  0  0  0  0  0  0  0
   11.2794   10.6928   -5.3015 H   0  0  0  0  0  0  0  0  0  0  0  0
   12.1734   10.1630   -3.0435 H   0  0  0  0  0  0  0  0  0  0  0  0
   11.7934    5.9522   -3.8823 H   0  0  0  0  0  0  0  0  0  0  0  0
   10.8665    6.4735   -6.1224 H   0  0  0  0  0  0  0  0  0  0  0  0
    8.5894    8.1918   -6.7006 H   0  0  0  0  0  0  0  0  0  0  0  0
    8.6547    9.3291   -8.0227 H   0  0  0  0  0  0  0  0  0  0  0  0
    8.2960    7.0994   -8.9611 H   0  0  0  0  0  0  0  0  0  0  0  0
    9.6396    6.4214   -8.0835 H   0  0  0  0  0  0  0  0  0  0  0  0
    7.3442    3.4804  -13.8493 H   0  0  0  0  0  0  0  0  0  0  0  0
  2  1  1  0
  3  2  1  0
  4  3  1  0
  5  4  2  0
  6  5  1  0
  7  6  2  0
  8  7  1  0
  9  8  1  0
 10  9  1  0
 11 10  2  0
 12 11  1  0
 13 12  2  0
 14 13  1  0
 15 10  1  0
 15 14  2  0
 16 15  1  0
 17 16  1  0
 18 17  1  0
 19 18  1  0
 20 19  1  0
 21 20  1  0
 22 21  1  0
 23 22  1  0
 24 23  1  0
 25 24  2  0
 26 25  1  0
 27 26  1  0
 28 26  2  0
 29 23  2  0
 29 28  1  0
 30 22  1  0
 31 19  1  0
 31 30  1  0
 32  3  2  0
 32  7  1  0
 33  1  1  0
 34  1  1  0
 35  1  1  0
 36  4  1  0
 37  5  1  0
 38  6  1  0
 39  8  1  0
 40  8  1  0
 41  9  1  0
 42  9  1  0
 43 11  1  0
 44 12  1  0
 45 13  1  0
 46 14  1  0
 47 17  1  0
 48 17  1  0
 49 18  1  0
 50 18  1  0
 51 20  1  0
 52 20  1  0
 53 21  1  0
 54 21  1  0
 55 24  1  0
 56 25  1  0
 57 28  1  0
 58 29  1  0
 59 30  1  0
 60 30  1  0
 61 31  1  0
 62 31  1  0
 63 32  1  0
M  END
>  <b_m_subgroup_collapsed>  (423) 
0

>  <r_i_docking_score>  (423) 
-8.0514347945987392

>  <s_m_subgroup_title>  (423) 
glide-dock_SP_D22_pv

>  <s_m_subgroupid>  (423) 
glide-dock_SP_D22_pv

>  <Molecule ChEMBL ID>  (423) 
CHEMBL458992

>  <Standard Type>  (423) 
Ki

>  <Standard Value>  (423) 
1000000.0

>  <label>  (423) 
0

$$$$
CHEMBL113229
     RDKit          3D

 61 64  0  0  1  0  0  0  0  0999 V2000
   10.2784    5.6149   -8.4210 C   0  0  0  0  0  0  0  0  0  0  0  0
    9.2936    6.6920   -7.8898 C   0  0  0  0  0  0  0  0  0  0  0  0
    9.7604    8.1128   -7.9768 N   0  0  1  0  0  0  0  0  0  0  0  0
   11.1250    8.3938   -7.4466 C   0  0  0  0  0  0  0  0  0  0  0  0
   11.2857    8.2278   -5.9360 C   0  0  0  0  0  0  0  0  0  0  0  0
   11.3374    6.9296   -5.3629 C   0  0  0  0  0  0  0  0  0  0  0  0
   11.6858    6.7414   -4.0128 C   0  0  0  0  0  0  0  0  0  0  0  0
   11.9213    7.8659   -3.2314 C   0  0  0  0  0  0  0  0  0  0  0  0
   11.8201    9.1351   -3.7507 C   0  0  0  0  0  0  0  0  0  0  0  0
   11.5036    9.3611   -5.1057 C   0  0  0  0  0  0  0  0  0  0  0  0
   12.0858   10.0222   -2.7615 O   0  0  0  0  0  0  0  0  0  0  0  0
   12.4247    9.2552   -1.6269 C   0  0  0  0  0  0  0  0  0  0  0  0
   12.2476    7.9054   -1.9204 O   0  0  0  0  0  0  0  0  0  0  0  0
    9.4989    8.7714   -9.2911 C   0  0  0  0  0  0  0  0  0  0  0  0
   10.0029    8.0159  -10.4788 C   0  0  0  0  0  0  0  0  0  0  0  0
   11.2391    7.8948  -11.0468 C   0  0  0  0  0  0  0  0  0  0  0  0
   11.1351    6.9724  -12.1326 C   0  0  0  0  0  0  0  0  0  0  0  0
    9.8533    6.4863  -12.1688 C   0  0  0  0  0  0  0  0  0  0  0  0
    9.2130    5.4221  -12.9624 C   0  0  0  0  0  0  0  0  0  0  0  0
    9.9910    4.7533  -13.9363 C   0  0  0  0  0  0  0  0  0  0  0  0
    9.4397    3.7158  -14.7111 C   0  0  0  0  0  0  0  0  0  0  0  0
   10.4241    2.8854  -15.9458 S   0  0  0  0  0  0  0  0  0  0  0  0
    9.5449    2.5950  -17.0888 O   0  0  0  0  0  0  0  0  0  0  0  0
   11.6573    3.6622  -16.1451 O   0  0  0  0  0  0  0  0  0  0  0  0
   10.8861    1.2945  -15.1514 C   0  0  0  0  0  0  0  0  0  0  0  0
    9.7174    0.3133  -15.0402 C   0  0  0  0  0  0  0  0  0  0  0  0
    8.1181    3.2976  -14.5073 C   0  0  0  0  0  0  0  0  0  0  0  0
    7.3301    3.9481  -13.5494 C   0  0  0  0  0  0  0  0  0  0  0  0
    7.8573    5.0170  -12.7813 C   0  0  0  0  0  0  0  0  0  0  0  0
    7.0902    5.6728  -11.8475 O   0  0  0  0  0  0  0  0  0  0  0  0
    5.6863    5.4781  -11.8624 C   0  0  0  0  0  0  0  0  0  0  0  0
    9.1655    7.2015  -11.2097 N   0  0  0  0  0  0  0  0  0  0  0  0
    9.8670    4.6227   -8.2466 H   0  0  0  0  0  0  0  0  0  0  0  0
   10.4193    5.6593   -9.4945 H   0  0  0  0  0  0  0  0  0  0  0  0
   11.2822    5.6510   -7.9867 H   0  0  0  0  0  0  0  0  0  0  0  0
    9.0568    6.4761   -6.8487 H   0  0  0  0  0  0  0  0  0  0  0  0
    8.3447    6.5945   -8.4172 H   0  0  0  0  0  0  0  0  0  0  0  0
   11.3874    9.4261   -7.6774 H   0  0  0  0  0  0  0  0  0  0  0  0
   11.8748    7.7952   -7.9633 H   0  0  0  0  0  0  0  0  0  0  0  0
   11.1879    6.0442   -5.9522 H   0  0  0  0  0  0  0  0  0  0  0  0
   11.7602    5.7705   -3.5690 H   0  0  0  0  0  0  0  0  0  0  0  0
   11.4781   10.3654   -5.4999 H   0  0  0  0  0  0  0  0  0  0  0  0
   11.8002    9.5301   -0.7789 H   0  0  0  0  0  0  0  0  0  0  0  0
   13.4752    9.3722   -1.3647 H   0  0  0  0  0  0  0  0  0  0  0  0
    8.4275    8.9252   -9.3901 H   0  0  0  0  0  0  0  0  0  0  0  0
    9.9242    9.7722   -9.3035 H   0  0  0  0  0  0  0  0  0  0  0  0
   12.1301    8.4117  -10.7188 H   0  0  0  0  0  0  0  0  0  0  0  0
   11.9428    6.6503  -12.7732 H   0  0  0  0  0  0  0  0  0  0  0  0
   11.0181    5.0385  -14.1018 H   0  0  0  0  0  0  0  0  0  0  0  0
   11.6823    0.8632  -15.7589 H   0  0  0  0  0  0  0  0  0  0  0  0
   11.2867    1.5184  -14.1640 H   0  0  0  0  0  0  0  0  0  0  0  0
   10.0804   -0.6322  -14.6472 H   0  0  0  0  0  0  0  0  0  0  0  0
    8.9478    0.6700  -14.3568 H   0  0  0  0  0  0  0  0  0  0  0  0
    9.2583    0.1190  -16.0095 H   0  0  0  0  0  0  0  0  0  0  0  0
    7.6993    2.4966  -15.0984 H   0  0  0  0  0  0  0  0  0  0  0  0
    6.3149    3.6065  -13.4259 H   0  0  0  0  0  0  0  0  0  0  0  0
    5.2223    6.1675  -11.1610 H   0  0  0  0  0  0  0  0  0  0  0  0
    5.2861    5.6872  -12.8543 H   0  0  0  0  0  0  0  0  0  0  0  0
    5.4130    4.4672  -11.5587 H   0  0  0  0  0  0  0  0  0  0  0  0
    8.1700    7.0818  -11.0321 H   0  0  0  0  0  0  0  0  0  0  0  0
    9.1423    8.6072   -7.3480 H   0  0  0  0  0  0  0  0  0  0  0  0
  2  1  1  0
  3  2  1  0
  4  3  1  0
  5  4  1  0
  6  5  1  0
  7  6  2  0
  8  7  1  0
  9  8  2  0
 10  5  2  0
 10  9  1  0
 11  9  1  0
 12 11  1  0
 13  8  1  0
 13 12  1  0
 14  3  1  0
 15 14  1  0
 16 15  2  0
 17 16  1  0
 18 17  2  0
 19 18  1  0
 20 19  1  0
 21 20  2  0
 22 21  1  0
 23 22  2  0
 24 22  2  0
 25 22  1  0
 26 25  1  0
 27 21  1  0
 28 27  2  0
 29 19  2  0
 29 28  1  0
 30 29  1  0
 31 30  1  0
 32 15  1  0
 32 18  1  0
 33  1  1  0
 34  1  1  0
 35  1  1  0
 36  2  1  0
 37  2  1  0
 38  4  1  0
 39  4  1  0
 40  6  1  0
 41  7  1  0
 42 10  1  0
 43 12  1  0
 44 12  1  0
 45 14  1  0
 46 14  1  0
 47 16  1  0
 48 17  1  0
 49 20  1  0
 50 25  1  0
 51 25  1  0
 52 26  1  0
 53 26  1  0
 54 26  1  0
 55 27  1  0
 56 28  1  0
 57 31  1  0
 58 31  1  0
 59 31  1  0
 60 32  1  0
  3 61  1  1
M  CHG  1   3   1
M  END
>  <b_m_subgroup_collapsed>  (424) 
0

>  <r_i_docking_score>  (424) 
-8.0504229582478892

>  <s_m_subgroup_title>  (424) 
glide-dock_SP_D22_pv

>  <s_m_subgroupid>  (424) 
glide-dock_SP_D22_pv

>  <Molecule ChEMBL ID>  (424) 
CHEMBL113229

>  <Standard Type>  (424) 
Ki

>  <Standard Value>  (424) 
3.162

>  <label>  (424) 
1

$$$$
CHEMBL10289
     RDKit          3D

 37 39  0  0  1  0  0  0  0  0999 V2000
   12.2293    8.0583  -11.1080 C   0  0  0  0  0  0  0  0  0  0  0  0
   11.0147    7.8746  -10.5754 C   0  0  0  0  0  0  0  0  0  0  0  0
   10.2850    8.9094   -9.7392 C   0  0  0  0  0  0  0  0  0  0  0  0
   10.0594    8.5096   -8.3286 N   0  0  1  0  0  0  0  0  0  0  0  0
    9.2522    7.2977   -8.1164 C   0  0  0  0  0  0  0  0  0  0  0  0
    9.4738    6.9737   -6.6509 C   0  0  0  0  0  0  0  0  0  0  0  0
   10.9646    7.2455   -6.4793 C   0  0  2  0  0  0  0  0  0  0  0  0
   11.3808    7.4848   -5.0365 C   0  0  0  0  0  0  0  0  0  0  0  0
   11.6851    6.3955   -4.2150 C   0  0  0  0  0  0  0  0  0  0  0  0
   12.0945    6.5714   -2.8829 C   0  0  0  0  0  0  0  0  0  0  0  0
   12.2514    7.8600   -2.3698 C   0  0  0  0  0  0  0  0  0  0  0  0
   11.9427    8.9568   -3.1820 C   0  0  0  0  0  0  0  0  0  0  0  0
   12.0860   10.1833   -2.6469 O   0  0  0  0  0  0  0  0  0  0  0  0
   11.4783    8.7830   -4.5052 C   0  0  0  0  0  0  0  0  0  0  0  0
   11.0635    9.9364   -5.3901 C   0  0  0  0  0  0  0  0  0  0  0  0
   11.6251    9.7505   -6.7952 C   0  0  0  0  0  0  0  0  0  0  0  0
   11.2633    8.4046   -7.4605 C   0  0  2  0  0  0  0  0  0  0  0  0
   12.7859    8.9723  -10.9565 H   0  0  0  0  0  0  0  0  0  0  0  0
   12.6880    7.2949  -11.7179 H   0  0  0  0  0  0  0  0  0  0  0  0
   10.5008    6.9427  -10.7587 H   0  0  0  0  0  0  0  0  0  0  0  0
   10.8536    9.8393   -9.7519 H   0  0  0  0  0  0  0  0  0  0  0  0
    9.3210    9.1169  -10.2085 H   0  0  0  0  0  0  0  0  0  0  0  0
    8.2056    7.4636   -8.3529 H   0  0  0  0  0  0  0  0  0  0  0  0
    9.6057    6.4693   -8.7266 H   0  0  0  0  0  0  0  0  0  0  0  0
    8.8858    7.6579   -6.0380 H   0  0  0  0  0  0  0  0  0  0  0  0
    9.1856    5.9586   -6.3932 H   0  0  0  0  0  0  0  0  0  0  0  0
   11.5052    6.3677   -6.8371 H   0  0  0  0  0  0  0  0  0  0  0  0
   11.5888    5.4030   -4.6123 H   0  0  0  0  0  0  0  0  0  0  0  0
   12.3153    5.7206   -2.2576 H   0  0  0  0  0  0  0  0  0  0  0  0
   12.5912    8.0021   -1.3557 H   0  0  0  0  0  0  0  0  0  0  0  0
   12.7326   10.2746   -1.9573 H   0  0  0  0  0  0  0  0  0  0  0  0
    9.9782    9.9405   -5.4449 H   0  0  0  0  0  0  0  0  0  0  0  0
   11.3560   10.9014   -4.9809 H   0  0  0  0  0  0  0  0  0  0  0  0
   11.2872   10.5719   -7.4138 H   0  0  0  0  0  0  0  0  0  0  0  0
   12.7130    9.8207   -6.7288 H   0  0  0  0  0  0  0  0  0  0  0  0
   12.1140    8.1074   -8.0756 H   0  0  0  0  0  0  0  0  0  0  0  0
    9.5034    9.2446   -7.9200 H   0  0  0  0  0  0  0  0  0  0  0  0
  2  1  2  0
  3  2  1  0
  4  3  1  0
  5  4  1  0
  6  5  1  0
  7  6  1  0
  8  7  1  0
  9  8  2  0
 10  9  1  0
 11 10  2  0
 12 11  1  0
 13 12  1  0
 14  8  1  0
 14 12  2  0
 15 14  1  0
 16 15  1  0
 17  4  1  0
 17  7  1  0
 17 16  1  0
 18  1  1  0
 19  1  1  0
 20  2  1  0
 21  3  1  0
 22  3  1  0
 23  5  1  0
 24  5  1  0
 25  6  1  0
 26  6  1  0
  7 27  1  6
 28  9  1  0
 29 10  1  0
 30 11  1  0
 31 13  1  0
 32 15  1  0
 33 15  1  0
 34 16  1  0
 35 16  1  0
 17 36  1  6
  4 37  1  1
M  CHG  1   4   1
M  END
>  <b_m_subgroup_collapsed>  (425) 
0

>  <r_i_docking_score>  (425) 
-8.0495642056993493

>  <s_m_subgroup_title>  (425) 
glide-dock_SP_D22_pv

>  <s_m_subgroupid>  (425) 
glide-dock_SP_D22_pv

>  <Molecule ChEMBL ID>  (425) 
CHEMBL10289

>  <Standard Type>  (425) 
Ki

>  <Standard Value>  (425) 
75.0

>  <label>  (425) 
1

$$$$
CHEMBL3676920
     RDKit          3D

 70 74  0  0  1  0  0  0  0  0999 V2000
    4.8577   -5.0868  -18.2396 C   0  0  0  0  0  0  0  0  0  0  0  0
    4.3396   -3.5919  -19.1663 S   0  0  0  0  0  0  0  0  0  0  0  0
    2.8858   -3.4231  -19.0471 O   0  0  0  0  0  0  0  0  0  0  0  0
    4.9745   -3.6324  -20.4924 O   0  0  0  0  0  0  0  0  0  0  0  0
    5.1076   -2.2483  -18.2875 C   0  0  0  0  0  0  0  0  0  0  0  0
    6.1619   -1.4980  -18.7330 C   0  0  0  0  0  0  0  0  0  0  0  0
    6.6016   -0.5393  -17.7758 C   0  0  0  0  0  0  0  0  0  0  0  0
    5.8857   -0.5752  -16.6040 C   0  0  0  0  0  0  0  0  0  0  0  0
    6.0727    0.1619  -15.3344 C   0  0  0  0  0  0  0  0  0  0  0  0
    5.4819   -0.1623  -14.3028 O   0  0  0  0  0  0  0  0  0  0  0  0
    6.9279    1.1934  -15.3986 N   0  0  0  0  0  0  0  0  0  0  0  0
    7.4290    1.9448  -14.2569 C   0  0  1  0  0  0  0  0  0  0  0  0
    8.7926    2.5548  -14.6156 C   0  0  0  0  0  0  0  0  0  0  0  0
    9.3979    3.2959  -13.4198 C   0  0  0  0  0  0  0  0  0  0  0  0
    8.4613    4.3907  -12.8613 C   0  0  2  0  0  0  0  0  0  0  0  0
    9.0771    4.9660  -11.5682 C   0  0  0  0  0  0  0  0  0  0  0  0
    8.2645    6.1182  -10.9518 C   0  0  0  0  0  0  0  0  0  0  0  0
    8.8866    6.7516   -9.7615 N   0  0  2  0  0  0  0  0  0  0  0  0
   10.2147    7.3585  -10.0229 C   0  0  0  0  0  0  0  0  0  0  0  0
   10.6546    8.2342   -8.8447 C   0  0  0  0  0  0  0  0  0  0  0  0
   10.6768    7.4455   -7.5176 C   0  0  1  0  0  0  0  0  0  0  0  0
   11.0909    8.3094   -6.3548 C   0  0  0  0  0  0  0  0  0  0  0  0
   11.2857    9.6720   -6.3723 C   0  0  0  0  0  0  0  0  0  0  0  0
   11.6212   10.1724   -5.1563 O   0  0  0  0  0  0  0  0  0  0  0  0
   11.7266    9.1060   -4.3060 C   0  0  0  0  0  0  0  0  0  0  0  0
   12.0896    9.1471   -2.9531 C   0  0  0  0  0  0  0  0  0  0  0  0
   12.1866    7.9369   -2.2500 C   0  0  0  0  0  0  0  0  0  0  0  0
   11.9054    6.7230   -2.9077 C   0  0  0  0  0  0  0  0  0  0  0  0
   11.5230    6.7108   -4.2696 C   0  0  0  0  0  0  0  0  0  0  0  0
   11.4226    7.9118   -5.0080 C   0  0  0  0  0  0  0  0  0  0  0  0
    9.2953    6.7916   -7.3048 C   0  0  0  0  0  0  0  0  0  0  0  0
    8.8732    5.9378   -8.5194 C   0  0  0  0  0  0  0  0  0  0  0  0
    7.0030    3.9043  -12.6527 C   0  0  0  0  0  0  0  0  0  0  0  0
    6.4531    3.0539  -13.8122 C   0  0  0  0  0  0  0  0  0  0  0  0
    4.6167   -1.7802  -16.6784 S   0  0  0  0  0  0  0  0  0  0  0  0
    4.4206   -5.9676  -18.7072 H   0  0  0  0  0  0  0  0  0  0  0  0
    5.9431   -5.1583  -18.2419 H   0  0  0  0  0  0  0  0  0  0  0  0
    4.4918   -5.0166  -17.2156 H   0  0  0  0  0  0  0  0  0  0  0  0
    6.6354   -1.6159  -19.6965 H   0  0  0  0  0  0  0  0  0  0  0  0
    7.4405    0.1119  -17.9695 H   0  0  0  0  0  0  0  0  0  0  0  0
    7.3472    1.3962  -16.2936 H   0  0  0  0  0  0  0  0  0  0  0  0
    7.5665    1.2270  -13.4511 H   0  0  0  0  0  0  0  0  0  0  0  0
    9.4820    1.7716  -14.9370 H   0  0  0  0  0  0  0  0  0  0  0  0
    8.6882    3.2419  -15.4562 H   0  0  0  0  0  0  0  0  0  0  0  0
    9.6634    2.5732  -12.6472 H   0  0  0  0  0  0  0  0  0  0  0  0
   10.3442    3.7460  -13.7230 H   0  0  0  0  0  0  0  0  0  0  0  0
    8.4268    5.1884  -13.6060 H   0  0  0  0  0  0  0  0  0  0  0  0
    9.1898    4.1722  -10.8311 H   0  0  0  0  0  0  0  0  0  0  0  0
   10.0840    5.3064  -11.8084 H   0  0  0  0  0  0  0  0  0  0  0  0
    8.0963    6.8917  -11.7029 H   0  0  0  0  0  0  0  0  0  0  0  0
    7.2767    5.7720  -10.6567 H   0  0  0  0  0  0  0  0  0  0  0  0
   10.9553    6.5749  -10.1864 H   0  0  0  0  0  0  0  0  0  0  0  0
   10.1731    7.9623  -10.9309 H   0  0  0  0  0  0  0  0  0  0  0  0
   11.6425    8.6500   -9.0515 H   0  0  0  0  0  0  0  0  0  0  0  0
    9.9693    9.0810   -8.7651 H   0  0  0  0  0  0  0  0  0  0  0  0
   11.4092    6.6435   -7.6193 H   0  0  0  0  0  0  0  0  0  0  0  0
   11.2343   10.4170   -7.1468 H   0  0  0  0  0  0  0  0  0  0  0  0
   12.3075   10.0901   -2.4723 H   0  0  0  0  0  0  0  0  0  0  0  0
   12.4861    7.9455   -1.2128 H   0  0  0  0  0  0  0  0  0  0  0  0
   11.9770    5.7947   -2.3616 H   0  0  0  0  0  0  0  0  0  0  0  0
   11.3005    5.7727   -4.7547 H   0  0  0  0  0  0  0  0  0  0  0  0
    9.3050    6.1748   -6.4066 H   0  0  0  0  0  0  0  0  0  0  0  0
    8.5411    7.5631   -7.1297 H   0  0  0  0  0  0  0  0  0  0  0  0
    7.8719    5.5419   -8.3472 H   0  0  0  0  0  0  0  0  0  0  0  0
    9.5410    5.0808   -8.6261 H   0  0  0  0  0  0  0  0  0  0  0  0
    6.9053    3.3724  -11.7099 H   0  0  0  0  0  0  0  0  0  0  0  0
    6.3475    4.7680  -12.5377 H   0  0  0  0  0  0  0  0  0  0  0  0
    6.2367    3.7157  -14.6469 H   0  0  0  0  0  0  0  0  0  0  0  0
    5.4969    2.6181  -13.5196 H   0  0  0  0  0  0  0  0  0  0  0  0
    8.2348    7.5106   -9.5773 H   0  0  0  0  0  0  0  0  0  0  0  0
  2  1  1  0
  3  2  2  0
  4  2  2  0
  5  2  1  0
  6  5  2  0
  7  6  1  0
  8  7  2  0
  9  8  1  0
 10  9  2  0
 11  9  1  0
 12 11  1  0
 13 12  1  0
 14 13  1  0
 15 14  1  0
 16 15  1  0
 17 16  1  0
 18 17  1  0
 19 18  1  0
 20 19  1  0
 21 20  1  0
 22 21  1  0
 23 22  2  0
 24 23  1  0
 25 24  1  0
 26 25  2  0
 27 26  1  0
 28 27  2  0
 29 28  1  0
 30 22  1  0
 30 25  1  0
 30 29  2  0
 31 21  1  0
 32 18  1  0
 32 31  1  0
 33 15  1  0
 34 12  1  0
 34 33  1  0
 35  5  1  0
 35  8  1  0
 36  1  1  0
 37  1  1  0
 38  1  1  0
 39  6  1  0
 40  7  1  0
 41 11  1  0
 12 42  1  1
 43 13  1  0
 44 13  1  0
 45 14  1  0
 46 14  1  0
 15 47  1  6
 48 16  1  0
 49 16  1  0
 50 17  1  0
 51 17  1  0
 52 19  1  0
 53 19  1  0
 54 20  1  0
 55 20  1  0
 21 56  1  6
 57 23  1  0
 58 26  1  0
 59 27  1  0
 60 28  1  0
 61 29  1  0
 62 31  1  0
 63 31  1  0
 64 32  1  0
 65 32  1  0
 66 33  1  0
 67 33  1  0
 68 34  1  0
 69 34  1  0
 18 70  1  1
M  CHG  1  18   1
M  END
>  <b_m_subgroup_collapsed>  (426) 
0

>  <r_i_docking_score>  (426) 
-8.0495321658846493

>  <s_m_subgroup_title>  (426) 
glide-dock_SP_D22_pv

>  <s_m_subgroupid>  (426) 
glide-dock_SP_D22_pv

>  <Molecule ChEMBL ID>  (426) 
CHEMBL3676920

>  <Standard Type>  (426) 
Ki

>  <Standard Value>  (426) 
60.84

>  <label>  (426) 
1

$$$$
CHEMBL126429
     RDKit          3D

 47 50  0  0  1  0  0  0  0  0999 V2000
   12.0887    9.3786   -2.2928 Cl  0  0  0  0  0  0  0  0  0  0  0  0
   11.6850    8.9154   -3.9001 C   0  0  0  0  0  0  0  0  0  0  0  0
   11.2822    9.8689   -4.8443 C   0  0  0  0  0  0  0  0  0  0  0  0
   10.8331    9.4490   -6.1080 C   0  0  0  0  0  0  0  0  0  0  0  0
   10.7588    8.0765   -6.4576 C   0  0  0  0  0  0  0  0  0  0  0  0
   10.2309    7.6560   -7.7054 N   0  0  0  0  0  0  0  0  0  0  0  0
    9.2937    6.5332   -7.6995 C   0  0  0  0  0  0  0  0  0  0  0  0
    9.1968    5.8767   -9.0922 C   0  0  0  0  0  0  0  0  0  0  0  0
    8.8864    6.8594  -10.1681 N   0  0  0  0  0  0  0  0  0  0  0  0
    8.9513    6.2959  -11.5431 C   0  0  0  0  0  0  0  0  0  0  0  0
    8.1150    5.0550  -11.8022 C   0  0  1  0  0  0  0  0  0  0  0  0
    6.6691    5.0967  -12.2478 C   0  0  0  0  0  0  0  0  0  0  0  0
    7.7587    4.7758  -13.2460 C   0  0  2  0  0  0  0  0  0  0  0  0
    7.9739    3.4214  -13.8480 C   0  0  0  0  0  0  0  0  0  0  0  0
    9.2858    2.9464  -14.0602 C   0  0  0  0  0  0  0  0  0  0  0  0
    9.5036    1.6835  -14.6468 C   0  0  0  0  0  0  0  0  0  0  0  0
    8.4085    0.8806  -15.0197 C   0  0  0  0  0  0  0  0  0  0  0  0
    7.0968    1.3514  -14.8198 C   0  0  0  0  0  0  0  0  0  0  0  0
    6.8826    2.6200  -14.2453 C   0  0  0  0  0  0  0  0  0  0  0  0
    9.7585    8.0633  -10.1024 C   0  0  0  0  0  0  0  0  0  0  0  0
    9.8772    8.6672   -8.6974 C   0  0  0  0  0  0  0  0  0  0  0  0
   11.2308    7.1362   -5.5065 C   0  0  0  0  0  0  0  0  0  0  0  0
   11.6860    7.5584   -4.2406 C   0  0  0  0  0  0  0  0  0  0  0  0
   12.1716    6.4289   -3.0436 Cl  0  0  0  0  0  0  0  0  0  0  0  0
   11.2725   10.9178   -4.5893 H   0  0  0  0  0  0  0  0  0  0  0  0
   10.4995   10.2208   -6.7757 H   0  0  0  0  0  0  0  0  0  0  0  0
    8.3134    6.9010   -7.3936 H   0  0  0  0  0  0  0  0  0  0  0  0
    9.5717    5.7733   -6.9751 H   0  0  0  0  0  0  0  0  0  0  0  0
    8.4288    5.1021   -9.0653 H   0  0  0  0  0  0  0  0  0  0  0  0
   10.1424    5.3826   -9.3213 H   0  0  0  0  0  0  0  0  0  0  0  0
    9.9865    6.0494  -11.7840 H   0  0  0  0  0  0  0  0  0  0  0  0
    8.6465    7.0713  -12.2485 H   0  0  0  0  0  0  0  0  0  0  0  0
    8.4024    4.1851  -11.2150 H   0  0  0  0  0  0  0  0  0  0  0  0
    6.1998    6.0786  -12.2915 H   0  0  0  0  0  0  0  0  0  0  0  0
    6.0260    4.2882  -11.9041 H   0  0  0  0  0  0  0  0  0  0  0  0
    8.0125    5.5418  -13.9771 H   0  0  0  0  0  0  0  0  0  0  0  0
   10.1325    3.5514  -13.7715 H   0  0  0  0  0  0  0  0  0  0  0  0
   10.5123    1.3261  -14.7984 H   0  0  0  0  0  0  0  0  0  0  0  0
    8.5736   -0.0936  -15.4587 H   0  0  0  0  0  0  0  0  0  0  0  0
    6.2545    0.7409  -15.1130 H   0  0  0  0  0  0  0  0  0  0  0  0
    5.8723    2.9765  -14.1027 H   0  0  0  0  0  0  0  0  0  0  0  0
   10.7602    7.7945  -10.4414 H   0  0  0  0  0  0  0  0  0  0  0  0
    9.3875    8.8222  -10.7921 H   0  0  0  0  0  0  0  0  0  0  0  0
    8.9404    9.1474   -8.4084 H   0  0  0  0  0  0  0  0  0  0  0  0
   10.6462    9.4385   -8.7432 H   0  0  0  0  0  0  0  0  0  0  0  0
   11.2383    6.0804   -5.7250 H   0  0  0  0  0  0  0  0  0  0  0  0
    7.9210    7.1845  -10.0278 H   0  0  0  0  0  0  0  0  0  0  0  0
  2  1  1  0
  3  2  1  0
  4  3  2  0
  5  4  1  0
  6  5  1  0
  7  6  1  0
  8  7  1  0
  9  8  1  0
 10  9  1  0
 11 10  1  0
 12 11  1  0
 13 11  1  0
 13 12  1  0
 14 13  1  0
 15 14  2  0
 16 15  1  0
 17 16  2  0
 18 17  1  0
 19 14  1  0
 19 18  2  0
 20  9  1  0
 21  6  1  0
 21 20  1  0
 22  5  2  0
 23  2  2  0
 23 22  1  0
 24 23  1  0
 25  3  1  0
 26  4  1  0
 27  7  1  0
 28  7  1  0
 29  8  1  0
 30  8  1  0
 31 10  1  0
 32 10  1  0
 11 33  1  1
 34 12  1  0
 35 12  1  0
 13 36  1  6
 37 15  1  0
 38 16  1  0
 39 17  1  0
 40 18  1  0
 41 19  1  0
 42 20  1  0
 43 20  1  0
 44 21  1  0
 45 21  1  0
 46 22  1  0
 47  9  1  0
M  CHG  1   9   1
M  END
>  <b_m_subgroup_collapsed>  (427) 
0

>  <r_i_docking_score>  (427) 
-8.0484576717727006

>  <s_m_subgroup_title>  (427) 
glide-dock_SP_D22_pv

>  <s_m_subgroupid>  (427) 
glide-dock_SP_D22_pv

>  <Molecule ChEMBL ID>  (427) 
CHEMBL126429

>  <Standard Type>  (427) 
Ki

>  <Standard Value>  (427) 
93.0

>  <label>  (427) 
1

$$$$
CHEMBL59752
     RDKit          3D

 40 42  0  0  1  0  0  0  0  0999 V2000
   12.4860    7.0435   -2.0867 O   0  0  0  0  0  0  0  0  0  0  0  0
   12.0860    7.4693   -3.1621 C   0  0  0  0  0  0  0  0  0  0  0  0
   11.4425    6.5787   -4.2375 C   0  0  0  0  0  0  0  0  0  0  0  0
   11.2860    7.5967   -5.3335 C   0  0  0  0  0  0  0  0  0  0  0  0
   11.6974    8.8463   -4.8843 C   0  0  0  0  0  0  0  0  0  0  0  0
   11.7006    9.9629   -5.7281 C   0  0  0  0  0  0  0  0  0  0  0  0
   11.2860    9.7571   -7.0480 C   0  0  0  0  0  0  0  0  0  0  0  0
   10.8915    8.4981   -7.5292 C   0  0  0  0  0  0  0  0  0  0  0  0
   10.8774    7.3820   -6.6640 C   0  0  0  0  0  0  0  0  0  0  0  0
   10.5205    6.1158   -7.0480 O   0  0  0  0  0  0  0  0  0  0  0  0
   10.1432    5.8552   -8.3965 C   0  0  0  0  0  0  0  0  0  0  0  0
    8.7188    6.3622   -8.6746 C   0  0  0  0  0  0  0  0  0  0  0  0
    8.0860    5.7723   -9.8728 N   0  0  0  0  0  0  0  0  0  0  0  0
    8.7178    6.0363  -11.1778 C   0  0  0  0  0  0  0  0  0  0  0  0
    8.1271    5.1020  -12.2165 C   0  0  0  0  0  0  0  0  0  0  0  0
    6.7347    5.0938  -12.4555 C   0  0  0  0  0  0  0  0  0  0  0  0
    6.1773    4.1726  -13.3636 C   0  0  0  0  0  0  0  0  0  0  0  0
    7.0122    3.2748  -14.0553 C   0  0  0  0  0  0  0  0  0  0  0  0
    8.4046    3.3043  -13.8469 C   0  0  0  0  0  0  0  0  0  0  0  0
    8.9608    4.2077  -12.9215 C   0  0  0  0  0  0  0  0  0  0  0  0
   12.1496    8.7434   -3.5693 N   0  0  0  0  0  0  0  0  0  0  0  0
   10.4860    6.1723   -3.9138 H   0  0  0  0  0  0  0  0  0  0  0  0
   12.0924    5.7723   -4.5520 H   0  0  0  0  0  0  0  0  0  0  0  0
   12.0363   10.9448   -5.4469 H   0  0  0  0  0  0  0  0  0  0  0  0
   11.2860   10.5723   -7.7293 H   0  0  0  0  0  0  0  0  0  0  0  0
   10.6203    8.4268   -8.5702 H   0  0  0  0  0  0  0  0  0  0  0  0
   10.1676    4.7736   -8.5298 H   0  0  0  0  0  0  0  0  0  0  0  0
   10.8741    6.2580   -9.0983 H   0  0  0  0  0  0  0  0  0  0  0  0
    8.6776    7.4467   -8.7600 H   0  0  0  0  0  0  0  0  0  0  0  0
    8.0860    6.1067   -7.8243 H   0  0  0  0  0  0  0  0  0  0  0  0
    7.1910    6.2607   -9.9345 H   0  0  0  0  0  0  0  0  0  0  0  0
    9.7952    5.8823  -11.1253 H   0  0  0  0  0  0  0  0  0  0  0  0
    8.5470    7.0747  -11.4655 H   0  0  0  0  0  0  0  0  0  0  0  0
    6.0861    5.7789  -11.9262 H   0  0  0  0  0  0  0  0  0  0  0  0
    5.1105    4.1588  -13.5330 H   0  0  0  0  0  0  0  0  0  0  0  0
    6.5851    2.5703  -14.7541 H   0  0  0  0  0  0  0  0  0  0  0  0
    9.0447    2.6165  -14.3801 H   0  0  0  0  0  0  0  0  0  0  0  0
   10.0278    4.1998  -12.7513 H   0  0  0  0  0  0  0  0  0  0  0  0
   12.5309    9.5155   -3.0415 H   0  0  0  0  0  0  0  0  0  0  0  0
    7.9164    4.7840   -9.7501 H   0  0  0  0  0  0  0  0  0  0  0  0
  2  1  2  0
  3  2  1  0
  4  3  1  0
  5  4  1  0
  6  5  2  0
  7  6  1  0
  8  7  2  0
  9  4  2  0
  9  8  1  0
 10  9  1  0
 11 10  1  0
 12 11  1  0
 13 12  1  0
 14 13  1  0
 15 14  1  0
 16 15  2  0
 17 16  1  0
 18 17  2  0
 19 18  1  0
 20 15  1  0
 20 19  2  0
 21  2  1  0
 21  5  1  0
 22  3  1  0
 23  3  1  0
 24  6  1  0
 25  7  1  0
 26  8  1  0
 27 11  1  0
 28 11  1  0
 29 12  1  0
 30 12  1  0
 31 13  1  0
 32 14  1  0
 33 14  1  0
 34 16  1  0
 35 17  1  0
 36 18  1  0
 37 19  1  0
 38 20  1  0
 39 21  1  0
 40 13  1  0
M  CHG  1  13   1
M  END
>  <b_m_subgroup_collapsed>  (428) 
0

>  <r_i_docking_score>  (428) 
-8.0468015986466792

>  <s_m_subgroup_title>  (428) 
glide-dock_SP_D22_pv

>  <s_m_subgroupid>  (428) 
glide-dock_SP_D22_pv

>  <Molecule ChEMBL ID>  (428) 
CHEMBL59752

>  <Standard Type>  (428) 
Ki

>  <Standard Value>  (428) 
4.25

>  <label>  (428) 
1

$$$$
CHEMBL104514
     RDKit          3D

 51 54  0  0  1  0  0  0  0  0999 V2000
   11.6526    8.2321   -9.1772 O   0  0  0  0  0  0  0  0  0  0  0  0
   10.8869    7.3335   -8.8290 C   0  0  0  0  0  0  0  0  0  0  0  0
   10.6807    7.0406   -7.3187 C   0  0  0  0  0  0  0  0  0  0  0  0
   11.1485    8.1066   -6.4251 N   0  0  0  0  0  0  0  0  0  0  0  0
   10.9977    9.5421   -6.6711 C   0  0  0  0  0  0  0  0  0  0  0  0
   11.2349   10.2862   -5.3519 C   0  0  0  0  0  0  0  0  0  0  0  0
   11.5677    9.1654   -4.4225 C   0  0  0  0  0  0  0  0  0  0  0  0
   11.9419    9.2709   -3.0735 C   0  0  0  0  0  0  0  0  0  0  0  0
   12.1923    8.0810   -2.3612 C   0  0  0  0  0  0  0  0  0  0  0  0
   12.0615    6.8249   -2.9996 C   0  0  0  0  0  0  0  0  0  0  0  0
   11.6869    6.7417   -4.3609 C   0  0  0  0  0  0  0  0  0  0  0  0
   11.4558    7.9384   -5.0687 C   0  0  0  0  0  0  0  0  0  0  0  0
   10.2603    6.5733   -9.7580 N   0  0  0  0  0  0  0  0  0  0  0  0
    9.5640    5.3096   -9.4834 C   0  0  0  0  0  0  0  0  0  0  0  0
    8.1490    5.3594  -10.0544 C   0  0  0  0  0  0  0  0  0  0  0  0
    8.1695    5.6975  -11.4981 N   0  0  0  0  0  0  0  0  0  0  0  0
    6.8476    5.6177  -12.1585 C   0  0  0  0  0  0  0  0  0  0  0  0
    6.6598    4.2409  -12.7682 C   0  0  0  0  0  0  0  0  0  0  0  0
    7.4642    3.8069  -13.8443 C   0  0  0  0  0  0  0  0  0  0  0  0
    7.2913    2.5141  -14.3803 C   0  0  0  0  0  0  0  0  0  0  0  0
    6.3095    1.6545  -13.8493 C   0  0  0  0  0  0  0  0  0  0  0  0
    6.1101    0.0620  -14.4812 Cl  0  0  0  0  0  0  0  0  0  0  0  0
    5.4950    2.0925  -12.7904 C   0  0  0  0  0  0  0  0  0  0  0  0
    5.6820    3.3765  -12.2471 C   0  0  0  0  0  0  0  0  0  0  0  0
    8.8885    6.9593  -11.7784 C   0  0  0  0  0  0  0  0  0  0  0  0
   10.3048    6.9151  -11.1920 C   0  0  0  0  0  0  0  0  0  0  0  0
   11.1981    6.1106   -7.0824 H   0  0  0  0  0  0  0  0  0  0  0  0
    9.6192    6.8925   -7.1167 H   0  0  0  0  0  0  0  0  0  0  0  0
   11.7680    9.8327   -7.3789 H   0  0  0  0  0  0  0  0  0  0  0  0
   10.0335    9.7715   -7.1158 H   0  0  0  0  0  0  0  0  0  0  0  0
   10.3519   10.8263   -5.0137 H   0  0  0  0  0  0  0  0  0  0  0  0
   12.0700   10.9724   -5.4517 H   0  0  0  0  0  0  0  0  0  0  0  0
   12.0321   10.2351   -2.5942 H   0  0  0  0  0  0  0  0  0  0  0  0
   12.4797    8.1355   -1.3216 H   0  0  0  0  0  0  0  0  0  0  0  0
   12.2473    5.9186   -2.4411 H   0  0  0  0  0  0  0  0  0  0  0  0
   11.6011    5.7743   -4.8383 H   0  0  0  0  0  0  0  0  0  0  0  0
   10.0887    4.4853   -9.9633 H   0  0  0  0  0  0  0  0  0  0  0  0
    9.5166    5.0501   -8.4262 H   0  0  0  0  0  0  0  0  0  0  0  0
    7.6860    4.3835   -9.9150 H   0  0  0  0  0  0  0  0  0  0  0  0
    7.5906    6.1035   -9.4921 H   0  0  0  0  0  0  0  0  0  0  0  0
    6.0489    5.8458  -11.4504 H   0  0  0  0  0  0  0  0  0  0  0  0
    6.7634    6.3503  -12.9615 H   0  0  0  0  0  0  0  0  0  0  0  0
    8.2204    4.4579  -14.2585 H   0  0  0  0  0  0  0  0  0  0  0  0
    7.9145    2.1785  -15.1960 H   0  0  0  0  0  0  0  0  0  0  0  0
    4.7499    1.4323  -12.3797 H   0  0  0  0  0  0  0  0  0  0  0  0
    5.0782    3.7012  -11.4161 H   0  0  0  0  0  0  0  0  0  0  0  0
    8.9473    7.0846  -12.8555 H   0  0  0  0  0  0  0  0  0  0  0  0
    8.3433    7.8199  -11.3941 H   0  0  0  0  0  0  0  0  0  0  0  0
   10.7880    7.8723  -11.3934 H   0  0  0  0  0  0  0  0  0  0  0  0
   10.8853    6.1730  -11.7338 H   0  0  0  0  0  0  0  0  0  0  0  0
    8.7195    4.9744  -11.9371 H   0  0  0  0  0  0  0  0  0  0  0  0
  2  1  2  0
  3  2  1  0
  4  3  1  0
  5  4  1  0
  6  5  1  0
  7  6  1  0
  8  7  2  0
  9  8  1  0
 10  9  2  0
 11 10  1  0
 12  4  1  0
 12  7  1  0
 12 11  2  0
 13  2  1  0
 14 13  1  0
 15 14  1  0
 16 15  1  0
 17 16  1  0
 18 17  1  0
 19 18  1  0
 20 19  2  0
 21 20  1  0
 22 21  1  0
 23 21  2  0
 24 18  2  0
 24 23  1  0
 25 16  1  0
 26 13  1  0
 26 25  1  0
 27  3  1  0
 28  3  1  0
 29  5  1  0
 30  5  1  0
 31  6  1  0
 32  6  1  0
 33  8  1  0
 34  9  1  0
 35 10  1  0
 36 11  1  0
 37 14  1  0
 38 14  1  0
 39 15  1  0
 40 15  1  0
 41 17  1  0
 42 17  1  0
 43 19  1  0
 44 20  1  0
 45 23  1  0
 46 24  1  0
 47 25  1  0
 48 25  1  0
 49 26  1  0
 50 26  1  0
 51 16  1  0
M  CHG  1  16   1
M  END
>  <b_m_subgroup_collapsed>  (429) 
0

>  <r_i_docking_score>  (429) 
-8.0456734465912394

>  <s_m_subgroup_title>  (429) 
glide-dock_SP_D22_pv

>  <s_m_subgroupid>  (429) 
glide-dock_SP_D22_pv

>  <Molecule ChEMBL ID>  (429) 
CHEMBL104514

>  <Standard Type>  (429) 
Ki

>  <Standard Value>  (429) 
10000.0

>  <label>  (429) 
0

$$$$
CHEMBL3085820
     RDKit          3D

 69 71  0  0  1  0  0  0  0  0999 V2000
    4.7649   -0.2343  -19.0071 C   0  0  0  0  0  0  0  0  0  0  0  0
    6.0015   -0.9389  -18.4034 C   0  0  0  0  0  0  0  0  0  0  0  0
    7.2004   -0.9286  -19.3770 C   0  0  0  0  0  0  0  0  0  0  0  0
    5.6327   -2.3974  -18.0808 C   0  0  0  0  0  0  0  0  0  0  0  0
    6.3549   -0.3805  -17.1311 O   0  0  0  0  0  0  0  0  0  0  0  0
    6.7178    0.9054  -16.9301 C   0  0  0  0  0  0  0  0  0  0  0  0
    6.8969    1.7532  -17.8050 O   0  0  0  0  0  0  0  0  0  0  0  0
    6.7953    1.1082  -15.5640 N   0  0  0  0  0  0  0  0  0  0  0  0
    6.9294    2.4212  -14.9405 C   0  0  1  0  0  0  0  0  0  0  0  0
    6.3834    2.3780  -13.5141 C   0  0  0  0  0  0  0  0  0  0  0  0
    6.6500    3.6914  -12.7336 C   0  0  0  0  0  0  0  0  0  0  0  0
    8.1307    4.1423  -12.7760 C   0  0  2  0  0  0  0  0  0  0  0  0
    8.3847    5.4958  -12.0673 C   0  0  0  0  0  0  0  0  0  0  0  0
    8.6234    5.3672  -10.5489 C   0  0  0  0  0  0  0  0  0  0  0  0
    8.8870    6.6537   -9.8311 N   0  0  2  0  0  0  0  0  0  0  0  0
   10.0888    7.3808  -10.3329 C   0  0  0  0  0  0  0  0  0  0  0  0
   10.3027    8.7793   -9.7235 C   0  0  0  0  0  0  0  0  0  0  0  0
   11.0084    8.7727   -8.3596 C   0  0  0  0  0  0  0  0  0  0  0  0
   10.1713    8.3065   -7.2650 N   0  0  0  0  0  0  0  0  0  0  0  0
   10.8337    8.0044   -6.0602 C   0  0  0  0  0  0  0  0  0  0  0  0
   11.1267    6.6730   -5.7412 C   0  0  0  0  0  0  0  0  0  0  0  0
   11.6996    6.3590   -4.5038 C   0  0  0  0  0  0  0  0  0  0  0  0
   12.0210    7.3212   -3.5617 C   0  0  0  0  0  0  0  0  0  0  0  0
   11.7505    8.6441   -3.8715 C   0  0  0  0  0  0  0  0  0  0  0  0
   12.0840    9.7724   -2.6473 Cl  0  0  0  0  0  0  0  0  0  0  0  0
   11.1882    8.9968   -5.1168 C   0  0  0  0  0  0  0  0  0  0  0  0
   10.8865   10.6372   -5.4487 Cl  0  0  0  0  0  0  0  0  0  0  0  0
    8.8687    7.6831   -7.4901 C   0  0  0  0  0  0  0  0  0  0  0  0
    8.9036    6.4118   -8.3656 C   0  0  0  0  0  0  0  0  0  0  0  0
    8.6118    4.2104  -14.2342 C   0  0  0  0  0  0  0  0  0  0  0  0
    8.3996    2.8817  -14.9753 C   0  0  0  0  0  0  0  0  0  0  0  0
    3.9262   -0.2394  -18.3100 H   0  0  0  0  0  0  0  0  0  0  0  0
    4.9687    0.8024  -19.2733 H   0  0  0  0  0  0  0  0  0  0  0  0
    4.4329   -0.7358  -19.9164 H   0  0  0  0  0  0  0  0  0  0  0  0
    8.0726   -1.4059  -18.9287 H   0  0  0  0  0  0  0  0  0  0  0  0
    6.9646   -1.4710  -20.2928 H   0  0  0  0  0  0  0  0  0  0  0  0
    7.4900    0.0813  -19.6713 H   0  0  0  0  0  0  0  0  0  0  0  0
    4.8011   -2.4513  -17.3752 H   0  0  0  0  0  0  0  0  0  0  0  0
    5.3311   -2.9400  -18.9779 H   0  0  0  0  0  0  0  0  0  0  0  0
    6.4731   -2.9335  -17.6351 H   0  0  0  0  0  0  0  0  0  0  0  0
    6.6220    0.2969  -14.9871 H   0  0  0  0  0  0  0  0  0  0  0  0
    6.2881    3.1290  -15.4500 H   0  0  0  0  0  0  0  0  0  0  0  0
    6.8207    1.5010  -13.0472 H   0  0  0  0  0  0  0  0  0  0  0  0
    5.3093    2.1876  -13.5344 H   0  0  0  0  0  0  0  0  0  0  0  0
    6.3209    3.5736  -11.7006 H   0  0  0  0  0  0  0  0  0  0  0  0
    6.0262    4.4778  -13.1606 H   0  0  0  0  0  0  0  0  0  0  0  0
    8.7360    3.3809  -12.2863 H   0  0  0  0  0  0  0  0  0  0  0  0
    7.5687    6.1926  -12.2685 H   0  0  0  0  0  0  0  0  0  0  0  0
    9.2701    5.9311  -12.5260 H   0  0  0  0  0  0  0  0  0  0  0  0
    9.4553    4.6848  -10.3652 H   0  0  0  0  0  0  0  0  0  0  0  0
    7.7365    4.8977  -10.1199 H   0  0  0  0  0  0  0  0  0  0  0  0
    9.9730    7.5571  -11.3996 H   0  0  0  0  0  0  0  0  0  0  0  0
   10.9800    6.7639  -10.2131 H   0  0  0  0  0  0  0  0  0  0  0  0
    9.3717    9.3459   -9.6948 H   0  0  0  0  0  0  0  0  0  0  0  0
   10.9535    9.3329  -10.4001 H   0  0  0  0  0  0  0  0  0  0  0  0
   11.2900    9.7953   -8.1242 H   0  0  0  0  0  0  0  0  0  0  0  0
   11.9310    8.1924   -8.4059 H   0  0  0  0  0  0  0  0  0  0  0  0
   10.9287    5.8883   -6.4413 H   0  0  0  0  0  0  0  0  0  0  0  0
   11.9746    5.3724   -4.2501 H   0  0  0  0  0  0  0  0  0  0  0  0
   12.4638    7.0458   -2.6153 H   0  0  0  0  0  0  0  0  0  0  0  0
    8.4509    7.4152   -6.5175 H   0  0  0  0  0  0  0  0  0  0  0  0
    8.1737    8.4184   -7.8941 H   0  0  0  0  0  0  0  0  0  0  0  0
    7.9956    5.8622   -8.1186 H   0  0  0  0  0  0  0  0  0  0  0  0
    9.7283    5.7476   -8.1165 H   0  0  0  0  0  0  0  0  0  0  0  0
    8.0950    5.0229  -14.7402 H   0  0  0  0  0  0  0  0  0  0  0  0
    9.6733    4.4603  -14.2659 H   0  0  0  0  0  0  0  0  0  0  0  0
    9.0335    2.1165  -14.5226 H   0  0  0  0  0  0  0  0  0  0  0  0
    8.7377    2.9859  -16.0066 H   0  0  0  0  0  0  0  0  0  0  0  0
    8.0582    7.2304  -10.0002 H   0  0  0  0  0  0  0  0  0  0  0  0
  2  1  1  0
  3  2  1  0
  4  2  1  0
  5  2  1  0
  6  5  1  0
  7  6  2  0
  8  6  1  0
  9  8  1  0
 10  9  1  0
 11 10  1  0
 12 11  1  0
 13 12  1  0
 14 13  1  0
 15 14  1  0
 16 15  1  0
 17 16  1  0
 18 17  1  0
 19 18  1  0
 20 19  1  0
 21 20  2  0
 22 21  1  0
 23 22  2  0
 24 23  1  0
 25 24  1  0
 26 20  1  0
 26 24  2  0
 27 26  1  0
 28 19  1  0
 29 15  1  0
 29 28  1  0
 30 12  1  0
 31  9  1  0
 31 30  1  0
 32  1  1  0
 33  1  1  0
 34  1  1  0
 35  3  1  0
 36  3  1  0
 37  3  1  0
 38  4  1  0
 39  4  1  0
 40  4  1  0
 41  8  1  0
  9 42  1  6
 43 10  1  0
 44 10  1  0
 45 11  1  0
 46 11  1  0
 12 47  1  1
 48 13  1  0
 49 13  1  0
 50 14  1  0
 51 14  1  0
 52 16  1  0
 53 16  1  0
 54 17  1  0
 55 17  1  0
 56 18  1  0
 57 18  1  0
 58 21  1  0
 59 22  1  0
 60 23  1  0
 61 28  1  0
 62 28  1  0
 63 29  1  0
 64 29  1  0
 65 30  1  0
 66 30  1  0
 67 31  1  0
 68 31  1  0
 15 69  1  1
M  CHG  1  15   1
M  END
>  <b_m_subgroup_collapsed>  (430) 
0

>  <r_i_docking_score>  (430) 
-8.0442201109499596

>  <s_m_subgroup_title>  (430) 
glide-dock_SP_D22_pv

>  <s_m_subgroupid>  (430) 
glide-dock_SP_D22_pv

>  <Molecule ChEMBL ID>  (430) 
CHEMBL3085820

>  <Standard Type>  (430) 
Ki

>  <Standard Value>  (430) 
10.47

>  <label>  (430) 
1

$$$$
CHEMBL3758610
     RDKit          3D

 67 70  0  0  1  0  0  0  0  0999 V2000
    5.6902   -0.1388  -21.1482 C   0  0  0  0  0  0  0  0  0  0  0  0
    6.5330   -0.0222  -19.5224 S   0  0  0  0  0  0  0  0  0  0  0  0
    6.4858    1.3717  -19.0513 O   0  0  0  0  0  0  0  0  0  0  0  0
    7.8019   -0.7636  -19.5771 O   0  0  0  0  0  0  0  0  0  0  0  0
    5.4844   -0.9406  -18.4915 N   0  0  0  0  0  0  0  0  0  0  0  0
    5.2314   -0.7749  -17.1287 C   0  0  0  0  0  0  0  0  0  0  0  0
    4.0869   -1.3782  -16.5748 C   0  0  0  0  0  0  0  0  0  0  0  0
    3.7689   -1.1731  -15.2223 C   0  0  0  0  0  0  0  0  0  0  0  0
    4.5914   -0.3660  -14.4170 C   0  0  0  0  0  0  0  0  0  0  0  0
    5.7525    0.2342  -14.9486 C   0  0  0  0  0  0  0  0  0  0  0  0
    6.5220    1.1153  -14.1600 N   0  0  0  0  0  0  0  0  0  0  0  0
    7.9694    1.2253  -14.3215 C   0  0  0  0  0  0  0  0  0  0  0  0
    8.3962    2.6971  -14.4915 C   0  0  0  0  0  0  0  0  0  0  0  0
    7.8092    3.5897  -13.4473 N   0  0  0  0  0  0  0  0  0  0  0  0
    8.2072    5.0150  -13.5999 C   0  0  0  0  0  0  0  0  0  0  0  0
    9.6619    5.3224  -13.1870 C   0  0  0  0  0  0  0  0  0  0  0  0
    9.9173    5.6758  -11.7098 C   0  0  0  0  0  0  0  0  0  0  0  0
    8.9228    6.6330  -11.0277 C   0  0  0  0  0  0  0  0  0  0  0  0
    9.4910    7.2321   -9.8213 N   0  0  0  0  0  0  0  0  0  0  0  0
    9.7769    6.5940   -8.6746 C   0  0  0  0  0  0  0  0  0  0  0  0
    9.6625    5.3743   -8.5449 O   0  0  0  0  0  0  0  0  0  0  0  0
   10.2958    7.4494   -7.5447 C   0  0  0  0  0  0  0  0  0  0  0  0
   10.1669    8.8569   -7.5561 C   0  0  0  0  0  0  0  0  0  0  0  0
   10.6035    9.6213   -6.4582 C   0  0  0  0  0  0  0  0  0  0  0  0
   11.1339    9.0006   -5.3143 C   0  0  0  0  0  0  0  0  0  0  0  0
   11.4715    9.7697   -4.1859 C   0  0  0  0  0  0  0  0  0  0  0  0
   12.0143    9.1441   -3.0468 C   0  0  0  0  0  0  0  0  0  0  0  0
   12.1754    7.7433   -3.0229 C   0  0  0  0  0  0  0  0  0  0  0  0
   11.8013    6.9718   -4.1402 C   0  0  0  0  0  0  0  0  0  0  0  0
   11.2854    7.5993   -5.2922 C   0  0  0  0  0  0  0  0  0  0  0  0
   10.8848    6.8411   -6.4113 C   0  0  0  0  0  0  0  0  0  0  0  0
    6.3291    3.4543  -13.3701 C   0  0  0  0  0  0  0  0  0  0  0  0
    5.8690    1.9934  -13.1941 C   0  0  0  0  0  0  0  0  0  0  0  0
    6.0756    0.0066  -16.3077 C   0  0  0  0  0  0  0  0  0  0  0  0
    6.2709    0.4088  -21.8892 H   0  0  0  0  0  0  0  0  0  0  0  0
    5.6141   -1.1828  -21.4508 H   0  0  0  0  0  0  0  0  0  0  0  0
    4.6918    0.2938  -21.0773 H   0  0  0  0  0  0  0  0  0  0  0  0
    4.8917   -1.6147  -18.9538 H   0  0  0  0  0  0  0  0  0  0  0  0
    3.4354   -1.9924  -17.1817 H   0  0  0  0  0  0  0  0  0  0  0  0
    2.8878   -1.6297  -14.8025 H   0  0  0  0  0  0  0  0  0  0  0  0
    4.3114   -0.2114  -13.3882 H   0  0  0  0  0  0  0  0  0  0  0  0
    8.4560    0.7980  -13.4470 H   0  0  0  0  0  0  0  0  0  0  0  0
    8.3366    0.6331  -15.1572 H   0  0  0  0  0  0  0  0  0  0  0  0
    9.4849    2.7508  -14.4748 H   0  0  0  0  0  0  0  0  0  0  0  0
    8.0839    3.0350  -15.4788 H   0  0  0  0  0  0  0  0  0  0  0  0
    8.0856    5.2961  -14.6471 H   0  0  0  0  0  0  0  0  0  0  0  0
    7.5228    5.6635  -13.0504 H   0  0  0  0  0  0  0  0  0  0  0  0
   10.3383    4.5218  -13.4823 H   0  0  0  0  0  0  0  0  0  0  0  0
    9.9961    6.1723  -13.7737 H   0  0  0  0  0  0  0  0  0  0  0  0
   10.0048    4.7598  -11.1253 H   0  0  0  0  0  0  0  0  0  0  0  0
   10.8860    6.1723  -11.6788 H   0  0  0  0  0  0  0  0  0  0  0  0
    8.6550    7.4461  -11.7022 H   0  0  0  0  0  0  0  0  0  0  0  0
    7.9947    6.1165  -10.7749 H   0  0  0  0  0  0  0  0  0  0  0  0
    9.5924    8.2350   -9.8304 H   0  0  0  0  0  0  0  0  0  0  0  0
    9.7155    9.3715   -8.3899 H   0  0  0  0  0  0  0  0  0  0  0  0
   10.4865   10.6933   -6.4749 H   0  0  0  0  0  0  0  0  0  0  0  0
   11.2862   10.8352   -4.1849 H   0  0  0  0  0  0  0  0  0  0  0  0
   12.2805    9.7332   -2.1812 H   0  0  0  0  0  0  0  0  0  0  0  0
   12.5668    7.2585   -2.1405 H   0  0  0  0  0  0  0  0  0  0  0  0
   11.9104    5.8989   -4.1081 H   0  0  0  0  0  0  0  0  0  0  0  0
   10.9964    5.7721   -6.3813 H   0  0  0  0  0  0  0  0  0  0  0  0
    5.9407    4.0498  -12.5428 H   0  0  0  0  0  0  0  0  0  0  0  0
    5.8858    3.8605  -14.2816 H   0  0  0  0  0  0  0  0  0  0  0  0
    4.7850    1.9635  -13.2973 H   0  0  0  0  0  0  0  0  0  0  0  0
    6.0857    1.6343  -12.1889 H   0  0  0  0  0  0  0  0  0  0  0  0
    6.9420    0.4770  -16.7417 H   0  0  0  0  0  0  0  0  0  0  0  0
    8.1660    3.2783  -12.5566 H   0  0  0  0  0  0  0  0  0  0  0  0
  2  1  1  0
  3  2  2  0
  4  2  2  0
  5  2  1  0
  6  5  1  0
  7  6  2  0
  8  7  1  0
  9  8  2  0
 10  9  1  0
 11 10  1  0
 12 11  1  0
 13 12  1  0
 14 13  1  0
 15 14  1  0
 16 15  1  0
 17 16  1  0
 18 17  1  0
 19 18  1  0
 20 19  1  0
 21 20  2  0
 22 20  1  0
 23 22  1  0
 24 23  2  0
 25 24  1  0
 26 25  2  0
 27 26  1  0
 28 27  2  0
 29 28  1  0
 30 25  1  0
 30 29  2  0
 31 22  2  0
 31 30  1  0
 32 14  1  0
 33 11  1  0
 33 32  1  0
 34  6  1  0
 34 10  2  0
 35  1  1  0
 36  1  1  0
 37  1  1  0
 38  5  1  0
 39  7  1  0
 40  8  1  0
 41  9  1  0
 42 12  1  0
 43 12  1  0
 44 13  1  0
 45 13  1  0
 46 15  1  0
 47 15  1  0
 48 16  1  0
 49 16  1  0
 50 17  1  0
 51 17  1  0
 52 18  1  0
 53 18  1  0
 54 19  1  0
 55 23  1  0
 56 24  1  0
 57 26  1  0
 58 27  1  0
 59 28  1  0
 60 29  1  0
 61 31  1  0
 62 32  1  0
 63 32  1  0
 64 33  1  0
 65 33  1  0
 66 34  1  0
 67 14  1  0
M  CHG  1  14   1
M  END
>  <b_m_subgroup_collapsed>  (431) 
0

>  <r_i_docking_score>  (431) 
-8.0359788345531005

>  <s_m_subgroup_title>  (431) 
glide-dock_SP_D22_pv

>  <s_m_subgroupid>  (431) 
glide-dock_SP_D22_pv

>  <Molecule ChEMBL ID>  (431) 
CHEMBL3758610

>  <Standard Type>  (431) 
Ki

>  <Standard Value>  (431) 
55.0

>  <label>  (431) 
1

$$$$
CHEMBL4076086
     RDKit          3D

 70 74  0  0  1  0  0  0  0  0999 V2000
   12.2647    9.4876   -7.0469 C   0  0  0  0  0  0  0  0  0  0  0  0
   11.3054    8.4141   -7.0299 N   0  0  0  0  0  0  0  0  0  0  0  0
   10.6145    7.9029   -8.0609 C   0  0  0  0  0  0  0  0  0  0  0  0
   10.8073    8.5728   -9.6862 S   0  0  0  0  0  0  0  0  0  0  0  0
    9.2874    7.9964  -10.4831 C   0  0  0  0  0  0  0  0  0  0  0  0
    9.4845    6.6218  -11.1307 C   0  0  0  0  0  0  0  0  0  0  0  0
    8.4241    6.2921  -12.2014 C   0  0  0  0  0  0  0  0  0  0  0  0
    8.5339    4.9128  -12.7485 N   0  0  0  0  0  0  0  0  0  0  0  0
    7.5179    4.6441  -13.7956 C   0  0  0  0  0  0  0  0  0  0  0  0
    7.4995    3.1639  -14.2326 C   0  0  0  0  0  0  0  0  0  0  0  0
    8.8869    2.6090  -14.6442 C   0  0  0  0  0  0  0  0  0  0  0  0
    9.9157    3.0545  -13.5733 C   0  0  0  0  0  0  0  0  0  0  0  0
    9.8809    4.5485  -13.2550 C   0  0  0  0  0  0  0  0  0  0  0  0
    9.2913    3.0947  -16.0623 C   0  0  0  0  0  0  0  0  0  0  0  0
   10.5795    2.4182  -16.5794 C   0  0  0  0  0  0  0  0  0  0  0  0
   10.4612    0.9615  -16.5241 N   0  0  0  0  0  0  0  0  0  0  0  0
   10.1350    0.2875  -17.7186 C   0  0  0  0  0  0  0  0  0  0  0  0
   10.9036    0.5212  -18.8821 C   0  0  0  0  0  0  0  0  0  0  0  0
   10.5959   -0.1275  -20.0933 C   0  0  0  0  0  0  0  0  0  0  0  0
    9.5157   -1.0264  -20.1566 C   0  0  0  0  0  0  0  0  0  0  0  0
    8.7492   -1.2821  -19.0033 C   0  0  0  0  0  0  0  0  0  0  0  0
    7.6462   -2.2269  -19.0584 C   0  0  0  0  0  0  0  0  0  0  0  0
    6.7708   -2.9812  -19.1039 N   0  0  0  0  0  0  0  0  0  0  0  0
    9.0572   -0.6268  -17.7943 C   0  0  0  0  0  0  0  0  0  0  0  0
   10.0749    0.3998  -15.2316 C   0  0  0  0  0  0  0  0  0  0  0  0
    8.7910    1.0614  -14.6991 C   0  0  0  0  0  0  0  0  0  0  0  0
    9.8251    6.8875   -7.7093 N   0  0  0  0  0  0  0  0  0  0  0  0
   10.0011    6.7466   -6.3478 N   0  0  0  0  0  0  0  0  0  0  0  0
   10.8823    7.6833   -5.9870 C   0  0  0  0  0  0  0  0  0  0  0  0
   11.3655    7.8771   -4.6252 C   0  0  0  0  0  0  0  0  0  0  0  0
   11.7810    6.7684   -3.8640 C   0  0  0  0  0  0  0  0  0  0  0  0
   12.3398    6.9534   -2.5862 C   0  0  0  0  0  0  0  0  0  0  0  0
   12.4846    8.2507   -2.0565 C   0  0  0  0  0  0  0  0  0  0  0  0
   12.0356    9.3597   -2.7954 C   0  0  0  0  0  0  0  0  0  0  0  0
   11.4678    9.1733   -4.0681 C   0  0  0  0  0  0  0  0  0  0  0  0
   11.7021   10.4264   -7.0470 H   0  0  0  0  0  0  0  0  0  0  0  0
   12.9256    9.4525   -6.1830 H   0  0  0  0  0  0  0  0  0  0  0  0
   12.8975    9.3723   -7.9270 H   0  0  0  0  0  0  0  0  0  0  0  0
    8.4865    7.9840   -9.7489 H   0  0  0  0  0  0  0  0  0  0  0  0
    9.0166    8.7314  -11.2416 H   0  0  0  0  0  0  0  0  0  0  0  0
   10.4715    6.6327  -11.5901 H   0  0  0  0  0  0  0  0  0  0  0  0
    9.5013    5.8512  -10.3589 H   0  0  0  0  0  0  0  0  0  0  0  0
    7.4284    6.4051  -11.7713 H   0  0  0  0  0  0  0  0  0  0  0  0
    8.4852    7.0109  -13.0184 H   0  0  0  0  0  0  0  0  0  0  0  0
    6.5265    4.9345  -13.4445 H   0  0  0  0  0  0  0  0  0  0  0  0
    7.7577    5.2751  -14.6469 H   0  0  0  0  0  0  0  0  0  0  0  0
    7.0957    2.5716  -13.4154 H   0  0  0  0  0  0  0  0  0  0  0  0
    6.7850    3.0213  -15.0450 H   0  0  0  0  0  0  0  0  0  0  0  0
    9.6887    2.5723  -12.6312 H   0  0  0  0  0  0  0  0  0  0  0  0
   10.9299    2.7526  -13.8328 H   0  0  0  0  0  0  0  0  0  0  0  0
   10.1500    5.1552  -14.1200 H   0  0  0  0  0  0  0  0  0  0  0  0
   10.6449    4.7183  -12.5018 H   0  0  0  0  0  0  0  0  0  0  0  0
    8.4873    2.8708  -16.7644 H   0  0  0  0  0  0  0  0  0  0  0  0
    9.4144    4.1766  -16.0895 H   0  0  0  0  0  0  0  0  0  0  0  0
   10.7780    2.7664  -17.5924 H   0  0  0  0  0  0  0  0  0  0  0  0
   11.4429    2.7218  -15.9880 H   0  0  0  0  0  0  0  0  0  0  0  0
   11.7465    1.1960  -18.8516 H   0  0  0  0  0  0  0  0  0  0  0  0
   11.1931    0.0624  -20.9728 H   0  0  0  0  0  0  0  0  0  0  0  0
    9.2873   -1.5234  -21.0886 H   0  0  0  0  0  0  0  0  0  0  0  0
    8.4427   -0.8265  -16.9298 H   0  0  0  0  0  0  0  0  0  0  0  0
    9.9540   -0.6815  -15.2928 H   0  0  0  0  0  0  0  0  0  0  0  0
   10.8873    0.5619  -14.5248 H   0  0  0  0  0  0  0  0  0  0  0  0
    8.5612    0.6538  -13.7142 H   0  0  0  0  0  0  0  0  0  0  0  0
    7.9549    0.7745  -15.3375 H   0  0  0  0  0  0  0  0  0  0  0  0
   11.6934    5.7722   -4.2717 H   0  0  0  0  0  0  0  0  0  0  0  0
   12.6626    6.0955   -2.0141 H   0  0  0  0  0  0  0  0  0  0  0  0
   12.9090    8.3948   -1.0737 H   0  0  0  0  0  0  0  0  0  0  0  0
   12.0897   10.3552   -2.3812 H   0  0  0  0  0  0  0  0  0  0  0  0
   11.1207   10.0347   -4.6189 H   0  0  0  0  0  0  0  0  0  0  0  0
    8.3351    4.2935  -11.9748 H   0  0  0  0  0  0  0  0  0  0  0  0
  2  1  1  0
  3  2  1  0
  4  3  1  0
  5  4  1  0
  6  5  1  0
  7  6  1  0
  8  7  1  0
  9  8  1  0
 10  9  1  0
 11 10  1  0
 12 11  1  0
 13  8  1  0
 13 12  1  0
 14 11  1  0
 15 14  1  0
 16 15  1  0
 17 16  1  0
 18 17  2  0
 19 18  1  0
 20 19  2  0
 21 20  1  0
 22 21  1  0
 23 22  3  0
 24 17  1  0
 24 21  2  0
 25 16  1  0
 26 11  1  0
 26 25  1  0
 27  3  2  0
 28 27  1  0
 29  2  1  0
 29 28  2  0
 30 29  1  0
 31 30  2  0
 32 31  1  0
 33 32  2  0
 34 33  1  0
 35 30  1  0
 35 34  2  0
 36  1  1  0
 37  1  1  0
 38  1  1  0
 39  5  1  0
 40  5  1  0
 41  6  1  0
 42  6  1  0
 43  7  1  0
 44  7  1  0
 45  9  1  0
 46  9  1  0
 47 10  1  0
 48 10  1  0
 49 12  1  0
 50 12  1  0
 51 13  1  0
 52 13  1  0
 53 14  1  0
 54 14  1  0
 55 15  1  0
 56 15  1  0
 57 18  1  0
 58 19  1  0
 59 20  1  0
 60 24  1  0
 61 25  1  0
 62 25  1  0
 63 26  1  0
 64 26  1  0
 65 31  1  0
 66 32  1  0
 67 33  1  0
 68 34  1  0
 69 35  1  0
 70  8  1  0
M  CHG  1   8   1
M  END
>  <b_m_subgroup_collapsed>  (432) 
0

>  <r_i_docking_score>  (432) 
-8.0345203084294106

>  <s_m_subgroup_title>  (432) 
glide-dock_SP_D22_pv

>  <s_m_subgroupid>  (432) 
glide-dock_SP_D22_pv

>  <Molecule ChEMBL ID>  (432) 
CHEMBL4076086

>  <Standard Type>  (432) 
Ki

>  <Standard Value>  (432) 
57101.0

>  <label>  (432) 
0

$$$$
CHEMBL542946
     RDKit          3D

 37 39  0  0  1  0  0  0  0  0999 V2000
    8.5312    5.6818  -10.4926 C   0  0  0  0  0  0  0  0  0  0  0  0
    8.8860    6.7281   -9.5100 N   0  0  1  0  0  0  0  0  0  0  0  0
    8.7083    6.2759   -8.1049 C   0  0  0  0  0  0  0  0  0  0  0  0
    9.0706    7.3893   -7.0911 C   0  0  0  0  0  0  0  0  0  0  0  0
   10.5318    7.8673   -7.2775 C   0  0  2  0  0  0  0  0  0  0  0  0
   11.5138    6.7002   -7.0469 C   0  0  0  0  0  0  0  0  0  0  0  0
   11.5574    6.2227   -5.5881 C   0  0  0  0  0  0  0  0  0  0  0  0
   11.6860    7.3257   -4.5712 C   0  0  0  0  0  0  0  0  0  0  0  0
   12.1593    7.0176   -3.2786 C   0  0  0  0  0  0  0  0  0  0  0  0
   12.3672    8.0428   -2.3393 C   0  0  0  0  0  0  0  0  0  0  0  0
   12.0723    9.3723   -2.6822 C   0  0  0  0  0  0  0  0  0  0  0  0
   11.5447    9.6723   -3.9523 C   0  0  0  0  0  0  0  0  0  0  0  0
   11.3610    8.6530   -4.9130 C   0  0  0  0  0  0  0  0  0  0  0  0
   10.9091    9.0047   -6.2841 C   0  0  0  0  0  0  0  0  0  0  0  0
   10.8860   10.1723   -6.6469 O   0  0  0  0  0  0  0  0  0  0  0  0
   10.6237    8.3784   -8.7422 C   0  0  0  0  0  0  0  0  0  0  0  0
   10.2241    7.3128   -9.7812 C   0  0  0  0  0  0  0  0  0  0  0  0
    9.1707    4.8040  -10.3888 H   0  0  0  0  0  0  0  0  0  0  0  0
    7.4962    5.3723  -10.3644 H   0  0  0  0  0  0  0  0  0  0  0  0
    8.6286    6.0608  -11.5105 H   0  0  0  0  0  0  0  0  0  0  0  0
    7.6860    5.9552   -7.9506 H   0  0  0  0  0  0  0  0  0  0  0  0
    9.2826    5.3684   -7.9293 H   0  0  0  0  0  0  0  0  0  0  0  0
    8.8985    7.0286   -6.0786 H   0  0  0  0  0  0  0  0  0  0  0  0
    8.3834    8.2283   -7.2172 H   0  0  0  0  0  0  0  0  0  0  0  0
   11.2959    5.8374   -7.6695 H   0  0  0  0  0  0  0  0  0  0  0  0
   12.4860    7.0261   -7.3953 H   0  0  0  0  0  0  0  0  0  0  0  0
   12.3508    5.4883   -5.4604 H   0  0  0  0  0  0  0  0  0  0  0  0
   10.6073    5.7723   -5.3341 H   0  0  0  0  0  0  0  0  0  0  0  0
   12.3947    5.9964   -3.0145 H   0  0  0  0  0  0  0  0  0  0  0  0
   12.7543    7.8125   -1.3588 H   0  0  0  0  0  0  0  0  0  0  0  0
   12.2198   10.1618   -1.9611 H   0  0  0  0  0  0  0  0  0  0  0  0
   11.2860   10.6946   -4.1867 H   0  0  0  0  0  0  0  0  0  0  0  0
    9.9699    9.2425   -8.8771 H   0  0  0  0  0  0  0  0  0  0  0  0
   11.6328    8.7332   -8.9597 H   0  0  0  0  0  0  0  0  0  0  0  0
   10.2203    7.7637  -10.7745 H   0  0  0  0  0  0  0  0  0  0  0  0
   10.9702    6.5196   -9.8122 H   0  0  0  0  0  0  0  0  0  0  0  0
    8.1860    7.4523   -9.6561 H   0  0  0  0  0  0  0  0  0  0  0  0
  2  1  1  0
  3  2  1  0
  4  3  1  0
  5  4  1  1
  6  5  1  0
  7  6  1  0
  8  7  1  0
  9  8  2  0
 10  9  1  0
 11 10  2  0
 12 11  1  0
 13  8  1  0
 13 12  2  0
 14  5  1  0
 14 13  1  0
 15 14  2  0
 16  5  1  0
 17  2  1  0
 17 16  1  0
 18  1  1  0
 19  1  1  0
 20  1  1  0
 21  3  1  0
 22  3  1  0
 23  4  1  0
 24  4  1  0
 25  6  1  0
 26  6  1  0
 27  7  1  0
 28  7  1  0
 29  9  1  0
 30 10  1  0
 31 11  1  0
 32 12  1  0
 33 16  1  0
 34 16  1  0
 35 17  1  0
 36 17  1  0
  2 37  1  6
M  CHG  1   2   1
M  END
>  <b_m_subgroup_collapsed>  (433) 
0

>  <r_i_docking_score>  (433) 
-8.0271279676177194

>  <s_m_subgroup_title>  (433) 
glide-dock_SP_D22_pv

>  <s_m_subgroupid>  (433) 
glide-dock_SP_D22_pv

>  <Molecule ChEMBL ID>  (433) 
CHEMBL542946

>  <Standard Type>  (433) 
Ki

>  <Standard Value>  (433) 
10000.0

>  <label>  (433) 
0

$$$$
CHEMBL1940406
     RDKit          3D

 48 50  0  0  1  0  0  0  0  0999 V2000
    4.3023   -0.2285  -13.4468 F   0  0  0  0  0  0  0  0  0  0  0  0
    5.3466    0.5988  -13.6776 C   0  0  0  0  0  0  0  0  0  0  0  0
    6.4770    0.1357  -14.3751 C   0  0  0  0  0  0  0  0  0  0  0  0
    7.5417    1.0157  -14.6501 C   0  0  0  0  0  0  0  0  0  0  0  0
    7.4877    2.3668  -14.2473 C   0  0  0  0  0  0  0  0  0  0  0  0
    8.5788    3.1545  -14.5592 O   0  0  0  0  0  0  0  0  0  0  0  0
    8.5308    4.5458  -14.2653 C   0  0  0  0  0  0  0  0  0  0  0  0
    8.8526    4.8479  -12.7946 C   0  0  0  0  0  0  0  0  0  0  0  0
    8.0401    6.0502  -12.2710 C   0  0  0  0  0  0  0  0  0  0  0  0
    8.4860    6.5714  -10.9575 N   0  0  2  0  0  0  0  0  0  0  0  0
    9.6369    7.5021  -11.0542 C   0  0  0  0  0  0  0  0  0  0  0  0
    9.9189    8.1667   -9.7006 C   0  0  0  0  0  0  0  0  0  0  0  0
   10.1706    7.1154   -8.5980 C   0  0  1  0  0  0  0  0  0  0  0  0
   10.5302    7.6989   -7.2302 C   0  0  0  0  0  0  0  0  0  0  0  0
   10.4855    9.0857   -6.9691 C   0  0  0  0  0  0  0  0  0  0  0  0
   10.9013    9.6052   -5.7286 C   0  0  0  0  0  0  0  0  0  0  0  0
   11.3528    8.7338   -4.7218 C   0  0  0  0  0  0  0  0  0  0  0  0
   11.9345    9.3680   -3.2271 Cl  0  0  0  0  0  0  0  0  0  0  0  0
   11.3480    7.3444   -4.9487 C   0  0  0  0  0  0  0  0  0  0  0  0
   10.9577    6.8355   -6.2013 C   0  0  0  0  0  0  0  0  0  0  0  0
    8.9627    6.1620   -8.5337 C   0  0  0  0  0  0  0  0  0  0  0  0
    8.6752    5.5335   -9.9089 C   0  0  0  0  0  0  0  0  0  0  0  0
    6.3441    2.8196  -13.5369 C   0  0  0  0  0  0  0  0  0  0  0  0
    5.2921    1.9327  -13.2369 C   0  0  0  0  0  0  0  0  0  0  0  0
    6.5244   -0.8925  -14.7055 H   0  0  0  0  0  0  0  0  0  0  0  0
    8.4071    0.6514  -15.1844 H   0  0  0  0  0  0  0  0  0  0  0  0
    9.2598    5.0508  -14.8998 H   0  0  0  0  0  0  0  0  0  0  0  0
    7.5725    4.9663  -14.5549 H   0  0  0  0  0  0  0  0  0  0  0  0
    8.6312    3.9712  -12.1849 H   0  0  0  0  0  0  0  0  0  0  0  0
    9.9246    5.0202  -12.6974 H   0  0  0  0  0  0  0  0  0  0  0  0
    8.0491    6.8631  -12.9981 H   0  0  0  0  0  0  0  0  0  0  0  0
    6.9938    5.7611  -12.1684 H   0  0  0  0  0  0  0  0  0  0  0  0
   10.5212    6.9647  -11.3995 H   0  0  0  0  0  0  0  0  0  0  0  0
    9.4251    8.2758  -11.7935 H   0  0  0  0  0  0  0  0  0  0  0  0
   10.7830    8.8251   -9.8015 H   0  0  0  0  0  0  0  0  0  0  0  0
    9.0660    8.7945   -9.4352 H   0  0  0  0  0  0  0  0  0  0  0  0
   11.0402    6.5311   -8.9020 H   0  0  0  0  0  0  0  0  0  0  0  0
   10.1522    9.7721   -7.7249 H   0  0  0  0  0  0  0  0  0  0  0  0
   10.8910   10.6714   -5.5566 H   0  0  0  0  0  0  0  0  0  0  0  0
   11.6872    6.6688   -4.1770 H   0  0  0  0  0  0  0  0  0  0  0  0
   11.0081    5.7724   -6.3761 H   0  0  0  0  0  0  0  0  0  0  0  0
    9.1427    5.3637   -7.8139 H   0  0  0  0  0  0  0  0  0  0  0  0
    8.0866    6.6987   -8.1743 H   0  0  0  0  0  0  0  0  0  0  0  0
    7.7847    4.9073   -9.8538 H   0  0  0  0  0  0  0  0  0  0  0  0
    9.5063    4.8788  -10.1753 H   0  0  0  0  0  0  0  0  0  0  0  0
    6.2504    3.8373  -13.1955 H   0  0  0  0  0  0  0  0  0  0  0  0
    4.4262    2.2850  -12.6961 H   0  0  0  0  0  0  0  0  0  0  0  0
    7.6708    7.1281  -10.6457 H   0  0  0  0  0  0  0  0  0  0  0  0
  2  1  1  0
  3  2  1  0
  4  3  2  0
  5  4  1  0
  6  5  1  0
  7  6  1  0
  8  7  1  0
  9  8  1  0
 10  9  1  0
 11 10  1  0
 12 11  1  0
 13 12  1  0
 14 13  1  0
 15 14  2  0
 16 15  1  0
 17 16  2  0
 18 17  1  0
 19 17  1  0
 20 14  1  0
 20 19  2  0
 21 13  1  0
 22 10  1  0
 22 21  1  0
 23  5  2  0
 24  2  2  0
 24 23  1  0
 25  3  1  0
 26  4  1  0
 27  7  1  0
 28  7  1  0
 29  8  1  0
 30  8  1  0
 31  9  1  0
 32  9  1  0
 33 11  1  0
 34 11  1  0
 35 12  1  0
 36 12  1  0
 13 37  1  6
 38 15  1  0
 39 16  1  0
 40 19  1  0
 41 20  1  0
 42 21  1  0
 43 21  1  0
 44 22  1  0
 45 22  1  0
 46 23  1  0
 47 24  1  0
 10 48  1  1
M  CHG  1  10   1
M  END
>  <b_m_subgroup_collapsed>  (434) 
0

>  <r_i_docking_score>  (434) 
-8.0269362735219598

>  <s_m_subgroup_title>  (434) 
glide-dock_SP_D22_pv

>  <s_m_subgroupid>  (434) 
glide-dock_SP_D22_pv

>  <Molecule ChEMBL ID>  (434) 
CHEMBL1940406

>  <Standard Type>  (434) 
Ki

>  <Standard Value>  (434) 
41.0

>  <label>  (434) 
1

$$$$
CHEMBL238875
     RDKit          3D

 71 74  0  0  1  0  0  0  0  0999 V2000
    6.3257    0.2582  -19.0323 C   0  0  0  0  0  0  0  0  0  0  0  0
    7.4020    0.4611  -18.1263 O   0  0  0  0  0  0  0  0  0  0  0  0
    7.1961    0.1802  -16.7891 C   0  0  0  0  0  0  0  0  0  0  0  0
    5.9442   -0.2284  -16.2584 C   0  0  0  0  0  0  0  0  0  0  0  0
    5.7796   -0.4332  -14.8743 C   0  0  0  0  0  0  0  0  0  0  0  0
    6.8615   -0.2276  -14.0011 C   0  0  0  0  0  0  0  0  0  0  0  0
    8.1078    0.1722  -14.5144 C   0  0  0  0  0  0  0  0  0  0  0  0
    8.2896    0.3605  -15.9019 C   0  0  0  0  0  0  0  0  0  0  0  0
    9.5541    0.8281  -16.3878 N   0  0  0  0  0  0  0  0  0  0  0  0
   10.2801    0.0437  -17.2328 C   0  0  0  0  0  0  0  0  0  0  0  0
   11.4534    0.6420  -18.0207 C   0  0  0  0  0  0  0  0  0  0  0  0
   10.0403   -1.1504  -17.4117 O   0  0  0  0  0  0  0  0  0  0  0  0
    9.9832    2.1996  -16.0089 C   0  0  1  0  0  0  0  0  0  0  0  0
    8.8412    3.0422  -15.4002 C   0  0  0  0  0  0  0  0  0  0  0  0
    9.3004    4.4692  -15.0743 C   0  0  0  0  0  0  0  0  0  0  0  0
   10.4191    4.3954  -14.0971 N   0  0  2  0  0  0  0  0  0  0  0  0
   10.7936    5.6968  -13.4938 C   0  0  0  0  0  0  0  0  0  0  0  0
    9.7744    6.1211  -12.4128 C   0  0  0  0  0  0  0  0  0  0  0  0
   10.3434    7.0727  -11.3473 C   0  0  0  0  0  0  0  0  0  0  0  0
    9.2857    7.4959  -10.3063 C   0  0  0  0  0  0  0  0  0  0  0  0
    9.8820    7.9878   -9.0674 N   0  0  0  0  0  0  0  0  0  0  0  0
   10.3424    7.1889   -8.0852 C   0  0  0  0  0  0  0  0  0  0  0  0
   10.3720    5.9613   -8.1935 O   0  0  0  0  0  0  0  0  0  0  0  0
   10.8196    7.8519   -6.8144 C   0  0  0  0  0  0  0  0  0  0  0  0
   10.8331    9.2566   -6.6548 C   0  0  0  0  0  0  0  0  0  0  0  0
   11.2640    9.8562   -5.4555 C   0  0  0  0  0  0  0  0  0  0  0  0
   11.6813    9.0510   -4.3809 C   0  0  0  0  0  0  0  0  0  0  0  0
   12.0788    9.6204   -3.1542 C   0  0  0  0  0  0  0  0  0  0  0  0
   12.4857    8.8008   -2.0882 C   0  0  0  0  0  0  0  0  0  0  0  0
   12.4860    7.4041   -2.2479 C   0  0  0  0  0  0  0  0  0  0  0  0
   12.0853    6.8324   -3.4623 C   0  0  0  0  0  0  0  0  0  0  0  0
   11.6831    7.6464   -4.5316 C   0  0  0  0  0  0  0  0  0  0  0  0
   11.2629    7.0551   -5.7381 C   0  0  0  0  0  0  0  0  0  0  0  0
   11.5746    3.6478  -14.6549 C   0  0  0  0  0  0  0  0  0  0  0  0
   11.1684    2.2095  -15.0219 C   0  0  0  0  0  0  0  0  0  0  0  0
    6.6629    0.4977  -20.0418 H   0  0  0  0  0  0  0  0  0  0  0  0
    5.9929   -0.7806  -19.0292 H   0  0  0  0  0  0  0  0  0  0  0  0
    5.4847    0.9134  -18.8010 H   0  0  0  0  0  0  0  0  0  0  0  0
    5.0838   -0.3805  -16.8933 H   0  0  0  0  0  0  0  0  0  0  0  0
    4.8208   -0.7444  -14.4894 H   0  0  0  0  0  0  0  0  0  0  0  0
    6.7361   -0.3837  -12.9381 H   0  0  0  0  0  0  0  0  0  0  0  0
    8.9327    0.3260  -13.8341 H   0  0  0  0  0  0  0  0  0  0  0  0
   11.1326    1.5051  -18.6024 H   0  0  0  0  0  0  0  0  0  0  0  0
   12.2841    0.9284  -17.3766 H   0  0  0  0  0  0  0  0  0  0  0  0
   11.8345   -0.0944  -18.7274 H   0  0  0  0  0  0  0  0  0  0  0  0
   10.2822    2.7235  -16.9178 H   0  0  0  0  0  0  0  0  0  0  0  0
    7.9870    2.9726  -16.0754 H   0  0  0  0  0  0  0  0  0  0  0  0
    8.4969    2.6266  -14.4555 H   0  0  0  0  0  0  0  0  0  0  0  0
    8.4667    5.0305  -14.6519 H   0  0  0  0  0  0  0  0  0  0  0  0
    9.6216    4.9940  -15.9752 H   0  0  0  0  0  0  0  0  0  0  0  0
   11.7811    5.5970  -13.0469 H   0  0  0  0  0  0  0  0  0  0  0  0
   10.9048    6.4549  -14.2686 H   0  0  0  0  0  0  0  0  0  0  0  0
    8.9025    6.5741  -12.8838 H   0  0  0  0  0  0  0  0  0  0  0  0
    9.4079    5.2347  -11.8973 H   0  0  0  0  0  0  0  0  0  0  0  0
   11.1681    6.5732  -10.8376 H   0  0  0  0  0  0  0  0  0  0  0  0
   10.7706    7.9589  -11.8180 H   0  0  0  0  0  0  0  0  0  0  0  0
    8.6473    8.2737  -10.7242 H   0  0  0  0  0  0  0  0  0  0  0  0
    8.6228    6.6582  -10.0694 H   0  0  0  0  0  0  0  0  0  0  0  0
    9.8670    8.9840   -8.9097 H   0  0  0  0  0  0  0  0  0  0  0  0
   10.4940    9.8963   -7.4467 H   0  0  0  0  0  0  0  0  0  0  0  0
   11.2565   10.9328   -5.3632 H   0  0  0  0  0  0  0  0  0  0  0  0
   12.0565   10.6870   -3.0096 H   0  0  0  0  0  0  0  0  0  0  0  0
   12.7891    9.2443   -1.1507 H   0  0  0  0  0  0  0  0  0  0  0  0
   12.7983    6.7595   -1.4471 H   0  0  0  0  0  0  0  0  0  0  0  0
   12.0855    5.7662   -3.5713 H   0  0  0  0  0  0  0  0  0  0  0  0
   11.2692    5.9775   -5.8268 H   0  0  0  0  0  0  0  0  0  0  0  0
   12.3856    3.6176  -13.9252 H   0  0  0  0  0  0  0  0  0  0  0  0
   11.9624    4.1705  -15.5303 H   0  0  0  0  0  0  0  0  0  0  0  0
   10.9032    1.6592  -14.1184 H   0  0  0  0  0  0  0  0  0  0  0  0
   12.0338    1.7117  -15.4464 H   0  0  0  0  0  0  0  0  0  0  0  0
   10.0865    3.8289  -13.3295 H   0  0  0  0  0  0  0  0  0  0  0  0
  2  1  1  0
  3  2  1  0
  4  3  2  0
  5  4  1  0
  6  5  2  0
  7  6  1  0
  8  3  1  0
  8  7  2  0
  9  8  1  0
 10  9  1  0
 11 10  1  0
 12 10  2  0
 13  9  1  0
 14 13  1  0
 15 14  1  0
 16 15  1  0
 17 16  1  0
 18 17  1  0
 19 18  1  0
 20 19  1  0
 21 20  1  0
 22 21  1  0
 23 22  2  0
 24 22  1  0
 25 24  1  0
 26 25  2  0
 27 26  1  0
 28 27  2  0
 29 28  1  0
 30 29  2  0
 31 30  1  0
 32 27  1  0
 32 31  2  0
 33 24  2  0
 33 32  1  0
 34 16  1  0
 35 13  1  0
 35 34  1  0
 36  1  1  0
 37  1  1  0
 38  1  1  0
 39  4  1  0
 40  5  1  0
 41  6  1  0
 42  7  1  0
 43 11  1  0
 44 11  1  0
 45 11  1  0
 13 46  1  6
 47 14  1  0
 48 14  1  0
 49 15  1  0
 50 15  1  0
 51 17  1  0
 52 17  1  0
 53 18  1  0
 54 18  1  0
 55 19  1  0
 56 19  1  0
 57 20  1  0
 58 20  1  0
 59 21  1  0
 60 25  1  0
 61 26  1  0
 62 28  1  0
 63 29  1  0
 64 30  1  0
 65 31  1  0
 66 33  1  0
 67 34  1  0
 68 34  1  0
 69 35  1  0
 70 35  1  0
 16 71  1  1
M  CHG  1  16   1
M  END
>  <b_m_subgroup_collapsed>  (435) 
0

>  <r_i_docking_score>  (435) 
-8.0268382530848896

>  <s_m_subgroup_title>  (435) 
glide-dock_SP_D22_pv

>  <s_m_subgroupid>  (435) 
glide-dock_SP_D22_pv

>  <Molecule ChEMBL ID>  (435) 
CHEMBL238875

>  <Standard Type>  (435) 
Ki

>  <Standard Value>  (435) 
13350.0

>  <label>  (435) 
0

$$$$
CHEMBL4845947
     RDKit          3D

 54 57  0  0  1  0  0  0  0  0999 V2000
   10.4860   -0.4903  -17.0466 O   0  0  0  0  0  0  0  0  0  0  0  0
   10.2896    0.3831  -16.2041 C   0  0  0  0  0  0  0  0  0  0  0  0
    9.2176    0.1838  -15.1268 C   0  0  0  0  0  0  0  0  0  0  0  0
    8.5236    1.5057  -14.7534 C   0  0  0  0  0  0  0  0  0  0  0  0
    9.5280    2.6275  -14.5529 C   0  0  0  0  0  0  0  0  0  0  0  0
    9.2490    3.7033  -13.6898 C   0  0  0  0  0  0  0  0  0  0  0  0
   10.1738    4.7604  -13.5335 C   0  0  0  0  0  0  0  0  0  0  0  0
    9.8025    5.9007  -12.6468 C   0  0  0  0  0  0  0  0  0  0  0  0
    8.6700    6.0286  -12.1840 O   0  0  0  0  0  0  0  0  0  0  0  0
   10.8720    6.9700  -12.3583 C   0  0  0  0  0  0  0  0  0  0  0  0
   10.5919    7.8495  -11.1195 C   0  0  0  0  0  0  0  0  0  0  0  0
   10.4522    7.0361   -9.8195 C   0  0  0  0  0  0  0  0  0  0  0  0
   10.3152    7.8682   -8.6272 N   0  0  0  0  0  0  0  0  0  0  0  0
   11.6088    8.4502   -8.2344 C   0  0  0  0  0  0  0  0  0  0  0  0
   11.4782    9.2779   -6.9386 C   0  0  0  0  0  0  0  0  0  0  0  0
   10.8630    8.4535   -5.9134 N   0  0  0  0  0  0  0  0  0  0  0  0
   11.4370    8.3232   -4.6485 C   0  0  0  0  0  0  0  0  0  0  0  0
   11.6861    7.0473   -4.1005 C   0  0  0  0  0  0  0  0  0  0  0  0
   12.2129    6.9624   -2.7985 C   0  0  0  0  0  0  0  0  0  0  0  0
   12.4748    8.1533   -2.0986 C   0  0  0  0  0  0  0  0  0  0  0  0
   12.1767    9.3720   -2.7292 C   0  0  0  0  0  0  0  0  0  0  0  0
   11.6872    9.4654   -3.9796 N   0  0  0  0  0  0  0  0  0  0  0  0
    9.6291    7.7731   -6.2590 C   0  0  0  0  0  0  0  0  0  0  0  0
    9.8306    6.9841   -7.5566 C   0  0  0  0  0  0  0  0  0  0  0  0
   11.3909    4.7194  -14.2593 C   0  0  0  0  0  0  0  0  0  0  0  0
   11.6732    3.6423  -15.1269 C   0  0  0  0  0  0  0  0  0  0  0  0
   10.7410    2.5949  -15.2754 C   0  0  0  0  0  0  0  0  0  0  0  0
   11.0016    1.5226  -16.1677 N   0  0  0  0  0  0  0  0  0  0  0  0
    9.7167   -0.2262  -14.2470 H   0  0  0  0  0  0  0  0  0  0  0  0
    8.4819   -0.5550  -15.4464 H   0  0  0  0  0  0  0  0  0  0  0  0
    7.9333    1.3677  -13.8478 H   0  0  0  0  0  0  0  0  0  0  0  0
    7.8274    1.7959  -15.5397 H   0  0  0  0  0  0  0  0  0  0  0  0
    8.3109    3.7158  -13.1529 H   0  0  0  0  0  0  0  0  0  0  0  0
   10.9554    7.6109  -13.2344 H   0  0  0  0  0  0  0  0  0  0  0  0
   11.8462    6.4986  -12.2467 H   0  0  0  0  0  0  0  0  0  0  0  0
    9.6850    8.4383  -11.2791 H   0  0  0  0  0  0  0  0  0  0  0  0
   11.4074    8.5685  -11.0408 H   0  0  0  0  0  0  0  0  0  0  0  0
   11.2863    6.3484   -9.6997 H   0  0  0  0  0  0  0  0  0  0  0  0
    9.5588    6.4157   -9.8990 H   0  0  0  0  0  0  0  0  0  0  0  0
   11.9969    9.0930   -9.0234 H   0  0  0  0  0  0  0  0  0  0  0  0
   12.3420    7.6539   -8.0865 H   0  0  0  0  0  0  0  0  0  0  0  0
   10.8746   10.1718   -7.0898 H   0  0  0  0  0  0  0  0  0  0  0  0
   12.4631    9.6146   -6.6141 H   0  0  0  0  0  0  0  0  0  0  0  0
   11.4623    6.1476   -4.6566 H   0  0  0  0  0  0  0  0  0  0  0  0
   12.4110    6.0014   -2.3448 H   0  0  0  0  0  0  0  0  0  0  0  0
   12.8799    8.1390   -1.0968 H   0  0  0  0  0  0  0  0  0  0  0  0
   12.3337   10.3036   -2.2153 H   0  0  0  0  0  0  0  0  0  0  0  0
    9.3008    7.1038   -5.4633 H   0  0  0  0  0  0  0  0  0  0  0  0
    8.8416    8.5171   -6.3932 H   0  0  0  0  0  0  0  0  0  0  0  0
    8.8772    6.5382   -7.8442 H   0  0  0  0  0  0  0  0  0  0  0  0
   10.5338    6.1656   -7.3928 H   0  0  0  0  0  0  0  0  0  0  0  0
   12.1181    5.5139  -14.1826 H   0  0  0  0  0  0  0  0  0  0  0  0
   12.6006    3.6301  -15.6797 H   0  0  0  0  0  0  0  0  0  0  0  0
   11.7660    1.6250  -16.8179 H   0  0  0  0  0  0  0  0  0  0  0  0
  2  1  2  0
  3  2  1  0
  4  3  1  0
  5  4  1  0
  6  5  1  0
  7  6  2  0
  8  7  1  0
  9  8  2  0
 10  8  1  0
 11 10  1  0
 12 11  1  0
 13 12  1  0
 14 13  1  0
 15 14  1  0
 16 15  1  0
 17 16  1  0
 18 17  2  0
 19 18  1  0
 20 19  2  0
 21 20  1  0
 22 17  1  0
 22 21  2  0
 23 16  1  0
 24 13  1  0
 24 23  1  0
 25  7  1  0
 26 25  2  0
 27  5  2  0
 27 26  1  0
 28  2  1  0
 28 27  1  0
 29  3  1  0
 30  3  1  0
 31  4  1  0
 32  4  1  0
 33  6  1  0
 34 10  1  0
 35 10  1  0
 36 11  1  0
 37 11  1  0
 38 12  1  0
 39 12  1  0
 40 14  1  0
 41 14  1  0
 42 15  1  0
 43 15  1  0
 44 18  1  0
 45 19  1  0
 46 20  1  0
 47 21  1  0
 48 23  1  0
 49 23  1  0
 50 24  1  0
 51 24  1  0
 52 25  1  0
 53 26  1  0
 54 28  1  0
M  END
>  <b_m_subgroup_collapsed>  (436) 
0

>  <r_i_docking_score>  (436) 
-8.0251547619459593

>  <s_m_subgroup_title>  (436) 
glide-dock_SP_D22_pv

>  <s_m_subgroupid>  (436) 
glide-dock_SP_D22_pv

>  <Molecule ChEMBL ID>  (436) 
CHEMBL4845947

>  <Standard Type>  (436) 
Ki

>  <Standard Value>  (436) 
10000.0

>  <label>  (436) 
0

$$$$
CHEMBL4535104
     RDKit          3D

 73 77  0  0  1  0  0  0  0  0999 V2000
    6.6936   -0.8949  -17.6259 C   0  0  0  0  0  0  0  0  0  0  0  0
    7.8687   -0.2097  -17.2199 O   0  0  0  0  0  0  0  0  0  0  0  0
    8.9692   -0.2265  -18.0505 C   0  0  0  0  0  0  0  0  0  0  0  0
    8.9549   -0.8313  -19.3322 C   0  0  0  0  0  0  0  0  0  0  0  0
   10.0871   -0.7799  -20.1645 C   0  0  0  0  0  0  0  0  0  0  0  0
   11.2589   -0.1429  -19.7230 C   0  0  0  0  0  0  0  0  0  0  0  0
   11.2881    0.4577  -18.4532 C   0  0  0  0  0  0  0  0  0  0  0  0
   10.1547    0.4238  -17.6140 C   0  0  0  0  0  0  0  0  0  0  0  0
   10.2421    1.0921  -16.3804 N   0  0  0  0  0  0  0  0  0  0  0  0
    9.9551    0.4124  -15.1221 C   0  0  0  0  0  0  0  0  0  0  0  0
    8.6910    0.9786  -14.4398 C   0  0  0  0  0  0  0  0  0  0  0  0
    8.6552    2.5267  -14.3608 C   0  0  0  0  0  0  0  0  0  0  0  0
    9.7267    3.0642  -13.3782 C   0  0  0  0  0  0  0  0  0  0  0  0
    9.5860    4.5558  -13.0788 C   0  0  0  0  0  0  0  0  0  0  0  0
    8.2562    4.8842  -12.4969 N   0  0  0  0  0  0  0  0  0  0  0  0
    8.0935    6.3412  -12.2073 C   0  0  0  0  0  0  0  0  0  0  0  0
    8.7437    6.8543  -10.9117 C   0  0  0  0  0  0  0  0  0  0  0  0
   10.2594    6.7821  -10.8347 C   0  0  0  0  0  0  0  0  0  0  0  0
   10.9869    8.1637   -9.9187 S   0  0  0  0  0  0  0  0  0  0  0  0
   10.6992    7.6561   -8.2543 C   0  0  0  0  0  0  0  0  0  0  0  0
    9.9077    6.6559   -7.8668 N   0  0  0  0  0  0  0  0  0  0  0  0
   10.0098    6.6232   -6.4948 N   0  0  0  0  0  0  0  0  0  0  0  0
   10.8558    7.6017   -6.1628 C   0  0  0  0  0  0  0  0  0  0  0  0
   11.2910    7.8631   -4.7983 C   0  0  0  0  0  0  0  0  0  0  0  0
   11.6861    6.7839   -3.9807 C   0  0  0  0  0  0  0  0  0  0  0  0
   12.2224    7.0181   -2.7023 C   0  0  0  0  0  0  0  0  0  0  0  0
   12.3859    8.3387   -2.2462 C   0  0  0  0  0  0  0  0  0  0  0  0
   12.9553    8.5724   -1.0472 F   0  0  0  0  0  0  0  0  0  0  0  0
   11.9683    9.4191   -3.0408 C   0  0  0  0  0  0  0  0  0  0  0  0
   11.4010    9.1833   -4.3052 C   0  0  0  0  0  0  0  0  0  0  0  0
   11.3159    8.2728   -7.2345 N   0  0  0  0  0  0  0  0  0  0  0  0
   12.2518    9.3722   -7.2814 C   0  0  0  0  0  0  0  0  0  0  0  0
    7.1679    4.4245  -13.3983 C   0  0  0  0  0  0  0  0  0  0  0  0
    7.2528    2.9567  -13.8483 C   0  0  0  0  0  0  0  0  0  0  0  0
    8.9013    3.0633  -15.7966 C   0  0  0  0  0  0  0  0  0  0  0  0
   10.2137    2.5466  -16.4149 C   0  0  0  0  0  0  0  0  0  0  0  0
    5.9500   -0.8258  -16.8317 H   0  0  0  0  0  0  0  0  0  0  0  0
    6.2633   -0.4472  -18.5221 H   0  0  0  0  0  0  0  0  0  0  0  0
    6.8861   -1.9545  -17.8029 H   0  0  0  0  0  0  0  0  0  0  0  0
    8.0758   -1.3299  -19.7111 H   0  0  0  0  0  0  0  0  0  0  0  0
   10.0580   -1.2387  -21.1416 H   0  0  0  0  0  0  0  0  0  0  0  0
   12.1313   -0.1078  -20.3586 H   0  0  0  0  0  0  0  0  0  0  0  0
   12.1877    0.9547  -18.1203 H   0  0  0  0  0  0  0  0  0  0  0  0
    9.8427   -0.6596  -15.2895 H   0  0  0  0  0  0  0  0  0  0  0  0
   10.8195    0.5335  -14.4671 H   0  0  0  0  0  0  0  0  0  0  0  0
    7.8106    0.6356  -14.9801 H   0  0  0  0  0  0  0  0  0  0  0  0
    8.5942    0.5390  -13.4469 H   0  0  0  0  0  0  0  0  0  0  0  0
    9.6839    2.5725  -12.4168 H   0  0  0  0  0  0  0  0  0  0  0  0
   10.7317    2.8565  -13.7418 H   0  0  0  0  0  0  0  0  0  0  0  0
   10.3831    4.7891  -12.3845 H   0  0  0  0  0  0  0  0  0  0  0  0
    9.7670    5.1509  -13.9752 H   0  0  0  0  0  0  0  0  0  0  0  0
    8.4395    6.9389  -13.0478 H   0  0  0  0  0  0  0  0  0  0  0  0
    7.0283    6.5578  -12.1142 H   0  0  0  0  0  0  0  0  0  0  0  0
    8.4861    7.9111  -10.8322 H   0  0  0  0  0  0  0  0  0  0  0  0
    8.2918    6.3691  -10.0458 H   0  0  0  0  0  0  0  0  0  0  0  0
   10.5139    5.8321  -10.3734 H   0  0  0  0  0  0  0  0  0  0  0  0
   10.6982    6.8358  -11.8298 H   0  0  0  0  0  0  0  0  0  0  0  0
   11.5991    5.7723   -4.3450 H   0  0  0  0  0  0  0  0  0  0  0  0
   12.5345    6.1891   -2.0847 H   0  0  0  0  0  0  0  0  0  0  0  0
   12.0848   10.4281   -2.6729 H   0  0  0  0  0  0  0  0  0  0  0  0
   11.0834   10.0215   -4.9083 H   0  0  0  0  0  0  0  0  0  0  0  0
   12.9645    9.3332   -6.4590 H   0  0  0  0  0  0  0  0  0  0  0  0
   12.8210    9.3597   -8.2097 H   0  0  0  0  0  0  0  0  0  0  0  0
   11.6859   10.2996   -7.2008 H   0  0  0  0  0  0  0  0  0  0  0  0
    6.1924    4.6183  -12.9480 H   0  0  0  0  0  0  0  0  0  0  0  0
    7.2409    5.0230  -14.2866 H   0  0  0  0  0  0  0  0  0  0  0  0
    6.5208    2.8002  -14.6425 H   0  0  0  0  0  0  0  0  0  0  0  0
    6.8859    2.3231  -13.0481 H   0  0  0  0  0  0  0  0  0  0  0  0
    8.0832    2.7442  -16.4449 H   0  0  0  0  0  0  0  0  0  0  0  0
    8.8952    4.1520  -15.8237 H   0  0  0  0  0  0  0  0  0  0  0  0
   11.0842    2.9343  -15.8879 H   0  0  0  0  0  0  0  0  0  0  0  0
   10.2946    2.9046  -17.4420 H   0  0  0  0  0  0  0  0  0  0  0  0
    8.1558    4.3857  -11.6230 H   0  0  0  0  0  0  0  0  0  0  0  0
  2  1  1  0
  3  2  1  0
  4  3  2  0
  5  4  1  0
  6  5  2  0
  7  6  1  0
  8  3  1  0
  8  7  2  0
  9  8  1  0
 10  9  1  0
 11 10  1  0
 12 11  1  0
 13 12  1  0
 14 13  1  0
 15 14  1  0
 16 15  1  0
 17 16  1  0
 18 17  1  0
 19 18  1  0
 20 19  1  0
 21 20  2  0
 22 21  1  0
 23 22  2  0
 24 23  1  0
 25 24  1  0
 26 25  2  0
 27 26  1  0
 28 27  1  0
 29 27  2  0
 30 24  2  0
 30 29  1  0
 31 20  1  0
 31 23  1  0
 32 31  1  0
 33 15  1  0
 34 12  1  0
 34 33  1  0
 35 12  1  0
 36  9  1  0
 36 35  1  0
 37  1  1  0
 38  1  1  0
 39  1  1  0
 40  4  1  0
 41  5  1  0
 42  6  1  0
 43  7  1  0
 44 10  1  0
 45 10  1  0
 46 11  1  0
 47 11  1  0
 48 13  1  0
 49 13  1  0
 50 14  1  0
 51 14  1  0
 52 16  1  0
 53 16  1  0
 54 17  1  0
 55 17  1  0
 56 18  1  0
 57 18  1  0
 58 25  1  0
 59 26  1  0
 60 29  1  0
 61 30  1  0
 62 32  1  0
 63 32  1  0
 64 32  1  0
 65 33  1  0
 66 33  1  0
 67 34  1  0
 68 34  1  0
 69 35  1  0
 70 35  1  0
 71 36  1  0
 72 36  1  0
 73 15  1  0
M  CHG  1  15   1
M  END
>  <b_m_subgroup_collapsed>  (437) 
0

>  <r_i_docking_score>  (437) 
-8.0249388565807003

>  <s_m_subgroup_title>  (437) 
glide-dock_SP_D22_pv

>  <s_m_subgroupid>  (437) 
glide-dock_SP_D22_pv

>  <Molecule ChEMBL ID>  (437) 
CHEMBL4535104

>  <Standard Type>  (437) 
Ki

>  <Standard Value>  (437) 
15768.0

>  <label>  (437) 
0

$$$$
CHEMBL5267339
     RDKit          3D

 41 43  0  0  1  0  0  0  0  0999 V2000
   12.8858    8.5723   -1.4469 Cl  0  0  0  0  0  0  0  0  0  0  0  0
   12.2275    8.2782   -2.9962 C   0  0  0  0  0  0  0  0  0  0  0  0
   11.8368    6.9954   -3.4187 C   0  0  0  0  0  0  0  0  0  0  0  0
   11.2860    6.8367   -4.7064 C   0  0  0  0  0  0  0  0  0  0  0  0
   11.1435    7.9476   -5.5695 C   0  0  0  0  0  0  0  0  0  0  0  0
   10.5208    7.7786   -6.8258 N   0  0  0  0  0  0  0  0  0  0  0  0
   10.6815    6.7537   -7.7337 C   0  0  0  0  0  0  0  0  0  0  0  0
    9.9076    7.1472   -8.7876 C   0  0  0  0  0  0  0  0  0  0  0  0
    9.6643    6.4759  -10.0900 C   0  0  0  0  0  0  0  0  0  0  0  0
    8.3730    5.7723  -10.0328 N   0  0  0  0  0  0  0  0  0  0  0  0
    8.1898    4.7712  -11.0967 C   0  0  0  0  0  0  0  0  0  0  0  0
    7.6277    5.3829  -12.3947 C   0  0  2  0  0  0  0  0  0  0  0  0
    6.0871    5.3575  -12.4164 C   0  0  0  0  0  0  0  0  0  0  0  0
    5.5611    3.9317  -12.6469 C   0  0  0  0  0  0  0  0  0  0  0  0
    6.2549    3.2785  -13.8469 C   0  0  0  0  0  0  0  0  0  0  0  0
    7.6689    3.3326  -13.7043 O   0  0  0  0  0  0  0  0  0  0  0  0
    8.1829    4.6551  -13.6338 C   0  0  0  0  0  0  0  0  0  0  0  0
    9.2860    8.3458   -8.4736 N   0  0  0  0  0  0  0  0  0  0  0  0
    9.6223    8.6880   -7.2780 N   0  0  0  0  0  0  0  0  0  0  0  0
   11.6217    9.2149   -5.1538 C   0  0  0  0  0  0  0  0  0  0  0  0
   11.6860   10.5723   -6.2156 Cl  0  0  0  0  0  0  0  0  0  0  0  0
   12.1138    9.3723   -3.8512 C   0  0  0  0  0  0  0  0  0  0  0  0
   11.9318    6.1471   -2.7560 H   0  0  0  0  0  0  0  0  0  0  0  0
   10.9437    5.8605   -5.0154 H   0  0  0  0  0  0  0  0  0  0  0  0
   11.3148    5.8961   -7.5648 H   0  0  0  0  0  0  0  0  0  0  0  0
    9.6562    7.1965  -10.9087 H   0  0  0  0  0  0  0  0  0  0  0  0
   10.4720    5.7723  -10.2881 H   0  0  0  0  0  0  0  0  0  0  0  0
    8.3193    5.3018   -9.1413 H   0  0  0  0  0  0  0  0  0  0  0  0
    9.1311    4.2491  -11.2756 H   0  0  0  0  0  0  0  0  0  0  0  0
    7.5121    4.0135  -10.7100 H   0  0  0  0  0  0  0  0  0  0  0  0
    7.9539    6.4217  -12.4632 H   0  0  0  0  0  0  0  0  0  0  0  0
    5.6840    5.7702  -11.4900 H   0  0  0  0  0  0  0  0  0  0  0  0
    5.7172    6.0028  -13.2123 H   0  0  0  0  0  0  0  0  0  0  0  0
    4.4860    3.9532  -12.8179 H   0  0  0  0  0  0  0  0  0  0  0  0
    5.7091    3.3177  -11.7593 H   0  0  0  0  0  0  0  0  0  0  0  0
    5.9530    3.7723  -14.7682 H   0  0  0  0  0  0  0  0  0  0  0  0
    5.9492    2.2357  -13.9328 H   0  0  0  0  0  0  0  0  0  0  0  0
    7.9443    5.1974  -14.5475 H   0  0  0  0  0  0  0  0  0  0  0  0
    9.2715    4.6072  -13.5920 H   0  0  0  0  0  0  0  0  0  0  0  0
   12.4369   10.3221   -3.4685 H   0  0  0  0  0  0  0  0  0  0  0  0
    7.6165    6.4598  -10.0612 H   0  0  0  0  0  0  0  0  0  0  0  0
  2  1  1  0
  3  2  1  0
  4  3  2  0
  5  4  1  0
  6  5  1  0
  7  6  1  0
  8  7  2  0
  9  8  1  0
 10  9  1  0
 11 10  1  0
 12 11  1  0
 13 12  1  0
 14 13  1  0
 15 14  1  0
 16 15  1  0
 17 12  1  0
 17 16  1  0
 18  8  1  0
 19  6  1  0
 19 18  2  0
 20  5  2  0
 21 20  1  0
 22  2  2  0
 22 20  1  0
 23  3  1  0
 24  4  1  0
 25  7  1  0
 26  9  1  0
 27  9  1  0
 28 10  1  0
 29 11  1  0
 30 11  1  0
 12 31  1  6
 32 13  1  0
 33 13  1  0
 34 14  1  0
 35 14  1  0
 36 15  1  0
 37 15  1  0
 38 17  1  0
 39 17  1  0
 40 22  1  0
 41 10  1  0
M  CHG  1  10   1
M  END
>  <b_m_subgroup_collapsed>  (438) 
0

>  <r_i_docking_score>  (438) 
-8.0232564089387903

>  <s_m_subgroup_title>  (438) 
glide-dock_SP_D22_pv

>  <s_m_subgroupid>  (438) 
glide-dock_SP_D22_pv

>  <Molecule ChEMBL ID>  (438) 
CHEMBL5267339

>  <Standard Type>  (438) 
Ki

>  <Standard Value>  (438) 
10000.0

>  <label>  (438) 
0

$$$$
CHEMBL6063896
     RDKit          3D

 57 59  0  0  1  0  0  0  0  0999 V2000
   11.2422    1.1473  -16.2846 C   0  0  0  0  0  0  0  0  0  0  0  0
   10.3463    0.4285  -15.4496 O   0  0  0  0  0  0  0  0  0  0  0  0
    9.6518    1.2352  -14.5068 C   0  0  0  0  0  0  0  0  0  0  0  0
    8.6442    2.1917  -15.1771 C   0  0  0  0  0  0  0  0  0  0  0  0
    7.6893    2.8793  -14.2000 C   0  0  0  0  0  0  0  0  0  0  0  0
    8.3534    3.9460  -13.3663 C   0  0  0  0  0  0  0  0  0  0  0  0
    9.5460    4.2362  -13.4548 O   0  0  0  0  0  0  0  0  0  0  0  0
    7.5347    4.5735  -12.5148 N   0  0  0  0  0  0  0  0  0  0  0  0
    7.8992    5.6456  -11.6178 C   0  0  0  0  0  0  0  0  0  0  0  0
    8.4578    5.0652  -10.3154 C   0  0  0  0  0  0  0  0  0  0  0  0
    8.8078    6.1117   -9.3239 N   0  0  2  0  0  0  0  0  0  0  0  0
   10.1850    6.6346   -9.5340 C   0  0  0  0  0  0  0  0  0  0  0  0
   10.5852    7.6695   -8.4714 C   0  0  0  0  0  0  0  0  0  0  0  0
   10.4593    7.0694   -7.0563 C   0  0  1  0  0  0  0  0  0  0  0  0
   10.9093    7.9858   -5.9258 C   0  0  0  0  0  0  0  0  0  0  0  0
   10.8871    9.3883   -6.0632 C   0  0  0  0  0  0  0  0  0  0  0  0
   11.2858   10.1722   -4.9725 C   0  0  0  0  0  0  0  0  0  0  0  0
   11.6867    9.5414   -3.7843 C   0  0  0  0  0  0  0  0  0  0  0  0
   11.6861    8.1317   -3.7285 C   0  0  0  0  0  0  0  0  0  0  0  0
   12.0492    7.4064   -2.4338 C   0  0  0  0  0  0  0  0  0  0  0  0
   12.6424    8.2396   -1.5773 F   0  0  0  0  0  0  0  0  0  0  0  0
   10.9502    6.9298   -1.8479 F   0  0  0  0  0  0  0  0  0  0  0  0
   12.8800    6.3922   -2.6671 F   0  0  0  0  0  0  0  0  0  0  0  0
   11.2958    7.3703   -4.7826 N   0  0  0  0  0  0  0  0  0  0  0  0
    9.0078    6.6215   -6.8649 C   0  0  0  0  0  0  0  0  0  0  0  0
    8.6037    5.6069   -7.9448 C   0  0  0  0  0  0  0  0  0  0  0  0
    6.4861    2.1122  -13.6473 C   0  0  0  0  0  0  0  0  0  0  0  0
    6.2820    3.2111  -14.6497 C   0  0  0  0  0  0  0  0  0  0  0  0
   11.8378    0.4449  -16.8679 H   0  0  0  0  0  0  0  0  0  0  0  0
   10.7065    1.7826  -16.9899 H   0  0  0  0  0  0  0  0  0  0  0  0
   11.9270    1.7691  -15.7057 H   0  0  0  0  0  0  0  0  0  0  0  0
   10.3638    1.7747  -13.8812 H   0  0  0  0  0  0  0  0  0  0  0  0
    9.1107    0.5560  -13.8476 H   0  0  0  0  0  0  0  0  0  0  0  0
    8.0517    1.6242  -15.8940 H   0  0  0  0  0  0  0  0  0  0  0  0
    9.1638    2.9562  -15.7555 H   0  0  0  0  0  0  0  0  0  0  0  0
    6.5681    4.2820  -12.4983 H   0  0  0  0  0  0  0  0  0  0  0  0
    6.9660    6.1725  -11.4449 H   0  0  0  0  0  0  0  0  0  0  0  0
    8.5913    6.3405  -12.0967 H   0  0  0  0  0  0  0  0  0  0  0  0
    9.3264    4.4364  -10.5183 H   0  0  0  0  0  0  0  0  0  0  0  0
    7.7013    4.3947   -9.9062 H   0  0  0  0  0  0  0  0  0  0  0  0
   10.2713    7.0724  -10.5288 H   0  0  0  0  0  0  0  0  0  0  0  0
   10.8869    5.8027   -9.4893 H   0  0  0  0  0  0  0  0  0  0  0  0
    9.9457    8.5465   -8.5857 H   0  0  0  0  0  0  0  0  0  0  0  0
   11.6106    7.9971   -8.6491 H   0  0  0  0  0  0  0  0  0  0  0  0
   11.0988    6.1851   -7.0070 H   0  0  0  0  0  0  0  0  0  0  0  0
   10.5661    9.8698   -6.9720 H   0  0  0  0  0  0  0  0  0  0  0  0
   11.2809   11.2510   -5.0471 H   0  0  0  0  0  0  0  0  0  0  0  0
   11.9820   10.1375   -2.9322 H   0  0  0  0  0  0  0  0  0  0  0  0
    8.8863    6.1724   -5.8768 H   0  0  0  0  0  0  0  0  0  0  0  0
    8.3388    7.4840   -6.8908 H   0  0  0  0  0  0  0  0  0  0  0  0
    7.5530    5.3647   -7.8068 H   0  0  0  0  0  0  0  0  0  0  0  0
    9.1704    4.6810   -7.8403 H   0  0  0  0  0  0  0  0  0  0  0  0
    6.3533    1.0861  -13.9859 H   0  0  0  0  0  0  0  0  0  0  0  0
    6.1031    2.3125  -12.6464 H   0  0  0  0  0  0  0  0  0  0  0  0
    5.7870    4.1163  -14.3034 H   0  0  0  0  0  0  0  0  0  0  0  0
    6.0861    2.9716  -15.6876 H   0  0  0  0  0  0  0  0  0  0  0  0
    8.1442    6.8720   -9.4502 H   0  0  0  0  0  0  0  0  0  0  0  0
  2  1  1  0
  3  2  1  0
  4  3  1  0
  5  4  1  0
  6  5  1  0
  7  6  2  0
  8  6  1  0
  9  8  1  0
 10  9  1  0
 11 10  1  0
 12 11  1  0
 13 12  1  0
 14 13  1  0
 15 14  1  0
 16 15  2  0
 17 16  1  0
 18 17  2  0
 19 18  1  0
 20 19  1  0
 21 20  1  0
 22 20  1  0
 23 20  1  0
 24 15  1  0
 24 19  2  0
 25 14  1  0
 26 11  1  0
 26 25  1  0
 27  5  1  0
 28  5  1  0
 28 27  1  0
 29  1  1  0
 30  1  1  0
 31  1  1  0
 32  3  1  0
 33  3  1  0
 34  4  1  0
 35  4  1  0
 36  8  1  0
 37  9  1  0
 38  9  1  0
 39 10  1  0
 40 10  1  0
 41 12  1  0
 42 12  1  0
 43 13  1  0
 44 13  1  0
 14 45  1  6
 46 16  1  0
 47 17  1  0
 48 18  1  0
 49 25  1  0
 50 25  1  0
 51 26  1  0
 52 26  1  0
 53 27  1  0
 54 27  1  0
 55 28  1  0
 56 28  1  0
 11 57  1  6
M  CHG  1  11   1
M  END
>  <b_m_subgroup_collapsed>  (439) 
0

>  <r_i_docking_score>  (439) 
-8.0210394368778992

>  <s_m_subgroup_title>  (439) 
glide-dock_SP_D22_pv

>  <s_m_subgroupid>  (439) 
glide-dock_SP_D22_pv

>  <Molecule ChEMBL ID>  (439) 
CHEMBL6063896

>  <Standard Type>  (439) 
Ki

>  <Standard Value>  (439) 
13.0

>  <label>  (439) 
1

$$$$
CHEMBL165047
     RDKit          3D

 62 65  0  0  1  0  0  0  0  0999 V2000
    9.2183    0.1812  -14.5992 C   0  0  0  0  0  0  0  0  0  0  0  0
    9.5716    1.5122  -15.0800 N   0  0  0  0  0  0  0  0  0  0  0  0
    9.8201    1.6679  -16.4445 C   0  0  0  0  0  0  0  0  0  0  0  0
   10.4847    0.6747  -17.0437 N   0  0  0  0  0  0  0  0  0  0  0  0
   10.7326    0.8010  -18.3608 C   0  0  0  0  0  0  0  0  0  0  0  0
   10.3088    1.9266  -19.0877 C   0  0  0  0  0  0  0  0  0  0  0  0
    9.6128    2.9072  -18.3616 C   0  0  0  0  0  0  0  0  0  0  0  0
    9.3649    2.7711  -17.0450 N   0  0  0  0  0  0  0  0  0  0  0  0
    9.3982    2.6117  -14.1203 C   0  0  1  0  0  0  0  0  0  0  0  0
   10.4228    3.7533  -14.2769 C   0  0  0  0  0  0  0  0  0  0  0  0
   10.2725    4.7477  -13.1222 C   0  0  0  0  0  0  0  0  0  0  0  0
    8.8532    5.3536  -13.0564 C   0  0  2  0  0  0  0  0  0  0  0  0
    8.7211    6.3904  -11.9117 C   0  0  0  0  0  0  0  0  0  0  0  0
    8.8610    5.7833  -10.4957 C   0  0  0  0  0  0  0  0  0  0  0  0
    8.8860    6.7613   -9.3798 N   0  0  0  0  0  0  0  0  0  0  0  0
    8.7351    6.0298   -8.0880 C   0  0  0  0  0  0  0  0  0  0  0  0
    8.9128    6.9239   -6.8581 C   0  0  0  0  0  0  0  0  0  0  0  0
   10.1569    7.6631   -6.9759 N   0  0  0  0  0  0  0  0  0  0  0  0
   10.8223    7.9760   -5.7814 C   0  0  0  0  0  0  0  0  0  0  0  0
   11.2866    6.9224   -4.9639 C   0  0  0  0  0  0  0  0  0  0  0  0
   11.9292    7.1834   -3.7385 C   0  0  0  0  0  0  0  0  0  0  0  0
   12.0860    8.5103   -3.3026 C   0  0  0  0  0  0  0  0  0  0  0  0
   11.6079    9.5644   -4.1021 C   0  0  0  0  0  0  0  0  0  0  0  0
   11.0022    9.3082   -5.3491 C   0  0  0  0  0  0  0  0  0  0  0  0
   10.2293    8.5271   -8.1407 C   0  0  0  0  0  0  0  0  0  0  0  0
   10.0661    7.6779   -9.4189 C   0  0  0  0  0  0  0  0  0  0  0  0
    7.7797    4.2458  -12.9934 C   0  0  0  0  0  0  0  0  0  0  0  0
    7.9608    3.1663  -14.0798 C   0  0  0  0  0  0  0  0  0  0  0  0
   10.1124   -0.3106  -14.2222 H   0  0  0  0  0  0  0  0  0  0  0  0
    8.4891    0.2284  -13.7918 H   0  0  0  0  0  0  0  0  0  0  0  0
    8.7932   -0.4363  -15.3894 H   0  0  0  0  0  0  0  0  0  0  0  0
   11.2728   -0.0033  -18.8385 H   0  0  0  0  0  0  0  0  0  0  0  0
   10.5075    2.0315  -20.1436 H   0  0  0  0  0  0  0  0  0  0  0  0
    9.2472    3.8038  -18.8395 H   0  0  0  0  0  0  0  0  0  0  0  0
    9.5895    2.1750  -13.1407 H   0  0  0  0  0  0  0  0  0  0  0  0
   11.4349    3.3466  -14.2801 H   0  0  0  0  0  0  0  0  0  0  0  0
   10.2955    4.2875  -15.2177 H   0  0  0  0  0  0  0  0  0  0  0  0
   10.4889    4.2096  -12.2027 H   0  0  0  0  0  0  0  0  0  0  0  0
   11.0192    5.5371  -13.2152 H   0  0  0  0  0  0  0  0  0  0  0  0
    8.6905    5.8862  -13.9934 H   0  0  0  0  0  0  0  0  0  0  0  0
    9.4735    7.1603  -12.0761 H   0  0  0  0  0  0  0  0  0  0  0  0
    7.7571    6.8953  -11.9891 H   0  0  0  0  0  0  0  0  0  0  0  0
    8.0152    5.1184  -10.3224 H   0  0  0  0  0  0  0  0  0  0  0  0
    9.7564    5.1692  -10.4181 H   0  0  0  0  0  0  0  0  0  0  0  0
    7.7562    5.5503   -8.0463 H   0  0  0  0  0  0  0  0  0  0  0  0
    9.4780    5.2316   -8.0413 H   0  0  0  0  0  0  0  0  0  0  0  0
    8.0863    7.6317   -6.7795 H   0  0  0  0  0  0  0  0  0  0  0  0
    8.8910    6.3164   -5.9533 H   0  0  0  0  0  0  0  0  0  0  0  0
   11.1595    5.8972   -5.2781 H   0  0  0  0  0  0  0  0  0  0  0  0
   12.2804    6.3647   -3.1271 H   0  0  0  0  0  0  0  0  0  0  0  0
   12.5530    8.7205   -2.3512 H   0  0  0  0  0  0  0  0  0  0  0  0
   11.6859   10.5727   -3.7376 H   0  0  0  0  0  0  0  0  0  0  0  0
   10.6365   10.1344   -5.9404 H   0  0  0  0  0  0  0  0  0  0  0  0
    9.4383    9.2767   -8.0801 H   0  0  0  0  0  0  0  0  0  0  0  0
   11.1809    9.0601   -8.1644 H   0  0  0  0  0  0  0  0  0  0  0  0
   10.9684    7.0795   -9.5562 H   0  0  0  0  0  0  0  0  0  0  0  0
    9.9943    8.3454  -10.2771 H   0  0  0  0  0  0  0  0  0  0  0  0
    7.8086    3.7724  -12.0171 H   0  0  0  0  0  0  0  0  0  0  0  0
    6.7861    4.6872  -13.0811 H   0  0  0  0  0  0  0  0  0  0  0  0
    7.7182    3.5911  -15.0463 H   0  0  0  0  0  0  0  0  0  0  0  0
    7.2465    2.3596  -13.9124 H   0  0  0  0  0  0  0  0  0  0  0  0
    8.0384    7.3243   -9.4810 H   0  0  0  0  0  0  0  0  0  0  0  0
  2  1  1  0
  3  2  1  0
  4  3  2  0
  5  4  1  0
  6  5  2  0
  7  6  1  0
  8  3  1  0
  8  7  2  0
  9  2  1  0
 10  9  1  0
 11 10  1  0
 12 11  1  0
 13 12  1  0
 14 13  1  0
 15 14  1  0
 16 15  1  0
 17 16  1  0
 18 17  1  0
 19 18  1  0
 20 19  2  0
 21 20  1  0
 22 21  2  0
 23 22  1  0
 24 19  1  0
 24 23  2  0
 25 18  1  0
 26 15  1  0
 26 25  1  0
 27 12  1  0
 28  9  1  0
 28 27  1  0
 29  1  1  0
 30  1  1  0
 31  1  1  0
 32  5  1  0
 33  6  1  0
 34  7  1  0
  9 35  1  1
 36 10  1  0
 37 10  1  0
 38 11  1  0
 39 11  1  0
 12 40  1  6
 41 13  1  0
 42 13  1  0
 43 14  1  0
 44 14  1  0
 45 16  1  0
 46 16  1  0
 47 17  1  0
 48 17  1  0
 49 20  1  0
 50 21  1  0
 51 22  1  0
 52 23  1  0
 53 24  1  0
 54 25  1  0
 55 25  1  0
 56 26  1  0
 57 26  1  0
 58 27  1  0
 59 27  1  0
 60 28  1  0
 61 28  1  0
 62 15  1  0
M  CHG  1  15   1
M  END
>  <b_m_subgroup_collapsed>  (440) 
0

>  <r_i_docking_score>  (440) 
-8.0163871780832991

>  <s_m_subgroup_title>  (440) 
glide-dock_SP_D22_pv

>  <s_m_subgroupid>  (440) 
glide-dock_SP_D22_pv

>  <Molecule ChEMBL ID>  (440) 
CHEMBL165047

>  <Standard Type>  (440) 
Ki

>  <Standard Value>  (440) 
4.8

>  <label>  (440) 
1

$$$$
CHEMBL169889
     RDKit          3D

 57 60  0  0  1  0  0  0  0  0999 V2000
   12.1208    3.1883  -16.1193 C   0  0  0  0  0  0  0  0  0  0  0  0
   11.2799    3.3537  -14.9838 O   0  0  0  0  0  0  0  0  0  0  0  0
   10.0964    2.6428  -14.9553 C   0  0  0  0  0  0  0  0  0  0  0  0
    9.9700    1.3998  -15.6281 C   0  0  0  0  0  0  0  0  0  0  0  0
    8.7714    0.6684  -15.5778 C   0  0  0  0  0  0  0  0  0  0  0  0
    7.6682    1.1852  -14.8838 C   0  0  0  0  0  0  0  0  0  0  0  0
    6.0638    0.1718  -14.7575 Br  0  0  0  0  0  0  0  0  0  0  0  0
    7.7623    2.4349  -14.2469 C   0  0  0  0  0  0  0  0  0  0  0  0
    8.9831    3.1550  -14.2212 C   0  0  0  0  0  0  0  0  0  0  0  0
    9.0665    4.3856  -13.3973 C   0  0  0  0  0  0  0  0  0  0  0  0
   10.0840    5.2663  -13.5195 N   0  0  0  0  0  0  0  0  0  0  0  0
   10.2834    6.4738  -12.6986 C   0  0  0  0  0  0  0  0  0  0  0  0
    8.9185    7.0002  -12.2217 C   0  0  0  0  0  0  0  0  0  0  0  0
    8.1693    5.8494  -11.5351 C   0  0  2  0  0  0  0  0  0  0  0  0
    8.7662    5.3804  -10.1877 C   0  0  0  0  0  0  0  0  0  0  0  0
    8.9107    6.4251   -9.1339 N   0  0  0  0  0  0  0  0  0  0  0  0
   10.2380    7.1237   -9.1790 C   0  0  0  0  0  0  0  0  0  0  0  0
   10.4243    8.1475   -8.0444 C   0  0  0  0  0  0  0  0  0  0  0  0
   10.1931    7.4850   -6.7757 N   0  0  0  0  0  0  0  0  0  0  0  0
   10.9840    7.7496   -5.6379 C   0  0  0  0  0  0  0  0  0  0  0  0
   11.5928    9.0069   -5.4225 C   0  0  0  0  0  0  0  0  0  0  0  0
   12.3425    9.2328   -4.2502 C   0  0  0  0  0  0  0  0  0  0  0  0
   12.4850    8.2349   -3.2733 C   0  0  0  0  0  0  0  0  0  0  0  0
   11.9197    6.9724   -3.4929 C   0  0  0  0  0  0  0  0  0  0  0  0
   11.1905    6.7395   -4.6719 C   0  0  0  0  0  0  0  0  0  0  0  0
    8.9125    6.8035   -6.6464 C   0  0  0  0  0  0  0  0  0  0  0  0
    8.6921    5.8146   -7.7965 C   0  0  0  0  0  0  0  0  0  0  0  0
    8.1340    4.6896  -12.4579 N   0  0  0  0  0  0  0  0  0  0  0  0
   12.9255    3.9238  -16.0791 H   0  0  0  0  0  0  0  0  0  0  0  0
   12.5823    2.2022  -16.1532 H   0  0  0  0  0  0  0  0  0  0  0  0
   11.5702    3.3525  -17.0468 H   0  0  0  0  0  0  0  0  0  0  0  0
   10.7964    0.9649  -16.1692 H   0  0  0  0  0  0  0  0  0  0  0  0
    8.7005   -0.2921  -16.0666 H   0  0  0  0  0  0  0  0  0  0  0  0
    6.8908    2.7939  -13.7206 H   0  0  0  0  0  0  0  0  0  0  0  0
   10.8863    6.1887  -11.8402 H   0  0  0  0  0  0  0  0  0  0  0  0
   10.8796    7.2149  -13.2391 H   0  0  0  0  0  0  0  0  0  0  0  0
    8.3091    7.3491  -13.0469 H   0  0  0  0  0  0  0  0  0  0  0  0
    8.9940    7.8775  -11.5848 H   0  0  0  0  0  0  0  0  0  0  0  0
    7.1410    6.1711  -11.3732 H   0  0  0  0  0  0  0  0  0  0  0  0
    9.7158    4.8635  -10.3327 H   0  0  0  0  0  0  0  0  0  0  0  0
    8.0870    4.6062   -9.8221 H   0  0  0  0  0  0  0  0  0  0  0  0
   10.4191    7.6366  -10.1157 H   0  0  0  0  0  0  0  0  0  0  0  0
   11.0254    6.3735   -9.0964 H   0  0  0  0  0  0  0  0  0  0  0  0
    9.7256    8.9770   -8.1564 H   0  0  0  0  0  0  0  0  0  0  0  0
   11.4326    8.5597   -8.0908 H   0  0  0  0  0  0  0  0  0  0  0  0
   11.4803    9.8082   -6.1377 H   0  0  0  0  0  0  0  0  0  0  0  0
   12.8280   10.1723   -4.0832 H   0  0  0  0  0  0  0  0  0  0  0  0
   13.0500    8.4303   -2.3734 H   0  0  0  0  0  0  0  0  0  0  0  0
   12.0375    6.1841   -2.7632 H   0  0  0  0  0  0  0  0  0  0  0  0
   10.7568    5.7723   -4.8156 H   0  0  0  0  0  0  0  0  0  0  0  0
    8.8715    6.2592   -5.7062 H   0  0  0  0  0  0  0  0  0  0  0  0
    8.1094    7.5435   -6.6408 H   0  0  0  0  0  0  0  0  0  0  0  0
    7.6859    5.4050   -7.7298 H   0  0  0  0  0  0  0  0  0  0  0  0
    9.3786    4.9733   -7.6869 H   0  0  0  0  0  0  0  0  0  0  0  0
    7.3670    4.0485  -12.3247 H   0  0  0  0  0  0  0  0  0  0  0  0
   10.8142    5.0132  -14.1774 H   0  0  0  0  0  0  0  0  0  0  0  0
    8.1654    7.1033   -9.2671 H   0  0  0  0  0  0  0  0  0  0  0  0
  2  1  1  0
  3  2  1  0
  4  3  1  0
  5  4  2  0
  6  5  1  0
  7  6  1  0
  8  6  2  0
  9  3  2  0
  9  8  1  0
 10  9  1  0
 11 10  2  0
 12 11  1  0
 13 12  1  0
 14 13  1  0
 15 14  1  0
 16 15  1  0
 17 16  1  0
 18 17  1  0
 19 18  1  0
 20 19  1  0
 21 20  2  0
 22 21  1  0
 23 22  2  0
 24 23  1  0
 25 20  1  0
 25 24  2  0
 26 19  1  0
 27 16  1  0
 27 26  1  0
 28 10  1  0
 28 14  1  0
 29  1  1  0
 30  1  1  0
 31  1  1  0
 32  4  1  0
 33  5  1  0
 34  8  1  0
 35 12  1  0
 36 12  1  0
 37 13  1  0
 38 13  1  0
 14 39  1  1
 40 15  1  0
 41 15  1  0
 42 17  1  0
 43 17  1  0
 44 18  1  0
 45 18  1  0
 46 21  1  0
 47 22  1  0
 48 23  1  0
 49 24  1  0
 50 25  1  0
 51 26  1  0
 52 26  1  0
 53 27  1  0
 54 27  1  0
 55 28  1  0
 56 11  1  0
 57 16  1  0
M  CHG  2  11   1  16   1
M  END
>  <b_m_subgroup_collapsed>  (441) 
0

>  <r_i_docking_score>  (441) 
-8.0120670708406703

>  <s_m_subgroup_title>  (441) 
glide-dock_SP_D22_pv

>  <s_m_subgroupid>  (441) 
glide-dock_SP_D22_pv

>  <Molecule ChEMBL ID>  (441) 
CHEMBL169889

>  <Standard Type>  (441) 
Ki

>  <Standard Value>  (441) 
43000.0

>  <label>  (441) 
0

$$$$
CHEMBL4552459
     RDKit          3D

 72 76  0  0  1  0  0  0  0  0999 V2000
    8.3761   -1.4305  -18.5197 C   0  0  0  0  0  0  0  0  0  0  0  0
    9.1391   -0.4212  -17.8749 O   0  0  0  0  0  0  0  0  0  0  0  0
   10.3677   -0.0724  -18.4016 C   0  0  0  0  0  0  0  0  0  0  0  0
   10.8843   -0.6278  -19.5989 C   0  0  0  0  0  0  0  0  0  0  0  0
   12.1365   -0.2278  -20.1018 C   0  0  0  0  0  0  0  0  0  0  0  0
   12.8903    0.7422  -19.4210 C   0  0  0  0  0  0  0  0  0  0  0  0
   12.3826    1.3177  -18.2435 C   0  0  0  0  0  0  0  0  0  0  0  0
   11.1296    0.9166  -17.7276 C   0  0  0  0  0  0  0  0  0  0  0  0
   10.6325    1.5385  -16.5728 N   0  0  0  0  0  0  0  0  0  0  0  0
   10.6682    2.9888  -16.4757 C   0  0  0  0  0  0  0  0  0  0  0  0
    9.3235    3.4927  -15.9283 C   0  0  0  0  0  0  0  0  0  0  0  0
    8.9237    2.8066  -14.5915 C   0  0  0  0  0  0  0  0  0  0  0  0
    7.5080    3.2482  -14.1482 C   0  0  0  0  0  0  0  0  0  0  0  0
    7.4572    4.7107  -13.6582 C   0  0  0  0  0  0  0  0  0  0  0  0
    8.4377    5.0007  -12.5822 N   0  0  0  0  0  0  0  0  0  0  0  0
    8.3309    6.4106  -12.1142 C   0  0  0  0  0  0  0  0  0  0  0  0
    9.2691    6.7438  -10.9298 C   0  0  0  0  0  0  0  0  0  0  0  0
    9.2889    8.2243  -10.5198 C   0  0  0  0  0  0  0  0  0  0  0  0
   10.8620    8.6733   -9.7236 S   0  0  0  0  0  0  0  0  0  0  0  0
   10.5885    8.0548   -8.0921 C   0  0  0  0  0  0  0  0  0  0  0  0
    9.6885    7.1425   -7.7156 N   0  0  0  0  0  0  0  0  0  0  0  0
    9.8622    6.9734   -6.3446 N   0  0  0  0  0  0  0  0  0  0  0  0
   10.8477    7.8011   -5.9826 C   0  0  0  0  0  0  0  0  0  0  0  0
   11.3624    7.9486   -4.6327 C   0  0  0  0  0  0  0  0  0  0  0  0
   11.5567    9.2331   -4.0757 C   0  0  0  0  0  0  0  0  0  0  0  0
   12.0861    9.3721   -2.7813 C   0  0  0  0  0  0  0  0  0  0  0  0
   12.4316    8.2287   -2.0396 C   0  0  0  0  0  0  0  0  0  0  0  0
   12.2243    6.9468   -2.5838 C   0  0  0  0  0  0  0  0  0  0  0  0
   11.6868    6.8057   -3.8758 C   0  0  0  0  0  0  0  0  0  0  0  0
   11.3094    8.4642   -7.0448 N   0  0  0  0  0  0  0  0  0  0  0  0
   12.3750    9.3723   -7.0470 N   0  0  0  0  0  0  0  0  0  0  0  0
    9.8117    4.6320  -13.0102 C   0  0  0  0  0  0  0  0  0  0  0  0
    9.8998    3.1737  -13.4554 C   0  0  0  0  0  0  0  0  0  0  0  0
    8.9339    1.2703  -14.8171 C   0  0  0  0  0  0  0  0  0  0  0  0
   10.2662    0.7604  -15.3960 C   0  0  0  0  0  0  0  0  0  0  0  0
    7.4507   -1.5875  -17.9643 H   0  0  0  0  0  0  0  0  0  0  0  0
    8.1061   -1.1433  -19.5361 H   0  0  0  0  0  0  0  0  0  0  0  0
    8.9122   -2.3796  -18.5398 H   0  0  0  0  0  0  0  0  0  0  0  0
   10.3334   -1.3725  -20.1527 H   0  0  0  0  0  0  0  0  0  0  0  0
   12.5211   -0.6678  -21.0110 H   0  0  0  0  0  0  0  0  0  0  0  0
   13.8526    1.0487  -19.8041 H   0  0  0  0  0  0  0  0  0  0  0  0
   12.9682    2.0634  -17.7252 H   0  0  0  0  0  0  0  0  0  0  0  0
   10.8446    3.4320  -17.4565 H   0  0  0  0  0  0  0  0  0  0  0  0
   11.4989    3.2912  -15.8371 H   0  0  0  0  0  0  0  0  0  0  0  0
    8.5590    3.2857  -16.6794 H   0  0  0  0  0  0  0  0  0  0  0  0
    9.3613    4.5771  -15.8368 H   0  0  0  0  0  0  0  0  0  0  0  0
    7.1413    2.5931  -13.3627 H   0  0  0  0  0  0  0  0  0  0  0  0
    6.8037    3.1057  -14.9680 H   0  0  0  0  0  0  0  0  0  0  0  0
    6.4481    4.9524  -13.3204 H   0  0  0  0  0  0  0  0  0  0  0  0
    7.6867    5.3721  -14.4889 H   0  0  0  0  0  0  0  0  0  0  0  0
    7.2919    6.6005  -11.8436 H   0  0  0  0  0  0  0  0  0  0  0  0
    8.5403    7.0770  -12.9493 H   0  0  0  0  0  0  0  0  0  0  0  0
   10.2985    6.5106  -11.1904 H   0  0  0  0  0  0  0  0  0  0  0  0
    9.0164    6.1160  -10.0757 H   0  0  0  0  0  0  0  0  0  0  0  0
    8.4860    8.4782   -9.8357 H   0  0  0  0  0  0  0  0  0  0  0  0
    9.1763    8.8583  -11.3992 H   0  0  0  0  0  0  0  0  0  0  0  0
   11.2906   10.1178   -4.6348 H   0  0  0  0  0  0  0  0  0  0  0  0
   12.2139   10.3549   -2.3550 H   0  0  0  0  0  0  0  0  0  0  0  0
   12.8437    8.3366   -1.0475 H   0  0  0  0  0  0  0  0  0  0  0  0
   12.4794    6.0662   -2.0119 H   0  0  0  0  0  0  0  0  0  0  0  0
   11.5375    5.8185   -4.2898 H   0  0  0  0  0  0  0  0  0  0  0  0
   12.7148    9.4304   -7.9988 H   0  0  0  0  0  0  0  0  0  0  0  0
   12.0029   10.2775   -6.7961 H   0  0  0  0  0  0  0  0  0  0  0  0
   10.1700    5.3081  -13.7878 H   0  0  0  0  0  0  0  0  0  0  0  0
   10.4867    4.7159  -12.1703 H   0  0  0  0  0  0  0  0  0  0  0  0
    9.6854    2.5724  -12.5809 H   0  0  0  0  0  0  0  0  0  0  0  0
   10.9298    2.9418  -13.7230 H   0  0  0  0  0  0  0  0  0  0  0  0
    8.7174    0.7489  -13.8820 H   0  0  0  0  0  0  0  0  0  0  0  0
    8.1331    0.9962  -15.5050 H   0  0  0  0  0  0  0  0  0  0  0  0
   10.1959   -0.3023  -15.6286 H   0  0  0  0  0  0  0  0  0  0  0  0
   11.0577    0.8561  -14.6551 H   0  0  0  0  0  0  0  0  0  0  0  0
    8.1974    4.4137  -11.7945 H   0  0  0  0  0  0  0  0  0  0  0  0
  2  1  1  0
  3  2  1  0
  4  3  2  0
  5  4  1  0
  6  5  2  0
  7  6  1  0
  8  3  1  0
  8  7  2  0
  9  8  1  0
 10  9  1  0
 11 10  1  0
 12 11  1  0
 13 12  1  0
 14 13  1  0
 15 14  1  0
 16 15  1  0
 17 16  1  0
 18 17  1  0
 19 18  1  0
 20 19  1  0
 21 20  2  0
 22 21  1  0
 23 22  2  0
 24 23  1  0
 25 24  2  0
 26 25  1  0
 27 26  2  0
 28 27  1  0
 29 24  1  0
 29 28  2  0
 30 20  1  0
 30 23  1  0
 31 30  1  0
 32 15  1  0
 33 12  1  0
 33 32  1  0
 34 12  1  0
 35  9  1  0
 35 34  1  0
 36  1  1  0
 37  1  1  0
 38  1  1  0
 39  4  1  0
 40  5  1  0
 41  6  1  0
 42  7  1  0
 43 10  1  0
 44 10  1  0
 45 11  1  0
 46 11  1  0
 47 13  1  0
 48 13  1  0
 49 14  1  0
 50 14  1  0
 51 16  1  0
 52 16  1  0
 53 17  1  0
 54 17  1  0
 55 18  1  0
 56 18  1  0
 57 25  1  0
 58 26  1  0
 59 27  1  0
 60 28  1  0
 61 29  1  0
 62 31  1  0
 63 31  1  0
 64 32  1  0
 65 32  1  0
 66 33  1  0
 67 33  1  0
 68 34  1  0
 69 34  1  0
 70 35  1  0
 71 35  1  0
 72 15  1  0
M  CHG  1  15   1
M  END
>  <b_m_subgroup_collapsed>  (442) 
0

>  <r_i_docking_score>  (442) 
-8.0078627654400893

>  <s_m_subgroup_title>  (442) 
glide-dock_SP_D22_pv

>  <s_m_subgroupid>  (442) 
glide-dock_SP_D22_pv

>  <Molecule ChEMBL ID>  (442) 
CHEMBL4552459

>  <Standard Type>  (442) 
Ki

>  <Standard Value>  (442) 
13904.0

>  <label>  (442) 
0

$$$$
CHEMBL2159472
     RDKit          3D

 54 57  0  0  1  0  0  0  0  0999 V2000
   10.6643    2.9074  -14.6433 O   0  0  0  0  0  0  0  0  0  0  0  0
    9.4031    3.5669  -14.2736 S   0  0  0  0  0  0  0  0  0  0  0  0
    8.8862    4.7045  -15.0464 O   0  0  0  0  0  0  0  0  0  0  0  0
    9.5484    4.0808  -12.6362 N   0  0  0  0  0  0  0  0  0  0  0  0
    8.5313    4.9517  -12.0350 C   0  0  2  0  0  0  0  0  0  0  0  0
    8.8417    6.4330  -12.3020 C   0  0  0  0  0  0  0  0  0  0  0  0
    9.1889    7.0310  -10.9386 C   0  0  0  0  0  0  0  0  0  0  0  0
    8.4863    6.1723   -9.9668 N   0  0  2  0  0  0  0  0  0  0  0  0
    8.8639    6.3307   -8.5391 C   0  0  0  0  0  0  0  0  0  0  0  0
   10.3181    5.9339   -8.2044 C   0  0  0  0  0  0  0  0  0  0  0  0
   10.6119    6.1724   -6.8350 O   0  0  0  0  0  0  0  0  0  0  0  0
   10.9343    7.4357   -6.4106 C   0  0  0  0  0  0  0  0  0  0  0  0
   10.9611    8.5442   -7.2790 C   0  0  0  0  0  0  0  0  0  0  0  0
   11.2697    9.8037   -6.7729 C   0  0  0  0  0  0  0  0  0  0  0  0
   11.5346    9.9935   -5.4157 C   0  0  0  0  0  0  0  0  0  0  0  0
   11.6190    8.8931   -4.5548 C   0  0  0  0  0  0  0  0  0  0  0  0
   11.2860    7.6103   -5.0485 C   0  0  0  0  0  0  0  0  0  0  0  0
   11.3381    6.3948   -4.1421 C   0  0  0  0  0  0  0  0  0  0  0  0
   11.6607    6.6710   -2.6638 C   0  0  0  0  0  0  0  0  0  0  0  0
   12.6482    7.8191   -2.5168 C   0  0  0  0  0  0  0  0  0  0  0  0
   12.0979    9.1049   -3.1298 C   0  0  0  0  0  0  0  0  0  0  0  0
    8.5183    4.7996  -10.5086 C   0  0  0  0  0  0  0  0  0  0  0  0
    8.1236    2.3218  -14.2471 C   0  0  0  0  0  0  0  0  0  0  0  0
    6.8017    2.4791  -13.9093 C   0  0  0  0  0  0  0  0  0  0  0  0
    6.0898    1.2418  -13.8701 C   0  0  0  0  0  0  0  0  0  0  0  0
    6.8595    0.1735  -14.2535 C   0  0  0  0  0  0  0  0  0  0  0  0
    8.4868    0.6618  -14.6468 S   0  0  0  0  0  0  0  0  0  0  0  0
   10.4983    4.3929  -12.4416 H   0  0  0  0  0  0  0  0  0  0  0  0
    7.5485    4.7125  -12.4332 H   0  0  0  0  0  0  0  0  0  0  0  0
    9.6454    6.5723  -13.0253 H   0  0  0  0  0  0  0  0  0  0  0  0
    7.9533    6.9244  -12.7021 H   0  0  0  0  0  0  0  0  0  0  0  0
   10.2677    6.9819  -10.7980 H   0  0  0  0  0  0  0  0  0  0  0  0
    8.8859    8.0749  -10.8493 H   0  0  0  0  0  0  0  0  0  0  0  0
    8.6701    7.3665   -8.2607 H   0  0  0  0  0  0  0  0  0  0  0  0
    8.1778    5.7354   -7.9346 H   0  0  0  0  0  0  0  0  0  0  0  0
   10.4546    4.8675   -8.3639 H   0  0  0  0  0  0  0  0  0  0  0  0
   11.0557    6.4109   -8.8466 H   0  0  0  0  0  0  0  0  0  0  0  0
   10.7360    8.4742   -8.3313 H   0  0  0  0  0  0  0  0  0  0  0  0
   11.2860   10.6320   -7.4452 H   0  0  0  0  0  0  0  0  0  0  0  0
   11.6860   10.9862   -5.0476 H   0  0  0  0  0  0  0  0  0  0  0  0
   10.4068    5.8479   -4.2304 H   0  0  0  0  0  0  0  0  0  0  0  0
   12.1043    5.7584   -4.5633 H   0  0  0  0  0  0  0  0  0  0  0  0
   10.7561    6.9220   -2.1130 H   0  0  0  0  0  0  0  0  0  0  0  0
   12.0528    5.7727   -2.1905 H   0  0  0  0  0  0  0  0  0  0  0  0
   12.8888    7.9808   -1.4662 H   0  0  0  0  0  0  0  0  0  0  0  0
   13.5585    7.5353   -3.0470 H   0  0  0  0  0  0  0  0  0  0  0  0
   12.8788    9.8653   -3.1218 H   0  0  0  0  0  0  0  0  0  0  0  0
   11.2845    9.4960   -2.5246 H   0  0  0  0  0  0  0  0  0  0  0  0
    7.6860    4.1970  -10.1559 H   0  0  0  0  0  0  0  0  0  0  0  0
    9.4269    4.2901  -10.1892 H   0  0  0  0  0  0  0  0  0  0  0  0
    6.3266    3.4147  -13.6598 H   0  0  0  0  0  0  0  0  0  0  0  0
    5.0468    1.1836  -13.5943 H   0  0  0  0  0  0  0  0  0  0  0  0
    6.5763   -0.8669  -14.3430 H   0  0  0  0  0  0  0  0  0  0  0  0
    7.5203    6.5009  -10.0263 H   0  0  0  0  0  0  0  0  0  0  0  0
  2  1  2  0
  3  2  2  0
  4  2  1  0
  5  4  1  0
  6  5  1  0
  7  6  1  0
  8  7  1  0
  9  8  1  0
 10  9  1  0
 11 10  1  0
 12 11  1  0
 13 12  1  0
 14 13  2  0
 15 14  1  0
 16 15  2  0
 17 12  2  0
 17 16  1  0
 18 17  1  0
 19 18  1  0
 20 19  1  0
 21 16  1  0
 21 20  1  0
 22  5  1  0
 22  8  1  0
 23  2  1  0
 24 23  2  0
 25 24  1  0
 26 25  2  0
 27 23  1  0
 27 26  1  0
 28  4  1  0
  5 29  1  6
 30  6  1  0
 31  6  1  0
 32  7  1  0
 33  7  1  0
 34  9  1  0
 35  9  1  0
 36 10  1  0
 37 10  1  0
 38 13  1  0
 39 14  1  0
 40 15  1  0
 41 18  1  0
 42 18  1  0
 43 19  1  0
 44 19  1  0
 45 20  1  0
 46 20  1  0
 47 21  1  0
 48 21  1  0
 49 22  1  0
 50 22  1  0
 51 24  1  0
 52 25  1  0
 53 26  1  0
  8 54  1  1
M  CHG  1   8   1
M  END
>  <b_m_subgroup_collapsed>  (443) 
0

>  <r_i_docking_score>  (443) 
-7.9980968605764504

>  <s_m_subgroup_title>  (443) 
glide-dock_SP_D22_pv

>  <s_m_subgroupid>  (443) 
glide-dock_SP_D22_pv

>  <Molecule ChEMBL ID>  (443) 
CHEMBL2159472

>  <Standard Type>  (443) 
Ki

>  <Standard Value>  (443) 
72.0

>  <label>  (443) 
1

$$$$
CHEMBL1082209
     RDKit          3D

 60 64  0  0  1  0  0  0  0  0999 V2000
   10.5715    5.3053  -17.6133 C   0  0  0  0  0  0  0  0  0  0  0  0
   11.6223    4.3115  -17.0843 C   0  0  1  0  0  0  0  0  0  0  0  0
   12.6968    5.0079  -16.2118 C   0  0  0  0  0  0  0  0  0  0  0  0
   12.1571    5.3798  -14.8949 N   0  0  0  0  0  0  0  0  0  0  0  0
   12.1723    6.6615  -14.4360 C   0  0  0  0  0  0  0  0  0  0  0  0
   12.6313    7.5925  -15.0982 O   0  0  0  0  0  0  0  0  0  0  0  0
   11.6814    6.9681  -13.0436 C   0  0  0  0  0  0  0  0  0  0  0  0
   10.4033    6.5726  -12.5932 C   0  0  0  0  0  0  0  0  0  0  0  0
    9.9915    6.8497  -11.2746 C   0  0  0  0  0  0  0  0  0  0  0  0
   10.8514    7.5018  -10.3565 C   0  0  0  0  0  0  0  0  0  0  0  0
   10.5241    7.5903   -8.9149 C   0  0  0  0  0  0  0  0  0  0  0  0
    9.6884    6.6090   -8.3375 C   0  0  0  0  0  0  0  0  0  0  0  0
    9.4634    6.5724   -6.9562 C   0  0  0  0  0  0  0  0  0  0  0  0
   10.0847    7.5063   -6.1136 C   0  0  0  0  0  0  0  0  0  0  0  0
   10.8613    8.5449   -6.6581 C   0  0  0  0  0  0  0  0  0  0  0  0
   11.4629    9.6003   -5.7356 C   0  0  0  0  0  0  0  0  0  0  0  0
   10.8872    9.5945   -4.5335 F   0  0  0  0  0  0  0  0  0  0  0  0
   12.7610    9.3730   -5.5685 F   0  0  0  0  0  0  0  0  0  0  0  0
   11.2994   10.8155   -6.2473 F   0  0  0  0  0  0  0  0  0  0  0  0
   11.0793    8.5772   -8.0566 C   0  0  0  0  0  0  0  0  0  0  0  0
   12.0864    7.9785  -10.8456 C   0  0  0  0  0  0  0  0  0  0  0  0
   12.4860    7.7315  -12.1732 C   0  0  0  0  0  0  0  0  0  0  0  0
   11.6812    4.1775  -14.2046 C   0  0  0  0  0  0  0  0  0  0  0  0
   10.5128    3.5816  -15.0072 C   0  0  0  0  0  0  0  0  0  0  0  0
   10.9797    3.1906  -16.3544 N   0  0  0  0  0  0  0  0  0  0  0  0
   10.9069    1.8912  -16.7636 C   0  0  0  0  0  0  0  0  0  0  0  0
   10.4859    0.9914  -16.0328 O   0  0  0  0  0  0  0  0  0  0  0  0
   11.4010    1.4898  -18.1325 C   0  0  0  0  0  0  0  0  0  0  0  0
   10.9637    2.1241  -19.3183 C   0  0  0  0  0  0  0  0  0  0  0  0
   11.4375    1.7023  -20.5797 C   0  0  0  0  0  0  0  0  0  0  0  0
   12.3462    0.6250  -20.7028 C   0  0  0  0  0  0  0  0  0  0  0  0
   13.0074   -0.0289  -21.8007 C   0  0  0  0  0  0  0  0  0  0  0  0
   13.7773   -1.0286  -21.2626 C   0  0  0  0  0  0  0  0  0  0  0  0
   13.6197   -1.0274  -19.8872 N   0  0  0  0  0  0  0  0  0  0  0  0
   12.7456   -0.0268  -19.5018 C   0  0  0  0  0  0  0  0  0  0  0  0
   12.2641    0.3791  -18.2468 C   0  0  0  0  0  0  0  0  0  0  0  0
   11.0334    6.0549  -18.2560 H   0  0  0  0  0  0  0  0  0  0  0  0
    9.7907    4.8126  -18.1916 H   0  0  0  0  0  0  0  0  0  0  0  0
   10.0846    5.8378  -16.7983 H   0  0  0  0  0  0  0  0  0  0  0  0
   12.1711    3.9401  -17.9487 H   0  0  0  0  0  0  0  0  0  0  0  0
   13.1083    5.8596  -16.7550 H   0  0  0  0  0  0  0  0  0  0  0  0
   13.5407    4.3328  -16.0614 H   0  0  0  0  0  0  0  0  0  0  0  0
    9.7293    6.0438  -13.2519 H   0  0  0  0  0  0  0  0  0  0  0  0
    9.0123    6.5137  -10.9657 H   0  0  0  0  0  0  0  0  0  0  0  0
    9.2323    5.8355   -8.9368 H   0  0  0  0  0  0  0  0  0  0  0  0
    8.8224    5.8088   -6.5454 H   0  0  0  0  0  0  0  0  0  0  0  0
    9.9380    7.4291   -5.0477 H   0  0  0  0  0  0  0  0  0  0  0  0
   11.6998    9.3623   -8.4619 H   0  0  0  0  0  0  0  0  0  0  0  0
   12.7746    8.4988  -10.1961 H   0  0  0  0  0  0  0  0  0  0  0  0
   13.4484    8.0899  -12.5086 H   0  0  0  0  0  0  0  0  0  0  0  0
   12.4859    3.4466  -14.1550 H   0  0  0  0  0  0  0  0  0  0  0  0
   11.3958    4.3393  -13.1692 H   0  0  0  0  0  0  0  0  0  0  0  0
   10.0927    2.7506  -14.4398 H   0  0  0  0  0  0  0  0  0  0  0  0
    9.7035    4.3054  -15.0959 H   0  0  0  0  0  0  0  0  0  0  0  0
   10.2584    2.9380  -19.2736 H   0  0  0  0  0  0  0  0  0  0  0  0
   11.0998    2.2090  -21.4707 H   0  0  0  0  0  0  0  0  0  0  0  0
   12.9096    0.2304  -22.8435 H   0  0  0  0  0  0  0  0  0  0  0  0
   14.4278   -1.7435  -21.7465 H   0  0  0  0  0  0  0  0  0  0  0  0
   14.1064   -1.6746  -19.2813 H   0  0  0  0  0  0  0  0  0  0  0  0
   12.5650   -0.1556  -17.3624 H   0  0  0  0  0  0  0  0  0  0  0  0
  2  1  1  0
  3  2  1  0
  4  3  1  0
  5  4  1  0
  6  5  2  0
  7  5  1  0
  8  7  1  0
  9  8  2  0
 10  9  1  0
 11 10  1  0
 12 11  1  0
 13 12  2  0
 14 13  1  0
 15 14  2  0
 16 15  1  0
 17 16  1  0
 18 16  1  0
 19 16  1  0
 20 11  2  0
 20 15  1  0
 21 10  2  0
 22  7  2  0
 22 21  1  0
 23  4  1  0
 24 23  1  0
 25  2  1  0
 25 24  1  0
 26 25  1  0
 27 26  2  0
 28 26  1  0
 29 28  2  0
 30 29  1  0
 31 30  2  0
 32 31  1  0
 33 32  2  0
 34 33  1  0
 35 31  1  0
 35 34  1  0
 36 28  1  0
 36 35  2  0
 37  1  1  0
 38  1  1  0
 39  1  1  0
  2 40  1  6
 41  3  1  0
 42  3  1  0
 43  8  1  0
 44  9  1  0
 45 12  1  0
 46 13  1  0
 47 14  1  0
 48 20  1  0
 49 21  1  0
 50 22  1  0
 51 23  1  0
 52 23  1  0
 53 24  1  0
 54 24  1  0
 55 29  1  0
 56 30  1  0
 57 32  1  0
 58 33  1  0
 59 34  1  0
 60 36  1  0
M  END
>  <b_m_subgroup_collapsed>  (444) 
0

>  <r_i_docking_score>  (444) 
-7.9928680724571297

>  <s_m_subgroup_title>  (444) 
glide-dock_SP_D22_pv

>  <s_m_subgroupid>  (444) 
glide-dock_SP_D22_pv

>  <Molecule ChEMBL ID>  (444) 
CHEMBL1082209

>  <Standard Type>  (444) 
Ki

>  <Standard Value>  (444) 
10000.0

>  <label>  (444) 
0

$$$$
CHEMBL569270
     RDKit          3D

 38 40  0  0  1  0  0  0  0  0999 V2000
    5.2854    2.6105  -12.5087 C   0  0  0  0  0  0  0  0  0  0  0  0
    5.8156    3.7924  -11.8487 N   0  0  0  0  0  0  0  0  0  0  0  0
    7.0158    4.3461  -12.2990 C   0  0  0  0  0  0  0  0  0  0  0  0
    7.7222    5.2016  -11.4476 C   0  0  0  0  0  0  0  0  0  0  0  0
    8.9545    5.6942  -11.9077 C   0  0  0  0  0  0  0  0  0  0  0  0
    9.7858    6.5638  -11.0709 C   0  0  0  0  0  0  0  0  0  0  0  0
   10.8359    7.3605  -11.4594 C   0  0  0  0  0  0  0  0  0  0  0  0
   11.5862    8.1718  -10.1181 S   0  0  0  0  0  0  0  0  0  0  0  0
   10.3895    7.4382   -9.0332 C   0  0  0  0  0  0  0  0  0  0  0  0
   10.3022    7.5819   -7.6018 N   0  0  0  0  0  0  0  0  0  0  0  0
    9.2787    6.8010   -6.8919 C   0  0  0  0  0  0  0  0  0  0  0  0
   11.1067    8.4389   -6.9237 C   0  0  0  0  0  0  0  0  0  0  0  0
   11.6859    9.3744   -7.4579 O   0  0  0  0  0  0  0  0  0  0  0  0
   11.3040    8.3074   -5.4389 C   0  0  0  0  0  0  0  0  0  0  0  0
   11.3047    9.4791   -4.6502 C   0  0  0  0  0  0  0  0  0  0  0  0
   11.6892    9.4257   -3.3001 C   0  0  0  0  0  0  0  0  0  0  0  0
   12.0856    8.2047   -2.7301 C   0  0  0  0  0  0  0  0  0  0  0  0
   12.4955    8.1723   -1.4465 F   0  0  0  0  0  0  0  0  0  0  0  0
   12.0624    7.0246   -3.4951 C   0  0  0  0  0  0  0  0  0  0  0  0
   11.6749    7.0751   -4.8488 C   0  0  0  0  0  0  0  0  0  0  0  0
    9.5527    6.6318   -9.6899 N   0  0  0  0  0  0  0  0  0  0  0  0
    9.4163    5.3759  -13.1366 N   0  0  0  0  0  0  0  0  0  0  0  0
    8.6588    4.5595  -13.8682 C   0  0  0  0  0  0  0  0  0  0  0  0
    7.4882    4.0252  -13.5214 N   0  0  0  0  0  0  0  0  0  0  0  0
    4.4858    2.1715  -11.9157 H   0  0  0  0  0  0  0  0  0  0  0  0
    4.8857    2.8764  -13.4848 H   0  0  0  0  0  0  0  0  0  0  0  0
    6.0604    1.8576  -12.6510 H   0  0  0  0  0  0  0  0  0  0  0  0
    5.5670    3.9871  -10.8800 H   0  0  0  0  0  0  0  0  0  0  0  0
    7.3370    5.4817  -10.4778 H   0  0  0  0  0  0  0  0  0  0  0  0
   11.2241    7.4834  -12.4590 H   0  0  0  0  0  0  0  0  0  0  0  0
    9.0425    7.1834   -5.9005 H   0  0  0  0  0  0  0  0  0  0  0  0
    8.3324    6.7961   -7.4332 H   0  0  0  0  0  0  0  0  0  0  0  0
    9.6129    5.7723   -6.7908 H   0  0  0  0  0  0  0  0  0  0  0  0
   11.0499   10.4334   -5.0898 H   0  0  0  0  0  0  0  0  0  0  0  0
   11.7110   10.3278   -2.7059 H   0  0  0  0  0  0  0  0  0  0  0  0
   12.3620    6.0866   -3.0505 H   0  0  0  0  0  0  0  0  0  0  0  0
   11.7073    6.1727   -5.4427 H   0  0  0  0  0  0  0  0  0  0  0  0
    9.0312    4.3084  -14.8501 H   0  0  0  0  0  0  0  0  0  0  0  0
  2  1  1  0
  3  2  1  0
  4  3  1  0
  5  4  2  0
  6  5  1  0
  7  6  2  0
  8  7  1  0
  9  8  1  0
 10  9  1  0
 11 10  1  0
 12 10  1  0
 13 12  2  0
 14 12  1  0
 15 14  1  0
 16 15  2  0
 17 16  1  0
 18 17  1  0
 19 17  2  0
 20 14  2  0
 20 19  1  0
 21  6  1  0
 21  9  2  0
 22  5  1  0
 23 22  2  0
 24  3  2  0
 24 23  1  0
 25  1  1  0
 26  1  1  0
 27  1  1  0
 28  2  1  0
 29  4  1  0
 30  7  1  0
 31 11  1  0
 32 11  1  0
 33 11  1  0
 34 15  1  0
 35 16  1  0
 36 19  1  0
 37 20  1  0
 38 23  1  0
M  END
>  <b_m_subgroup_collapsed>  (445) 
0

>  <r_i_docking_score>  (445) 
-7.9924901698372404

>  <s_m_subgroup_title>  (445) 
glide-dock_SP_D22_pv

>  <s_m_subgroupid>  (445) 
glide-dock_SP_D22_pv

>  <Molecule ChEMBL ID>  (445) 
CHEMBL569270

>  <Standard Type>  (445) 
Ki

>  <Standard Value>  (445) 
10000.0

>  <label>  (445) 
0

$$$$
CHEMBL5723004
     RDKit          3D

 47 49  0  0  1  0  0  0  0  0999 V2000
   12.6095    8.9932   -1.4476 C   0  0  0  0  0  0  0  0  0  0  0  0
   12.1530    8.4594   -2.7867 C   0  0  0  0  0  0  0  0  0  0  0  0
   11.9478    7.0786   -2.9662 C   0  0  0  0  0  0  0  0  0  0  0  0
   11.5000    6.5963   -4.2094 C   0  0  0  0  0  0  0  0  0  0  0  0
   11.2851    7.4744   -5.2854 C   0  0  0  0  0  0  0  0  0  0  0  0
   10.8553    6.9799   -6.5211 N   0  0  0  0  0  0  0  0  0  0  0  0
   10.7043    7.7967   -7.6323 C   0  0  0  0  0  0  0  0  0  0  0  0
   10.3515    7.0706   -8.9241 C   0  0  0  0  0  0  0  0  0  0  0  0
    8.8868    7.0026   -9.1358 N   0  0  0  0  0  0  0  0  0  0  0  0
    8.3687    5.7017   -9.6089 C   0  0  0  0  0  0  0  0  0  0  0  0
    8.8411    5.2630  -11.0105 C   0  0  0  0  0  0  0  0  0  0  0  0
    8.0295    5.8126  -12.2148 C   0  0  2  0  0  0  0  0  0  0  0  0
    6.5264    5.4466  -12.2685 C   0  0  0  0  0  0  0  0  0  0  0  0
    6.3112    3.9496  -12.5103 C   0  0  0  0  0  0  0  0  0  0  0  0
    7.0579    3.5278  -13.7791 C   0  0  0  0  0  0  0  0  0  0  0  0
    8.5243    3.9958  -13.7487 C   0  0  0  0  0  0  0  0  0  0  0  0
    8.6239    5.3912  -13.4470 O   0  0  0  0  0  0  0  0  0  0  0  0
   10.9698    9.1204   -7.5684 C   0  0  0  0  0  0  0  0  0  0  0  0
   11.4016    9.7660   -6.3014 C   0  0  0  0  0  0  0  0  0  0  0  0
   11.6686   10.9684   -6.2465 O   0  0  0  0  0  0  0  0  0  0  0  0
   11.5348    8.8583   -5.1252 C   0  0  0  0  0  0  0  0  0  0  0  0
   11.9348    9.3448   -3.8606 C   0  0  0  0  0  0  0  0  0  0  0  0
   13.6621    8.7645   -1.2682 H   0  0  0  0  0  0  0  0  0  0  0  0
   12.4852   10.0724   -1.3961 H   0  0  0  0  0  0  0  0  0  0  0  0
   12.0052    8.5739   -0.6479 H   0  0  0  0  0  0  0  0  0  0  0  0
   12.1100    6.3901   -2.1497 H   0  0  0  0  0  0  0  0  0  0  0  0
   11.3161    5.5473   -4.3353 H   0  0  0  0  0  0  0  0  0  0  0  0
   10.7050    5.9828   -6.5974 H   0  0  0  0  0  0  0  0  0  0  0  0
   10.8240    7.5555   -9.7798 H   0  0  0  0  0  0  0  0  0  0  0  0
   10.7681    6.0634   -8.8768 H   0  0  0  0  0  0  0  0  0  0  0  0
    8.4137    7.1842   -8.2595 H   0  0  0  0  0  0  0  0  0  0  0  0
    8.6299    4.9397   -8.8737 H   0  0  0  0  0  0  0  0  0  0  0  0
    7.2882    5.7726   -9.6032 H   0  0  0  0  0  0  0  0  0  0  0  0
    9.8957    5.5006  -11.1456 H   0  0  0  0  0  0  0  0  0  0  0  0
    8.7964    4.1765  -11.0215 H   0  0  0  0  0  0  0  0  0  0  0  0
    8.1053    6.9004  -12.1903 H   0  0  0  0  0  0  0  0  0  0  0  0
    5.9905    5.7734  -11.3831 H   0  0  0  0  0  0  0  0  0  0  0  0
    6.0604    5.9994  -13.0842 H   0  0  0  0  0  0  0  0  0  0  0  0
    5.2461    3.7351  -12.6111 H   0  0  0  0  0  0  0  0  0  0  0  0
    6.6559    3.3756  -11.6501 H   0  0  0  0  0  0  0  0  0  0  0  0
    6.5540    3.9521  -14.6461 H   0  0  0  0  0  0  0  0  0  0  0  0
    7.0129    2.4456  -13.9025 H   0  0  0  0  0  0  0  0  0  0  0  0
    8.9815    3.8237  -14.7222 H   0  0  0  0  0  0  0  0  0  0  0  0
    9.1041    3.4035  -13.0417 H   0  0  0  0  0  0  0  0  0  0  0  0
   10.8973    9.7418   -8.4489 H   0  0  0  0  0  0  0  0  0  0  0  0
   12.0853   10.3982   -3.7000 H   0  0  0  0  0  0  0  0  0  0  0  0
    8.5731    7.7169   -9.7815 H   0  0  0  0  0  0  0  0  0  0  0  0
  2  1  1  0
  3  2  2  0
  4  3  1  0
  5  4  2  0
  6  5  1  0
  7  6  1  0
  8  7  1  0
  9  8  1  0
 10  9  1  0
 11 10  1  0
 12 11  1  0
 13 12  1  0
 14 13  1  0
 15 14  1  0
 16 15  1  0
 17 12  1  0
 17 16  1  0
 18  7  2  0
 19 18  1  0
 20 19  2  0
 21  5  1  0
 21 19  1  0
 22  2  1  0
 22 21  2  0
 23  1  1  0
 24  1  1  0
 25  1  1  0
 26  3  1  0
 27  4  1  0
 28  6  1  0
 29  8  1  0
 30  8  1  0
 31  9  1  0
 32 10  1  0
 33 10  1  0
 34 11  1  0
 35 11  1  0
 12 36  1  6
 37 13  1  0
 38 13  1  0
 39 14  1  0
 40 14  1  0
 41 15  1  0
 42 15  1  0
 43 16  1  0
 44 16  1  0
 45 18  1  0
 46 22  1  0
 47  9  1  0
M  CHG  1   9   1
M  END
>  <b_m_subgroup_collapsed>  (446) 
0

>  <r_i_docking_score>  (446) 
-7.9897254487232798

>  <s_m_subgroup_title>  (446) 
glide-dock_SP_D22_pv

>  <s_m_subgroupid>  (446) 
glide-dock_SP_D22_pv

>  <Molecule ChEMBL ID>  (446) 
CHEMBL5723004

>  <Standard Type>  (446) 
Ki

>  <Standard Value>  (446) 
10000.0

>  <label>  (446) 
0

$$$$
CHEMBL6047884
     RDKit          3D

 54 58  0  0  1  0  0  0  0  0999 V2000
    8.3001    1.1369  -16.0051 C   0  0  0  0  0  0  0  0  0  0  0  0
    9.3430    2.1112  -15.4983 C   0  0  0  0  0  0  0  0  0  0  0  0
   10.6545    2.0884  -16.0073 C   0  0  0  0  0  0  0  0  0  0  0  0
   11.5866    3.0053  -15.4891 C   0  0  0  0  0  0  0  0  0  0  0  0
   11.1754    3.8963  -14.4790 C   0  0  0  0  0  0  0  0  0  0  0  0
    9.8314    3.8618  -14.0422 C   0  0  0  0  0  0  0  0  0  0  0  0
    8.9364    2.9788  -14.5483 N   0  0  0  0  0  0  0  0  0  0  0  0
    9.3478    4.8140  -12.9758 C   0  0  0  0  0  0  0  0  0  0  0  0
    8.2515    4.6393  -12.4406 O   0  0  0  0  0  0  0  0  0  0  0  0
   10.1454    5.8721  -12.6846 N   0  0  0  0  0  0  0  0  0  0  0  0
    9.6909    6.9341  -11.7772 C   0  0  0  0  0  0  0  0  0  0  0  0
    9.7764    6.5097  -10.2978 C   0  0  0  0  0  0  0  0  0  0  0  0
    9.3899    7.6068   -9.4079 N   0  0  0  0  0  0  0  0  0  0  0  0
    9.0016    7.1460   -8.0690 C   0  0  0  0  0  0  0  0  0  0  0  0
   10.2123    6.6142   -7.2675 C   0  0  0  0  0  0  0  0  0  0  0  0
   11.2890    7.5990   -7.2251 N   0  0  0  0  0  0  0  0  0  0  0  0
   11.2736    8.5003   -6.1509 C   0  0  0  0  0  0  0  0  0  0  0  0
   11.0514    9.8080   -6.2625 N   0  0  0  0  0  0  0  0  0  0  0  0
   11.2237   10.3599   -4.9640 O   0  0  0  0  0  0  0  0  0  0  0  0
   11.6406    9.3708   -4.0834 C   0  0  0  0  0  0  0  0  0  0  0  0
   12.0537    9.4178   -2.7462 C   0  0  0  0  0  0  0  0  0  0  0  0
   12.4351    8.2097   -2.1252 C   0  0  0  0  0  0  0  0  0  0  0  0
   12.3579    6.9891   -2.8368 C   0  0  0  0  0  0  0  0  0  0  0  0
   11.9512    6.9695   -4.1905 C   0  0  0  0  0  0  0  0  0  0  0  0
   11.6143    8.1873   -4.8201 C   0  0  0  0  0  0  0  0  0  0  0  0
   11.6492    8.1543   -8.5273 C   0  0  0  0  0  0  0  0  0  0  0  0
   10.4015    8.6608   -9.2789 C   0  0  0  0  0  0  0  0  0  0  0  0
   11.4486    6.1298  -13.3278 C   0  0  0  0  0  0  0  0  0  0  0  0
   12.1522    4.8723  -13.8607 C   0  0  0  0  0  0  0  0  0  0  0  0
    8.4440    0.9371  -17.0664 H   0  0  0  0  0  0  0  0  0  0  0  0
    8.3711    0.1938  -15.4632 H   0  0  0  0  0  0  0  0  0  0  0  0
    7.2939    1.5333  -15.8675 H   0  0  0  0  0  0  0  0  0  0  0  0
   10.9451    1.3834  -16.7722 H   0  0  0  0  0  0  0  0  0  0  0  0
   12.6046    3.0069  -15.8481 H   0  0  0  0  0  0  0  0  0  0  0  0
   10.2764    7.8340  -11.9578 H   0  0  0  0  0  0  0  0  0  0  0  0
    8.6624    7.2128  -12.0178 H   0  0  0  0  0  0  0  0  0  0  0  0
    9.0957    5.6737  -10.1357 H   0  0  0  0  0  0  0  0  0  0  0  0
   10.7714    6.1432  -10.0568 H   0  0  0  0  0  0  0  0  0  0  0  0
    8.5397    7.9774   -7.5316 H   0  0  0  0  0  0  0  0  0  0  0  0
    8.2305    6.3788   -8.1511 H   0  0  0  0  0  0  0  0  0  0  0  0
    9.8957    6.3592   -6.2557 H   0  0  0  0  0  0  0  0  0  0  0  0
   10.5887    5.6956   -7.7130 H   0  0  0  0  0  0  0  0  0  0  0  0
   12.0854   10.3583   -2.2203 H   0  0  0  0  0  0  0  0  0  0  0  0
   12.7647    8.2192   -1.0960 H   0  0  0  0  0  0  0  0  0  0  0  0
   12.6299    6.0639   -2.3486 H   0  0  0  0  0  0  0  0  0  0  0  0
   11.9255    6.0421   -4.7446 H   0  0  0  0  0  0  0  0  0  0  0  0
   12.3645    8.9688   -8.4072 H   0  0  0  0  0  0  0  0  0  0  0  0
   12.1739    7.3945   -9.1057 H   0  0  0  0  0  0  0  0  0  0  0  0
   10.6834    9.0594  -10.2519 H   0  0  0  0  0  0  0  0  0  0  0  0
    9.9509    9.4930   -8.7393 H   0  0  0  0  0  0  0  0  0  0  0  0
   12.1231    6.6486  -12.6451 H   0  0  0  0  0  0  0  0  0  0  0  0
   11.2842    6.8115  -14.1623 H   0  0  0  0  0  0  0  0  0  0  0  0
   12.6758    4.3658  -13.0503 H   0  0  0  0  0  0  0  0  0  0  0  0
   12.9158    5.1540  -14.5871 H   0  0  0  0  0  0  0  0  0  0  0  0
  2  1  1  0
  3  2  2  0
  4  3  1  0
  5  4  2  0
  6  5  1  0
  7  2  1  0
  7  6  2  0
  8  6  1  0
  9  8  2  0
 10  8  1  0
 11 10  1  0
 12 11  1  0
 13 12  1  0
 14 13  1  0
 15 14  1  0
 16 15  1  0
 17 16  1  0
 18 17  2  0
 19 18  1  0
 20 19  1  0
 21 20  2  0
 22 21  1  0
 23 22  2  0
 24 23  1  0
 25 17  1  0
 25 20  1  0
 25 24  2  0
 26 16  1  0
 27 13  1  0
 27 26  1  0
 28 10  1  0
 29  5  1  0
 29 28  1  0
 30  1  1  0
 31  1  1  0
 32  1  1  0
 33  3  1  0
 34  4  1  0
 35 11  1  0
 36 11  1  0
 37 12  1  0
 38 12  1  0
 39 14  1  0
 40 14  1  0
 41 15  1  0
 42 15  1  0
 43 21  1  0
 44 22  1  0
 45 23  1  0
 46 24  1  0
 47 26  1  0
 48 26  1  0
 49 27  1  0
 50 27  1  0
 51 28  1  0
 52 28  1  0
 53 29  1  0
 54 29  1  0
M  END
>  <b_m_subgroup_collapsed>  (447) 
0

>  <r_i_docking_score>  (447) 
-7.9892521067669904

>  <s_m_subgroup_title>  (447) 
glide-dock_SP_D22_pv

>  <s_m_subgroupid>  (447) 
glide-dock_SP_D22_pv

>  <Molecule ChEMBL ID>  (447) 
CHEMBL6047884

>  <Standard Type>  (447) 
Ki

>  <Standard Value>  (447) 
10000.0

>  <label>  (447) 
0

$$$$
CHEMBL5764090
     RDKit          3D

 52 56  0  0  1  0  0  0  0  0999 V2000
   11.7418    2.6712  -16.1361 C   0  0  0  0  0  0  0  0  0  0  0  0
   11.7212    3.8056  -15.2363 N   0  0  0  0  0  0  0  0  0  0  0  0
   12.7404    4.7070  -15.2535 N   0  0  0  0  0  0  0  0  0  0  0  0
   12.4279    5.6213  -14.3401 C   0  0  0  0  0  0  0  0  0  0  0  0
   11.2020    5.2826  -13.7142 C   0  0  0  0  0  0  0  0  0  0  0  0
   10.7659    4.1484  -14.3019 C   0  0  0  0  0  0  0  0  0  0  0  0
    9.4875    3.4710  -13.9880 C   0  0  0  0  0  0  0  0  0  0  0  0
    8.9522    3.9760  -12.6244 C   0  0  0  0  0  0  0  0  0  0  0  0
    9.2749    5.3883  -12.2898 N   0  0  0  0  0  0  0  0  0  0  0  0
    8.2558    6.0819  -11.4978 C   0  0  0  0  0  0  0  0  0  0  0  0
    8.3431    5.7588   -9.9898 C   0  0  0  0  0  0  0  0  0  0  0  0
    9.5400    6.2481   -9.3070 N   0  0  0  0  0  0  0  0  0  0  0  0
    9.5925    7.7162   -9.3028 C   0  0  0  0  0  0  0  0  0  0  0  0
   10.9013    8.1667   -8.6306 C   0  0  0  0  0  0  0  0  0  0  0  0
   10.9621    7.6617   -7.2632 N   0  0  0  0  0  0  0  0  0  0  0  0
   11.1668    8.5235   -6.1711 C   0  0  0  0  0  0  0  0  0  0  0  0
   10.9763    9.8384   -6.2506 N   0  0  0  0  0  0  0  0  0  0  0  0
   11.2849   10.3806   -4.9775 O   0  0  0  0  0  0  0  0  0  0  0  0
   11.6854    9.3718   -4.1173 C   0  0  0  0  0  0  0  0  0  0  0  0
   12.0858    9.4086   -2.7757 C   0  0  0  0  0  0  0  0  0  0  0  0
   12.4463    8.1969   -2.1543 C   0  0  0  0  0  0  0  0  0  0  0  0
   12.3938    6.9873   -2.8849 C   0  0  0  0  0  0  0  0  0  0  0  0
   11.9894    6.9775   -4.2359 C   0  0  0  0  0  0  0  0  0  0  0  0
   11.6145    8.1932   -4.8611 C   0  0  0  0  0  0  0  0  0  0  0  0
   10.6556    6.2499   -7.0887 C   0  0  0  0  0  0  0  0  0  0  0  0
    9.4211    5.8319   -7.9067 C   0  0  0  0  0  0  0  0  0  0  0  0
   10.4249    6.0098  -12.6666 C   0  0  0  0  0  0  0  0  0  0  0  0
   10.8119    7.1009  -12.2499 O   0  0  0  0  0  0  0  0  0  0  0  0
   11.4595    1.7644  -15.5971 H   0  0  0  0  0  0  0  0  0  0  0  0
   11.0355    2.8371  -16.9515 H   0  0  0  0  0  0  0  0  0  0  0  0
   12.7423    2.5328  -16.5512 H   0  0  0  0  0  0  0  0  0  0  0  0
   13.0773    6.4676  -14.1740 H   0  0  0  0  0  0  0  0  0  0  0  0
    8.7636    3.7015  -14.7726 H   0  0  0  0  0  0  0  0  0  0  0  0
    9.6106    2.3878  -13.9728 H   0  0  0  0  0  0  0  0  0  0  0  0
    9.4258    3.3746  -11.8472 H   0  0  0  0  0  0  0  0  0  0  0  0
    7.8845    3.7716  -12.5534 H   0  0  0  0  0  0  0  0  0  0  0  0
    8.2720    7.1565  -11.6835 H   0  0  0  0  0  0  0  0  0  0  0  0
    7.2681    5.7831  -11.8524 H   0  0  0  0  0  0  0  0  0  0  0  0
    7.4725    6.1685   -9.4813 H   0  0  0  0  0  0  0  0  0  0  0  0
    8.2758    4.6763   -9.8628 H   0  0  0  0  0  0  0  0  0  0  0  0
    9.5810    8.1150  -10.3152 H   0  0  0  0  0  0  0  0  0  0  0  0
    8.7239    8.1370   -8.7935 H   0  0  0  0  0  0  0  0  0  0  0  0
   11.7508    7.7750   -9.1901 H   0  0  0  0  0  0  0  0  0  0  0  0
   10.9793    9.2515   -8.6769 H   0  0  0  0  0  0  0  0  0  0  0  0
   12.0982   10.3468   -2.2427 H   0  0  0  0  0  0  0  0  0  0  0  0
   12.7575    8.1936   -1.1199 H   0  0  0  0  0  0  0  0  0  0  0  0
   12.6782    6.0585   -2.4075 H   0  0  0  0  0  0  0  0  0  0  0  0
   11.9969    6.0416   -4.7680 H   0  0  0  0  0  0  0  0  0  0  0  0
   11.5261    5.6539   -7.3599 H   0  0  0  0  0  0  0  0  0  0  0  0
   10.4061    6.0463   -6.0537 H   0  0  0  0  0  0  0  0  0  0  0  0
    8.5241    6.2672   -7.4577 H   0  0  0  0  0  0  0  0  0  0  0  0
    9.2949    4.7476   -7.8487 H   0  0  0  0  0  0  0  0  0  0  0  0
  2  1  1  0
  3  2  1  0
  4  3  2  0
  5  4  1  0
  6  2  1  0
  6  5  2  0
  7  6  1  0
  8  7  1  0
  9  8  1  0
 10  9  1  0
 11 10  1  0
 12 11  1  0
 13 12  1  0
 14 13  1  0
 15 14  1  0
 16 15  1  0
 17 16  2  0
 18 17  1  0
 19 18  1  0
 20 19  2  0
 21 20  1  0
 22 21  2  0
 23 22  1  0
 24 16  1  0
 24 19  1  0
 24 23  2  0
 25 15  1  0
 26 12  1  0
 26 25  1  0
 27  5  1  0
 27  9  1  0
 28 27  2  0
 29  1  1  0
 30  1  1  0
 31  1  1  0
 32  4  1  0
 33  7  1  0
 34  7  1  0
 35  8  1  0
 36  8  1  0
 37 10  1  0
 38 10  1  0
 39 11  1  0
 40 11  1  0
 41 13  1  0
 42 13  1  0
 43 14  1  0
 44 14  1  0
 45 20  1  0
 46 21  1  0
 47 22  1  0
 48 23  1  0
 49 25  1  0
 50 25  1  0
 51 26  1  0
 52 26  1  0
M  END
>  <b_m_subgroup_collapsed>  (448) 
0

>  <r_i_docking_score>  (448) 
-7.9865368022066603

>  <s_m_subgroup_title>  (448) 
glide-dock_SP_D22_pv

>  <s_m_subgroupid>  (448) 
glide-dock_SP_D22_pv

>  <Molecule ChEMBL ID>  (448) 
CHEMBL5764090

>  <Standard Type>  (448) 
Ki

>  <Standard Value>  (448) 
10000.0

>  <label>  (448) 
0

$$$$
CHEMBL282083
     RDKit          3D

 57 60  0  0  1  0  0  0  0  0999 V2000
   11.8936    5.3294  -15.7755 C   0  0  0  0  0  0  0  0  0  0  0  0
   11.8214    4.3731  -14.7286 O   0  0  0  0  0  0  0  0  0  0  0  0
   10.6325    3.6851  -14.6841 C   0  0  0  0  0  0  0  0  0  0  0  0
    9.5851    4.1003  -13.8158 C   0  0  0  0  0  0  0  0  0  0  0  0
    9.7333    5.2932  -12.8959 C   0  0  0  0  0  0  0  0  0  0  0  0
   10.5669    6.1727  -13.1002 O   0  0  0  0  0  0  0  0  0  0  0  0
    8.9413    5.3126  -11.8104 N   0  0  0  0  0  0  0  0  0  0  0  0
    8.8878    6.3852  -10.8179 C   0  0  0  0  0  0  0  0  0  0  0  0
   10.2205    6.5298  -10.0598 C   0  0  0  0  0  0  0  0  0  0  0  0
   10.1297    7.4398   -8.9238 N   0  0  0  0  0  0  0  0  0  0  0  0
    9.5512    6.7174   -7.7807 C   0  0  0  0  0  0  0  0  0  0  0  0
    9.4486    7.6283   -6.5493 C   0  0  0  0  0  0  0  0  0  0  0  0
   10.7349    8.2508   -6.2721 N   0  0  0  0  0  0  0  0  0  0  0  0
   11.3146    8.2033   -5.0021 C   0  0  0  0  0  0  0  0  0  0  0  0
   11.5245    6.9721   -4.3444 C   0  0  0  0  0  0  0  0  0  0  0  0
   12.0818    6.9433   -3.0494 C   0  0  0  0  0  0  0  0  0  0  0  0
   12.4284    8.1472   -2.4074 C   0  0  0  0  0  0  0  0  0  0  0  0
   12.2258    9.3726   -3.0655 C   0  0  0  0  0  0  0  0  0  0  0  0
   11.6862    9.4018   -4.3630 C   0  0  0  0  0  0  0  0  0  0  0  0
   11.4225    8.8785   -7.3859 C   0  0  0  0  0  0  0  0  0  0  0  0
   11.4803    7.8843   -8.5571 C   0  0  0  0  0  0  0  0  0  0  0  0
    8.3739    3.3711  -13.8254 C   0  0  0  0  0  0  0  0  0  0  0  0
    8.2259    2.1917  -14.5826 C   0  0  0  0  0  0  0  0  0  0  0  0
    6.9975    1.4219  -14.4008 C   0  0  0  0  0  0  0  0  0  0  0  0
    6.0281    0.8088  -14.2459 N   0  0  0  0  0  0  0  0  0  0  0  0
    9.2791    1.7560  -15.4264 C   0  0  0  0  0  0  0  0  0  0  0  0
    9.1734    0.5768  -16.2092 C   0  0  0  0  0  0  0  0  0  0  0  0
   10.2290    0.1672  -17.0423 C   0  0  0  0  0  0  0  0  0  0  0  0
   11.4076    0.9282  -17.1004 C   0  0  0  0  0  0  0  0  0  0  0  0
   11.5314    2.0895  -16.3204 C   0  0  0  0  0  0  0  0  0  0  0  0
   10.4772    2.5190  -15.4815 C   0  0  0  0  0  0  0  0  0  0  0  0
   12.8311    5.8790  -15.6967 H   0  0  0  0  0  0  0  0  0  0  0  0
   11.8633    4.8605  -16.7593 H   0  0  0  0  0  0  0  0  0  0  0  0
   11.0779    6.0529  -15.7227 H   0  0  0  0  0  0  0  0  0  0  0  0
    8.3059    4.5407  -11.6709 H   0  0  0  0  0  0  0  0  0  0  0  0
    8.0826    6.1449  -10.1285 H   0  0  0  0  0  0  0  0  0  0  0  0
    8.6140    7.3258  -11.2997 H   0  0  0  0  0  0  0  0  0  0  0  0
   10.9721    6.9092  -10.7531 H   0  0  0  0  0  0  0  0  0  0  0  0
   10.5553    5.5513   -9.7215 H   0  0  0  0  0  0  0  0  0  0  0  0
   10.1622    5.8467   -7.5375 H   0  0  0  0  0  0  0  0  0  0  0  0
    8.5551    6.3472   -8.0203 H   0  0  0  0  0  0  0  0  0  0  0  0
    9.1212    7.0386   -5.6964 H   0  0  0  0  0  0  0  0  0  0  0  0
    8.6993    8.4039   -6.7146 H   0  0  0  0  0  0  0  0  0  0  0  0
   11.2511    6.0461   -4.8271 H   0  0  0  0  0  0  0  0  0  0  0  0
   12.2311    5.9980   -2.5478 H   0  0  0  0  0  0  0  0  0  0  0  0
   12.8446    8.1319   -1.4108 H   0  0  0  0  0  0  0  0  0  0  0  0
   12.4855   10.2961   -2.5729 H   0  0  0  0  0  0  0  0  0  0  0  0
   11.5250   10.3495   -4.8567 H   0  0  0  0  0  0  0  0  0  0  0  0
   10.8853    9.7725   -7.6875 H   0  0  0  0  0  0  0  0  0  0  0  0
   12.4299    9.1795   -7.0986 H   0  0  0  0  0  0  0  0  0  0  0  0
   12.0857    7.0254   -8.2730 H   0  0  0  0  0  0  0  0  0  0  0  0
   11.9627    8.3647   -9.4104 H   0  0  0  0  0  0  0  0  0  0  0  0
    7.5512    3.6769  -13.1925 H   0  0  0  0  0  0  0  0  0  0  0  0
    8.2843   -0.0383  -16.1900 H   0  0  0  0  0  0  0  0  0  0  0  0
   10.1356   -0.7331  -17.6327 H   0  0  0  0  0  0  0  0  0  0  0  0
   12.2268    0.6117  -17.7311 H   0  0  0  0  0  0  0  0  0  0  0  0
   12.4623    2.6351  -16.3625 H   0  0  0  0  0  0  0  0  0  0  0  0
  2  1  1  0
  3  2  1  0
  4  3  2  0
  5  4  1  0
  6  5  2  0
  7  5  1  0
  8  7  1  0
  9  8  1  0
 10  9  1  0
 11 10  1  0
 12 11  1  0
 13 12  1  0
 14 13  1  0
 15 14  2  0
 16 15  1  0
 17 16  2  0
 18 17  1  0
 19 14  1  0
 19 18  2  0
 20 13  1  0
 21 10  1  0
 21 20  1  0
 22  4  1  0
 23 22  2  0
 24 23  1  0
 25 24  3  0
 26 23  1  0
 27 26  2  0
 28 27  1  0
 29 28  2  0
 30 29  1  0
 31  3  1  0
 31 26  1  0
 31 30  2  0
 32  1  1  0
 33  1  1  0
 34  1  1  0
 35  7  1  0
 36  8  1  0
 37  8  1  0
 38  9  1  0
 39  9  1  0
 40 11  1  0
 41 11  1  0
 42 12  1  0
 43 12  1  0
 44 15  1  0
 45 16  1  0
 46 17  1  0
 47 18  1  0
 48 19  1  0
 49 20  1  0
 50 20  1  0
 51 21  1  0
 52 21  1  0
 53 22  1  0
 54 27  1  0
 55 28  1  0
 56 29  1  0
 57 30  1  0
M  END
>  <b_m_subgroup_collapsed>  (449) 
0

>  <r_i_docking_score>  (449) 
-7.9845084462604703

>  <s_m_subgroup_title>  (449) 
glide-dock_SP_D22_pv

>  <s_m_subgroupid>  (449) 
glide-dock_SP_D22_pv

>  <Molecule ChEMBL ID>  (449) 
CHEMBL282083

>  <Standard Type>  (449) 
Ki

>  <Standard Value>  (449) 
71.0

>  <label>  (449) 
1

$$$$
CHEMBL252539
     RDKit          3D

 65 68  0  0  1  0  0  0  0  0999 V2000
    5.4246    8.2029  -12.7299 C   0  0  0  0  0  0  0  0  0  0  0  0
    5.8891    6.7514  -12.6446 C   0  0  0  0  0  0  0  0  0  0  0  0
    7.4236    6.6217  -12.6473 C   0  0  0  0  0  0  0  0  0  0  0  0
    7.9109    5.4366  -11.8767 N   0  0  2  0  0  0  0  0  0  0  0  0
    9.2506    5.6271  -11.2456 C   0  0  0  0  0  0  0  0  0  0  0  0
    9.4305    6.9689  -10.5049 C   0  0  0  0  0  0  0  0  0  0  0  0
   10.3559    6.8484   -9.3883 N   0  0  0  0  0  0  0  0  0  0  0  0
    9.6102    6.4922   -8.1703 C   0  0  0  0  0  0  0  0  0  0  0  0
   10.5712    6.3278   -6.9781 C   0  0  0  0  0  0  0  0  0  0  0  0
   11.4107    7.5020   -6.8360 N   0  0  0  0  0  0  0  0  0  0  0  0
   11.2932    8.3432   -5.7231 C   0  0  0  0  0  0  0  0  0  0  0  0
   10.8860    9.6704   -5.9352 C   0  0  0  0  0  0  0  0  0  0  0  0
   10.8860   10.5725   -4.8717 C   0  0  0  0  0  0  0  0  0  0  0  0
   11.3398   10.1724   -3.6058 C   0  0  0  0  0  0  0  0  0  0  0  0
   11.7808    8.8784   -3.3782 C   0  0  0  0  0  0  0  0  0  0  0  0
   12.4828    8.4876   -1.8478 Cl  0  0  0  0  0  0  0  0  0  0  0  0
   11.6859    7.9445   -4.4163 C   0  0  0  0  0  0  0  0  0  0  0  0
   12.0857    6.3410   -4.0172 Cl  0  0  0  0  0  0  0  0  0  0  0  0
   12.0353    8.0244   -8.0477 C   0  0  0  0  0  0  0  0  0  0  0  0
   10.9983    8.1473   -9.1720 C   0  0  0  0  0  0  0  0  0  0  0  0
    7.8429    4.1254  -12.6030 C   0  0  2  0  0  0  0  0  0  0  0  0
    8.4467    4.1390  -14.0151 C   0  0  0  0  0  0  0  0  0  0  0  0
    8.5546    2.7225  -14.6043 C   0  0  0  0  0  0  0  0  0  0  0  0
    7.3238    1.8511  -14.3731 C   0  0  0  0  0  0  0  0  0  0  0  0
    7.2091    0.6042  -15.0340 C   0  0  0  0  0  0  0  0  0  0  0  0
    8.1825    0.1724  -15.8870 O   0  0  0  0  0  0  0  0  0  0  0  0
    6.0954   -0.2270  -14.8015 C   0  0  0  0  0  0  0  0  0  0  0  0
    5.0966    0.1715  -13.8964 C   0  0  0  0  0  0  0  0  0  0  0  0
    5.2260    1.3903  -13.2097 C   0  0  0  0  0  0  0  0  0  0  0  0
    6.3220    2.2370  -13.4470 C   0  0  0  0  0  0  0  0  0  0  0  0
    6.4252    3.5169  -12.6328 C   0  0  0  0  0  0  0  0  0  0  0  0
    4.4861    8.3540  -12.2094 H   0  0  0  0  0  0  0  0  0  0  0  0
    6.1166    8.8938  -12.2470 H   0  0  0  0  0  0  0  0  0  0  0  0
    5.2862    8.5114  -13.7649 H   0  0  0  0  0  0  0  0  0  0  0  0
    5.4159    6.1943  -13.4466 H   0  0  0  0  0  0  0  0  0  0  0  0
    5.4946    6.3293  -11.7195 H   0  0  0  0  0  0  0  0  0  0  0  0
    7.8005    7.5396  -12.2109 H   0  0  0  0  0  0  0  0  0  0  0  0
    7.8381    6.6527  -13.6490 H   0  0  0  0  0  0  0  0  0  0  0  0
    9.3975    4.8051  -10.5428 H   0  0  0  0  0  0  0  0  0  0  0  0
   10.0400    5.5297  -11.9916 H   0  0  0  0  0  0  0  0  0  0  0  0
    9.7998    7.6999  -11.2264 H   0  0  0  0  0  0  0  0  0  0  0  0
    8.4861    7.3583  -10.1301 H   0  0  0  0  0  0  0  0  0  0  0  0
    8.8679    7.2598   -7.9400 H   0  0  0  0  0  0  0  0  0  0  0  0
    9.0609    5.5624   -8.3216 H   0  0  0  0  0  0  0  0  0  0  0  0
    9.9993    6.1711   -6.0630 H   0  0  0  0  0  0  0  0  0  0  0  0
   11.2202    5.4668   -7.1261 H   0  0  0  0  0  0  0  0  0  0  0  0
   10.5777   10.0077   -6.9124 H   0  0  0  0  0  0  0  0  0  0  0  0
   10.5843   11.5869   -5.0465 H   0  0  0  0  0  0  0  0  0  0  0  0
   11.4227   10.8915   -2.8076 H   0  0  0  0  0  0  0  0  0  0  0  0
   12.5068    8.9903   -7.8659 H   0  0  0  0  0  0  0  0  0  0  0  0
   12.8497    7.3724   -8.3489 H   0  0  0  0  0  0  0  0  0  0  0  0
   11.5045    8.4726  -10.0818 H   0  0  0  0  0  0  0  0  0  0  0  0
   10.2514    8.9058   -8.9321 H   0  0  0  0  0  0  0  0  0  0  0  0
    8.4638    3.4233  -12.0453 H   0  0  0  0  0  0  0  0  0  0  0  0
    9.4253    4.6180  -14.0371 H   0  0  0  0  0  0  0  0  0  0  0  0
    7.7941    4.7309  -14.6469 H   0  0  0  0  0  0  0  0  0  0  0  0
    9.4041    2.2077  -14.1531 H   0  0  0  0  0  0  0  0  0  0  0  0
    8.7625    2.7856  -15.6731 H   0  0  0  0  0  0  0  0  0  0  0  0
    8.0832   -0.7492  -16.0905 H   0  0  0  0  0  0  0  0  0  0  0  0
    6.0060   -1.1767  -15.3101 H   0  0  0  0  0  0  0  0  0  0  0  0
    4.2399   -0.4634  -13.7278 H   0  0  0  0  0  0  0  0  0  0  0  0
    4.4861    1.6913  -12.4886 H   0  0  0  0  0  0  0  0  0  0  0  0
    5.6981    4.1812  -13.0814 H   0  0  0  0  0  0  0  0  0  0  0  0
    6.0870    3.3302  -11.6123 H   0  0  0  0  0  0  0  0  0  0  0  0
    7.2818    5.3679  -11.0856 H   0  0  0  0  0  0  0  0  0  0  0  0
  2  1  1  0
  3  2  1  0
  4  3  1  0
  5  4  1  0
  6  5  1  0
  7  6  1  0
  8  7  1  0
  9  8  1  0
 10  9  1  0
 11 10  1  0
 12 11  2  0
 13 12  1  0
 14 13  2  0
 15 14  1  0
 16 15  1  0
 17 11  1  0
 17 15  2  0
 18 17  1  0
 19 10  1  0
 20  7  1  0
 20 19  1  0
 21  4  1  0
 22 21  1  0
 23 22  1  0
 24 23  1  0
 25 24  2  0
 26 25  1  0
 27 25  1  0
 28 27  2  0
 29 28  1  0
 30 24  1  0
 30 29  2  0
 31 21  1  0
 31 30  1  0
 32  1  1  0
 33  1  1  0
 34  1  1  0
 35  2  1  0
 36  2  1  0
 37  3  1  0
 38  3  1  0
 39  5  1  0
 40  5  1  0
 41  6  1  0
 42  6  1  0
 43  8  1  0
 44  8  1  0
 45  9  1  0
 46  9  1  0
 47 12  1  0
 48 13  1  0
 49 14  1  0
 50 19  1  0
 51 19  1  0
 52 20  1  0
 53 20  1  0
 21 54  1  1
 55 22  1  0
 56 22  1  0
 57 23  1  0
 58 23  1  0
 59 26  1  0
 60 27  1  0
 61 28  1  0
 62 29  1  0
 63 31  1  0
 64 31  1  0
  4 65  1  1
M  CHG  1   4   1
M  END
>  <b_m_subgroup_collapsed>  (450) 
0

>  <r_i_docking_score>  (450) 
-7.9842565858498604

>  <s_m_subgroup_title>  (450) 
glide-dock_SP_D22_pv

>  <s_m_subgroupid>  (450) 
glide-dock_SP_D22_pv

>  <Molecule ChEMBL ID>  (450) 
CHEMBL252539

>  <Standard Type>  (450) 
Ki

>  <Standard Value>  (450) 
14.6

>  <label>  (450) 
1

$$$$
CHEMBL11388
     RDKit          3D

 42 44  0  0  1  0  0  0  0  0999 V2000
    8.5546    6.4750  -12.8400 C   0  0  0  0  0  0  0  0  0  0  0  0
    8.6726    7.8278  -12.1108 C   0  0  0  0  0  0  0  0  0  0  0  0
    9.5198    7.8202  -10.8279 C   0  0  0  0  0  0  0  0  0  0  0  0
    8.8861    7.0917   -9.6959 N   0  0  1  0  0  0  0  0  0  0  0  0
    8.9490    5.6104   -9.8339 C   0  0  0  0  0  0  0  0  0  0  0  0
    9.6084    5.0562   -8.5663 C   0  0  0  0  0  0  0  0  0  0  0  0
   10.4100    6.2492   -8.0623 C   0  0  2  0  0  0  0  0  0  0  0  0
   10.8728    6.2270   -6.6003 C   0  0  0  0  0  0  0  0  0  0  0  0
   11.0820    7.5979   -5.9726 C   0  0  0  0  0  0  0  0  0  0  0  0
   10.7287    8.7815   -6.6727 C   0  0  0  0  0  0  0  0  0  0  0  0
   10.8861   10.0236   -6.0367 C   0  0  0  0  0  0  0  0  0  0  0  0
   11.2860   10.0824   -4.6976 C   0  0  0  0  0  0  0  0  0  0  0  0
   11.6748    8.9281   -4.0126 C   0  0  0  0  0  0  0  0  0  0  0  0
   11.5840    7.6693   -4.6478 C   0  0  0  0  0  0  0  0  0  0  0  0
   11.9143    6.4929   -4.0139 O   0  0  0  0  0  0  0  0  0  0  0  0
   12.4316    6.5695   -2.6944 C   0  0  0  0  0  0  0  0  0  0  0  0
   10.1341    8.7326   -8.0770 C   0  0  0  0  0  0  0  0  0  0  0  0
    9.4422    7.3836   -8.3422 C   0  0  1  0  0  0  0  0  0  0  0  0
    8.0858    6.5732  -13.8173 H   0  0  0  0  0  0  0  0  0  0  0  0
    7.9411    5.7639  -12.2869 H   0  0  0  0  0  0  0  0  0  0  0  0
    9.5353    6.0293  -13.0075 H   0  0  0  0  0  0  0  0  0  0  0  0
    9.1155    8.5719  -12.7711 H   0  0  0  0  0  0  0  0  0  0  0  0
    7.6859    8.2234  -11.8952 H   0  0  0  0  0  0  0  0  0  0  0  0
   10.5271    7.4472  -11.0168 H   0  0  0  0  0  0  0  0  0  0  0  0
    9.6231    8.8701  -10.5636 H   0  0  0  0  0  0  0  0  0  0  0  0
    7.9524    5.1951   -9.9868 H   0  0  0  0  0  0  0  0  0  0  0  0
    9.5642    5.3171  -10.6830 H   0  0  0  0  0  0  0  0  0  0  0  0
    8.8388    4.7771   -7.8471 H   0  0  0  0  0  0  0  0  0  0  0  0
   10.2213    4.1758   -8.7611 H   0  0  0  0  0  0  0  0  0  0  0  0
   11.2849    6.3960   -8.6956 H   0  0  0  0  0  0  0  0  0  0  0  0
   10.0943    5.7725   -5.9981 H   0  0  0  0  0  0  0  0  0  0  0  0
   11.7820    5.6334   -6.4989 H   0  0  0  0  0  0  0  0  0  0  0  0
   10.6206   10.9374   -6.5438 H   0  0  0  0  0  0  0  0  0  0  0  0
   11.2859   11.0156   -4.1770 H   0  0  0  0  0  0  0  0  0  0  0  0
   11.9902    9.0405   -2.9867 H   0  0  0  0  0  0  0  0  0  0  0  0
   12.7814    5.5914   -2.3725 H   0  0  0  0  0  0  0  0  0  0  0  0
   11.6675    6.9013   -1.9906 H   0  0  0  0  0  0  0  0  0  0  0  0
   13.2843    7.2438   -2.6487 H   0  0  0  0  0  0  0  0  0  0  0  0
    9.4069    9.5348   -8.1978 H   0  0  0  0  0  0  0  0  0  0  0  0
   10.9554    8.9145   -8.7715 H   0  0  0  0  0  0  0  0  0  0  0  0
    8.6002    7.2986   -7.6514 H   0  0  0  0  0  0  0  0  0  0  0  0
    7.8982    7.3732   -9.7195 H   0  0  0  0  0  0  0  0  0  0  0  0
  2  1  1  0
  3  2  1  0
  4  3  1  0
  5  4  1  0
  6  5  1  0
  7  6  1  0
  8  7  1  0
  9  8  1  0
 10  9  1  0
 11 10  2  0
 12 11  1  0
 13 12  2  0
 14  9  2  0
 14 13  1  0
 15 14  1  0
 16 15  1  0
 17 10  1  0
 18  4  1  0
 18  7  1  0
 18 17  1  0
 19  1  1  0
 20  1  1  0
 21  1  1  0
 22  2  1  0
 23  2  1  0
 24  3  1  0
 25  3  1  0
 26  5  1  0
 27  5  1  0
 28  6  1  0
 29  6  1  0
  7 30  1  6
 31  8  1  0
 32  8  1  0
 33 11  1  0
 34 12  1  0
 35 13  1  0
 36 16  1  0
 37 16  1  0
 38 16  1  0
 39 17  1  0
 40 17  1  0
 18 41  1  1
  4 42  1  1
M  CHG  1   4   1
M  END
>  <b_m_subgroup_collapsed>  (451) 
0

>  <r_i_docking_score>  (451) 
-7.98359554673387

>  <s_m_subgroup_title>  (451) 
glide-dock_SP_D22_pv

>  <s_m_subgroupid>  (451) 
glide-dock_SP_D22_pv

>  <Molecule ChEMBL ID>  (451) 
CHEMBL11388

>  <Standard Type>  (451) 
Ki

>  <Standard Value>  (451) 
75.0

>  <label>  (451) 
1

$$$$
CHEMBL4443848
     RDKit          3D

 49 51  0  0  1  0  0  0  0  0999 V2000
    9.0448    0.8953  -14.6655 C   0  0  0  0  0  0  0  0  0  0  0  0
    8.0371    1.8632  -15.2957 C   0  0  0  0  0  0  0  0  0  0  0  0
    7.2989    2.6745  -14.2470 C   0  0  0  0  0  0  0  0  0  0  0  0
    6.0861    2.1992  -13.7120 C   0  0  0  0  0  0  0  0  0  0  0  0
    5.4138    2.9404  -12.7238 C   0  0  0  0  0  0  0  0  0  0  0  0
    5.9540    4.1549  -12.2585 C   0  0  0  0  0  0  0  0  0  0  0  0
    7.1798    4.6300  -12.7654 C   0  0  0  0  0  0  0  0  0  0  0  0
    7.6788    5.8531  -12.2373 N   0  0  0  0  0  0  0  0  0  0  0  0
    8.9653    6.2412  -12.1519 C   0  0  0  0  0  0  0  0  0  0  0  0
    9.9259    5.5887  -12.5577 O   0  0  0  0  0  0  0  0  0  0  0  0
    9.2366    7.5823  -11.4703 C   0  0  0  0  0  0  0  0  0  0  0  0
    9.2859    7.4898   -9.9864 N   0  0  0  0  0  0  0  0  0  0  0  0
    9.3301    8.8341   -9.3657 C   0  0  0  0  0  0  0  0  0  0  0  0
    9.3047    8.7635   -7.8325 C   0  0  0  0  0  0  0  0  0  0  0  0
   10.3426    7.8647   -7.3300 N   0  0  0  0  0  0  0  0  0  0  0  0
   10.8073    8.0469   -6.0075 C   0  0  0  0  0  0  0  0  0  0  0  0
   11.1965    6.9534   -5.1979 C   0  0  0  0  0  0  0  0  0  0  0  0
   11.6954    7.1872   -3.9046 C   0  0  0  0  0  0  0  0  0  0  0  0
   11.8235    8.5116   -3.4590 C   0  0  0  0  0  0  0  0  0  0  0  0
   12.4862    8.8508   -1.9025 Cl  0  0  0  0  0  0  0  0  0  0  0  0
   11.3903    9.5425   -4.3135 C   0  0  0  0  0  0  0  0  0  0  0  0
   10.8891    9.3200   -5.5492 N   0  0  0  0  0  0  0  0  0  0  0  0
   10.3511    6.5303   -7.9250 C   0  0  0  0  0  0  0  0  0  0  0  0
   10.3575    6.5998   -9.4611 C   0  0  0  0  0  0  0  0  0  0  0  0
    7.8405    3.8903  -13.7799 C   0  0  0  0  0  0  0  0  0  0  0  0
    9.5589    0.3125  -15.4296 H   0  0  0  0  0  0  0  0  0  0  0  0
    9.8000    1.4346  -14.0926 H   0  0  0  0  0  0  0  0  0  0  0  0
    8.5509    0.1969  -13.9884 H   0  0  0  0  0  0  0  0  0  0  0  0
    7.3137    1.3084  -15.8931 H   0  0  0  0  0  0  0  0  0  0  0  0
    8.5475    2.5396  -15.9808 H   0  0  0  0  0  0  0  0  0  0  0  0
    5.6668    1.2649  -14.0589 H   0  0  0  0  0  0  0  0  0  0  0  0
    4.4863    2.5674  -12.3210 H   0  0  0  0  0  0  0  0  0  0  0  0
    5.4314    4.7076  -11.4907 H   0  0  0  0  0  0  0  0  0  0  0  0
    7.0004    6.4360  -11.7573 H   0  0  0  0  0  0  0  0  0  0  0  0
    8.4560    8.2843  -11.7686 H   0  0  0  0  0  0  0  0  0  0  0  0
   10.1775    7.9905  -11.8427 H   0  0  0  0  0  0  0  0  0  0  0  0
    8.4798    9.4204   -9.7138 H   0  0  0  0  0  0  0  0  0  0  0  0
   10.2333    9.3542   -9.6914 H   0  0  0  0  0  0  0  0  0  0  0  0
    8.3338    8.4138   -7.4791 H   0  0  0  0  0  0  0  0  0  0  0  0
    9.4341    9.7722   -7.4527 H   0  0  0  0  0  0  0  0  0  0  0  0
   11.1161    5.9301   -5.5254 H   0  0  0  0  0  0  0  0  0  0  0  0
   11.9963    6.3606   -3.2786 H   0  0  0  0  0  0  0  0  0  0  0  0
   11.4387   10.5721   -3.9955 H   0  0  0  0  0  0  0  0  0  0  0  0
   11.2341    5.9678   -7.6205 H   0  0  0  0  0  0  0  0  0  0  0  0
    9.4766    5.9792   -7.5719 H   0  0  0  0  0  0  0  0  0  0  0  0
   10.2444    5.5853   -9.8455 H   0  0  0  0  0  0  0  0  0  0  0  0
   11.3255    6.9671   -9.8086 H   0  0  0  0  0  0  0  0  0  0  0  0
    8.7696    4.2373  -14.2056 H   0  0  0  0  0  0  0  0  0  0  0  0
    8.3879    7.1027   -9.7080 H   0  0  0  0  0  0  0  0  0  0  0  0
  2  1  1  0
  3  2  1  0
  4  3  2  0
  5  4  1  0
  6  5  2  0
  7  6  1  0
  8  7  1  0
  9  8  1  0
 10  9  2  0
 11  9  1  0
 12 11  1  0
 13 12  1  0
 14 13  1  0
 15 14  1  0
 16 15  1  0
 17 16  2  0
 18 17  1  0
 19 18  2  0
 20 19  1  0
 21 19  1  0
 22 16  1  0
 22 21  2  0
 23 15  1  0
 24 12  1  0
 24 23  1  0
 25  3  1  0
 25  7  2  0
 26  1  1  0
 27  1  1  0
 28  1  1  0
 29  2  1  0
 30  2  1  0
 31  4  1  0
 32  5  1  0
 33  6  1  0
 34  8  1  0
 35 11  1  0
 36 11  1  0
 37 13  1  0
 38 13  1  0
 39 14  1  0
 40 14  1  0
 41 17  1  0
 42 18  1  0
 43 21  1  0
 44 23  1  0
 45 23  1  0
 46 24  1  0
 47 24  1  0
 48 25  1  0
 49 12  1  0
M  CHG  1  12   1
M  END
>  <b_m_subgroup_collapsed>  (452) 
0

>  <r_i_docking_score>  (452) 
-7.9811408885109003

>  <s_m_subgroup_title>  (452) 
glide-dock_SP_D22_pv

>  <s_m_subgroupid>  (452) 
glide-dock_SP_D22_pv

>  <Molecule ChEMBL ID>  (452) 
CHEMBL4443848

>  <Standard Type>  (452) 
Ki

>  <Standard Value>  (452) 
46260.0

>  <label>  (452) 
0

$$$$
CHEMBL3765266
     RDKit          3D

 65 69  0  0  1  0  0  0  0  0999 V2000
   12.7268    8.4845   -1.4485 C   0  0  0  0  0  0  0  0  0  0  0  0
   12.1707    8.7807   -2.7928 C   0  0  0  0  0  0  0  0  0  0  0  0
   12.0871    7.9467   -3.8247 N   0  0  0  0  0  0  0  0  0  0  0  0
   11.5379    8.7753   -4.7530 C   0  0  0  0  0  0  0  0  0  0  0  0
   11.2346    8.3247   -6.1146 C   0  0  0  0  0  0  0  0  0  0  0  0
   10.8927    6.9801   -6.3796 C   0  0  0  0  0  0  0  0  0  0  0  0
   10.5933    6.5677   -7.6902 C   0  0  0  0  0  0  0  0  0  0  0  0
   10.6335    7.4939   -8.7511 C   0  0  0  0  0  0  0  0  0  0  0  0
   10.3261    7.0868  -10.1134 C   0  0  0  0  0  0  0  0  0  0  0  0
   11.0838    7.4720  -11.1446 N   0  0  0  0  0  0  0  0  0  0  0  0
   10.5035    6.9279  -12.2591 N   0  0  0  0  0  0  0  0  0  0  0  0
    9.4351    6.2612  -11.8193 C   0  0  0  0  0  0  0  0  0  0  0  0
    8.3193    5.3763  -12.8565 S   0  0  0  0  0  0  0  0  0  0  0  0
    9.4482    4.0916  -13.4525 C   0  0  0  0  0  0  0  0  0  0  0  0
   10.2729    4.5660  -14.6591 C   0  0  0  0  0  0  0  0  0  0  0  0
   11.3482    3.5836  -15.1543 C   0  0  0  0  0  0  0  0  0  0  0  0
   10.8464    2.5224  -16.0253 N   0  0  0  0  0  0  0  0  0  0  0  0
   10.4052    1.3400  -15.2873 C   0  0  0  0  0  0  0  0  0  0  0  0
    9.8488    0.2636  -16.2282 C   0  0  0  0  0  0  0  0  0  0  0  0
   10.8342   -0.0761  -17.1974 O   0  0  0  0  0  0  0  0  0  0  0  0
   11.2940    1.0393  -17.9636 C   0  0  2  0  0  0  0  0  0  0  0  0
   12.3263    0.6282  -19.0023 C   0  0  0  0  0  0  0  0  0  0  0  0
   12.8051   -0.6957  -19.0470 C   0  0  0  0  0  0  0  0  0  0  0  0
   13.7475   -1.0821  -20.0153 C   0  0  0  0  0  0  0  0  0  0  0  0
   14.2401   -0.1423  -20.9442 C   0  0  0  0  0  0  0  0  0  0  0  0
   15.2898   -0.5455  -21.9653 C   0  0  0  0  0  0  0  0  0  0  0  0
   16.4857   -0.1939  -21.5033 F   0  0  0  0  0  0  0  0  0  0  0  0
   15.2860   -1.8614  -22.1843 F   0  0  0  0  0  0  0  0  0  0  0  0
   15.0793    0.0735  -23.1269 F   0  0  0  0  0  0  0  0  0  0  0  0
   13.7716    1.1866  -20.8932 C   0  0  0  0  0  0  0  0  0  0  0  0
   12.8123    1.5696  -19.9347 C   0  0  0  0  0  0  0  0  0  0  0  0
   11.8463    2.1072  -17.0004 C   0  0  0  0  0  0  0  0  0  0  0  0
    9.2817    6.3190  -10.4873 N   0  0  0  0  0  0  0  0  0  0  0  0
    8.2218    5.7354   -9.6870 C   0  0  0  0  0  0  0  0  0  0  0  0
   10.9841    8.8321   -8.4948 C   0  0  0  0  0  0  0  0  0  0  0  0
   11.2806    9.2410   -7.1855 C   0  0  0  0  0  0  0  0  0  0  0  0
   11.2680   10.0160   -4.3755 N   0  0  0  0  0  0  0  0  0  0  0  0
   11.6860   10.0219   -3.0422 O   0  0  0  0  0  0  0  0  0  0  0  0
   12.8855    7.4119   -1.3431 H   0  0  0  0  0  0  0  0  0  0  0  0
   13.6847    8.9859   -1.3224 H   0  0  0  0  0  0  0  0  0  0  0  0
   12.0386    8.8275   -0.6778 H   0  0  0  0  0  0  0  0  0  0  0  0
   10.8554    6.2580   -5.5764 H   0  0  0  0  0  0  0  0  0  0  0  0
   10.3418    5.5343   -7.8761 H   0  0  0  0  0  0  0  0  0  0  0  0
   10.0894    3.7582  -12.6362 H   0  0  0  0  0  0  0  0  0  0  0  0
    8.8172    3.2513  -13.7309 H   0  0  0  0  0  0  0  0  0  0  0  0
    9.6058    4.8304  -15.4805 H   0  0  0  0  0  0  0  0  0  0  0  0
   10.7843    5.4895  -14.3947 H   0  0  0  0  0  0  0  0  0  0  0  0
   12.0638    4.1859  -15.7164 H   0  0  0  0  0  0  0  0  0  0  0  0
   11.9178    3.1696  -14.3218 H   0  0  0  0  0  0  0  0  0  0  0  0
   11.2413    0.9280  -14.7203 H   0  0  0  0  0  0  0  0  0  0  0  0
    9.6408    1.5892  -14.5586 H   0  0  0  0  0  0  0  0  0  0  0  0
    9.5798   -0.6277  -15.6632 H   0  0  0  0  0  0  0  0  0  0  0  0
    8.9454    0.6150  -16.7264 H   0  0  0  0  0  0  0  0  0  0  0  0
   10.4411    1.4483  -18.5099 H   0  0  0  0  0  0  0  0  0  0  0  0
   12.4484   -1.4270  -18.3395 H   0  0  0  0  0  0  0  0  0  0  0  0
   14.0871   -2.1069  -20.0324 H   0  0  0  0  0  0  0  0  0  0  0  0
   14.1458    1.9159  -21.5968 H   0  0  0  0  0  0  0  0  0  0  0  0
   12.4561    2.5890  -19.9186 H   0  0  0  0  0  0  0  0  0  0  0  0
   12.1744    2.9744  -17.5744 H   0  0  0  0  0  0  0  0  0  0  0  0
   12.7302    1.7257  -16.4899 H   0  0  0  0  0  0  0  0  0  0  0  0
    7.2864    5.7723  -10.2459 H   0  0  0  0  0  0  0  0  0  0  0  0
    8.4592    4.6982   -9.4504 H   0  0  0  0  0  0  0  0  0  0  0  0
    8.0854    6.2982   -8.7662 H   0  0  0  0  0  0  0  0  0  0  0  0
   11.0245    9.5484   -9.3044 H   0  0  0  0  0  0  0  0  0  0  0  0
   11.5457   10.2717   -7.0075 H   0  0  0  0  0  0  0  0  0  0  0  0
  2  1  1  0
  3  2  2  0
  4  3  1  0
  5  4  1  0
  6  5  1  0
  7  6  2  0
  8  7  1  0
  9  8  1  0
 10  9  2  0
 11 10  1  0
 12 11  2  0
 13 12  1  0
 14 13  1  0
 15 14  1  0
 16 15  1  0
 17 16  1  0
 18 17  1  0
 19 18  1  0
 20 19  1  0
 21 20  1  0
 22 21  1  0
 23 22  1  0
 24 23  2  0
 25 24  1  0
 26 25  1  0
 27 26  1  0
 28 26  1  0
 29 26  1  0
 30 25  2  0
 31 22  2  0
 31 30  1  0
 32 17  1  0
 32 21  1  0
 33  9  1  0
 33 12  1  0
 34 33  1  0
 35  8  2  0
 36  5  2  0
 36 35  1  0
 37  4  2  0
 38  2  1  0
 38 37  1  0
 39  1  1  0
 40  1  1  0
 41  1  1  0
 42  6  1  0
 43  7  1  0
 44 14  1  0
 45 14  1  0
 46 15  1  0
 47 15  1  0
 48 16  1  0
 49 16  1  0
 50 18  1  0
 51 18  1  0
 52 19  1  0
 53 19  1  0
 21 54  1  6
 55 23  1  0
 56 24  1  0
 57 30  1  0
 58 31  1  0
 59 32  1  0
 60 32  1  0
 61 34  1  0
 62 34  1  0
 63 34  1  0
 64 35  1  0
 65 36  1  0
M  END
>  <b_m_subgroup_collapsed>  (453) 
0

>  <r_i_docking_score>  (453) 
-7.9791613094158

>  <s_m_subgroup_title>  (453) 
glide-dock_SP_D22_pv

>  <s_m_subgroupid>  (453) 
glide-dock_SP_D22_pv

>  <Molecule ChEMBL ID>  (453) 
CHEMBL3765266

>  <Standard Type>  (453) 
Ki

>  <Standard Value>  (453) 
10000.0

>  <label>  (453) 
0

$$$$
CHEMBL169459
     RDKit          3D

 53 56  0  0  1  0  0  0  0  0999 V2000
   10.5222    1.4239  -16.4013 C   0  0  0  0  0  0  0  0  0  0  0  0
    9.6662    0.7798  -15.4873 C   0  0  0  0  0  0  0  0  0  0  0  0
    8.8314    1.5429  -14.6478 C   0  0  0  0  0  0  0  0  0  0  0  0
    8.8484    2.9556  -14.7166 C   0  0  0  0  0  0  0  0  0  0  0  0
    8.0136    3.7362  -13.8037 C   0  0  0  0  0  0  0  0  0  0  0  0
    6.7451    3.3719  -13.5243 N   0  0  0  0  0  0  0  0  0  0  0  0
    5.8724    4.0064  -12.5205 C   0  0  0  0  0  0  0  0  0  0  0  0
    6.2915    5.4580  -12.2548 C   0  0  0  0  0  0  0  0  0  0  0  0
    7.8205    5.5854  -12.1068 C   0  0  1  0  0  0  0  0  0  0  0  0
    8.3533    5.1018  -10.7355 C   0  0  0  0  0  0  0  0  0  0  0  0
    8.4878    6.1696   -9.7091 N   0  0  0  0  0  0  0  0  0  0  0  0
    8.6003    5.5578   -8.3545 C   0  0  0  0  0  0  0  0  0  0  0  0
    8.9045    6.5825   -7.2566 C   0  0  0  0  0  0  0  0  0  0  0  0
   10.1038    7.3303   -7.5954 N   0  0  0  0  0  0  0  0  0  0  0  0
   10.7539    7.9453   -6.5061 C   0  0  0  0  0  0  0  0  0  0  0  0
   11.0742    9.3205   -6.5174 C   0  0  0  0  0  0  0  0  0  0  0  0
   11.6871    9.9216   -5.4076 C   0  0  0  0  0  0  0  0  0  0  0  0
   12.0063    9.1639   -4.2666 C   0  0  0  0  0  0  0  0  0  0  0  0
   11.7154    7.7885   -4.2475 C   0  0  0  0  0  0  0  0  0  0  0  0
   11.1007    7.1855   -5.3624 C   0  0  0  0  0  0  0  0  0  0  0  0
    9.9754    8.0429   -8.8621 C   0  0  0  0  0  0  0  0  0  0  0  0
    9.6433    7.0687  -10.0068 C   0  0  0  0  0  0  0  0  0  0  0  0
    8.5000    4.8272  -13.1780 N   0  0  0  0  0  0  0  0  0  0  0  0
    9.7054    3.5969  -15.6391 C   0  0  0  0  0  0  0  0  0  0  0  0
   10.5391    2.8306  -16.4785 C   0  0  0  0  0  0  0  0  0  0  0  0
   11.1665    0.8388  -17.0417 H   0  0  0  0  0  0  0  0  0  0  0  0
    9.6523   -0.2995  -15.4257 H   0  0  0  0  0  0  0  0  0  0  0  0
    8.1981    1.0315  -13.9364 H   0  0  0  0  0  0  0  0  0  0  0  0
    4.8350    3.9613  -12.8525 H   0  0  0  0  0  0  0  0  0  0  0  0
    5.9336    3.4260  -11.5991 H   0  0  0  0  0  0  0  0  0  0  0  0
    5.9303    6.1105  -13.0483 H   0  0  0  0  0  0  0  0  0  0  0  0
    5.7969    5.8035  -11.3489 H   0  0  0  0  0  0  0  0  0  0  0  0
    8.0856    6.6316  -12.2547 H   0  0  0  0  0  0  0  0  0  0  0  0
    7.6859    4.3308  -10.3526 H   0  0  0  0  0  0  0  0  0  0  0  0
    9.3158    4.5978  -10.8468 H   0  0  0  0  0  0  0  0  0  0  0  0
    7.6859    5.0278   -8.1028 H   0  0  0  0  0  0  0  0  0  0  0  0
    9.3959    4.8108   -8.3629 H   0  0  0  0  0  0  0  0  0  0  0  0
    8.0863    7.2909   -7.1426 H   0  0  0  0  0  0  0  0  0  0  0  0
    8.9866    6.0805   -6.2961 H   0  0  0  0  0  0  0  0  0  0  0  0
   10.8494    9.9420   -7.3671 H   0  0  0  0  0  0  0  0  0  0  0  0
   11.9096   10.9723   -5.4472 H   0  0  0  0  0  0  0  0  0  0  0  0
   12.4773    9.6338   -3.4148 H   0  0  0  0  0  0  0  0  0  0  0  0
   11.9656    7.1935   -3.3810 H   0  0  0  0  0  0  0  0  0  0  0  0
   10.9002    6.1261   -5.3246 H   0  0  0  0  0  0  0  0  0  0  0  0
    9.1914    8.7974   -8.7736 H   0  0  0  0  0  0  0  0  0  0  0  0
   10.9033    8.5629   -9.1033 H   0  0  0  0  0  0  0  0  0  0  0  0
   10.5274    6.4597  -10.2004 H   0  0  0  0  0  0  0  0  0  0  0  0
    9.4539    7.6425  -10.9133 H   0  0  0  0  0  0  0  0  0  0  0  0
    9.4513    5.0921  -13.3901 H   0  0  0  0  0  0  0  0  0  0  0  0
    9.7328    4.6755  -15.7102 H   0  0  0  0  0  0  0  0  0  0  0  0
   11.1965    3.3224  -17.1810 H   0  0  0  0  0  0  0  0  0  0  0  0
    6.3649    2.5762  -14.0176 H   0  0  0  0  0  0  0  0  0  0  0  0
    7.6389    6.7452   -9.7266 H   0  0  0  0  0  0  0  0  0  0  0  0
  2  1  2  0
  3  2  1  0
  4  3  2  0
  5  4  1  0
  6  5  2  0
  7  6  1  0
  8  7  1  0
  9  8  1  0
 10  9  1  0
 11 10  1  0
 12 11  1  0
 13 12  1  0
 14 13  1  0
 15 14  1  0
 16 15  2  0
 17 16  1  0
 18 17  2  0
 19 18  1  0
 20 15  1  0
 20 19  2  0
 21 14  1  0
 22 11  1  0
 22 21  1  0
 23  5  1  0
 23  9  1  0
 24  4  1  0
 25  1  1  0
 25 24  2  0
 26  1  1  0
 27  2  1  0
 28  3  1  0
 29  7  1  0
 30  7  1  0
 31  8  1  0
 32  8  1  0
  9 33  1  6
 34 10  1  0
 35 10  1  0
 36 12  1  0
 37 12  1  0
 38 13  1  0
 39 13  1  0
 40 16  1  0
 41 17  1  0
 42 18  1  0
 43 19  1  0
 44 20  1  0
 45 21  1  0
 46 21  1  0
 47 22  1  0
 48 22  1  0
 49 23  1  0
 50 24  1  0
 51 25  1  0
 52  6  1  0
 53 11  1  0
M  CHG  2   6   1  11   1
M  END
>  <b_m_subgroup_collapsed>  (454) 
0

>  <r_i_docking_score>  (454) 
-7.9780084211225004

>  <s_m_subgroup_title>  (454) 
glide-dock_SP_D22_pv

>  <s_m_subgroupid>  (454) 
glide-dock_SP_D22_pv

>  <Molecule ChEMBL ID>  (454) 
CHEMBL169459

>  <Standard Type>  (454) 
Ki

>  <Standard Value>  (454) 
29000.0

>  <label>  (454) 
0

$$$$
CHEMBL1080755
     RDKit          3D

 61 65  0  0  1  0  0  0  0  0999 V2000
    9.8417    4.1739  -17.5729 C   0  0  0  0  0  0  0  0  0  0  0  0
   10.6720    3.1358  -16.7960 C   0  0  1  0  0  0  0  0  0  0  0  0
   11.8785    3.7622  -16.0539 C   0  0  0  0  0  0  0  0  0  0  0  0
   11.4488    4.4222  -14.8150 N   0  0  0  0  0  0  0  0  0  0  0  0
   11.5551    5.7643  -14.6315 C   0  0  0  0  0  0  0  0  0  0  0  0
   11.9763    6.5092  -15.5179 O   0  0  0  0  0  0  0  0  0  0  0  0
   11.2866    6.3642  -13.2759 C   0  0  0  0  0  0  0  0  0  0  0  0
   12.2571    7.2224  -12.7374 C   0  0  0  0  0  0  0  0  0  0  0  0
   12.0968    7.7726  -11.4584 C   0  0  0  0  0  0  0  0  0  0  0  0
   10.9558    7.5128  -10.6672 C   0  0  0  0  0  0  0  0  0  0  0  0
   10.8826    8.0324   -9.2778 C   0  0  0  0  0  0  0  0  0  0  0  0
    9.6690    8.0995   -8.5502 C   0  0  0  0  0  0  0  0  0  0  0  0
    9.6354    8.5721   -7.2206 C   0  0  0  0  0  0  0  0  0  0  0  0
   10.8166    9.0030   -6.5821 C   0  0  0  0  0  0  0  0  0  0  0  0
   10.7595    9.4631   -5.2882 O   0  0  0  0  0  0  0  0  0  0  0  0
   11.6620    8.9885   -4.3834 C   0  0  0  0  0  0  0  0  0  0  0  0
   12.9130    9.4521   -4.6094 F   0  0  0  0  0  0  0  0  0  0  0  0
   11.3130    9.3916   -3.1410 F   0  0  0  0  0  0  0  0  0  0  0  0
   11.6862    7.6311   -4.3644 F   0  0  0  0  0  0  0  0  0  0  0  0
   12.0219    8.9719   -7.3075 C   0  0  0  0  0  0  0  0  0  0  0  0
   12.0544    8.4765   -8.6179 C   0  0  0  0  0  0  0  0  0  0  0  0
    9.9326    6.7279  -11.2590 C   0  0  0  0  0  0  0  0  0  0  0  0
   10.0858    6.1723  -12.5492 C   0  0  0  0  0  0  0  0  0  0  0  0
   10.7935    3.4454  -13.9468 C   0  0  0  0  0  0  0  0  0  0  0  0
    9.4737    3.0703  -14.6360 C   0  0  0  0  0  0  0  0  0  0  0  0
    9.8035    2.3532  -15.8826 N   0  0  0  0  0  0  0  0  0  0  0  0
    9.4290    1.0860  -16.1937 C   0  0  0  0  0  0  0  0  0  0  0  0
   10.0268    0.4004  -17.0255 O   0  0  0  0  0  0  0  0  0  0  0  0
    8.1137    0.5713  -15.6784 C   0  0  0  0  0  0  0  0  0  0  0  0
    7.8818    0.2723  -14.3178 C   0  0  0  0  0  0  0  0  0  0  0  0
    6.6349   -0.2277  -13.8895 C   0  0  0  0  0  0  0  0  0  0  0  0
    5.6038   -0.5049  -14.8170 C   0  0  0  0  0  0  0  0  0  0  0  0
    4.2680   -1.0278  -14.7308 C   0  0  0  0  0  0  0  0  0  0  0  0
    3.8055   -1.1454  -16.0151 C   0  0  0  0  0  0  0  0  0  0  0  0
    4.7575   -0.6502  -16.8834 N   0  0  0  0  0  0  0  0  0  0  0  0
    5.8802   -0.2519  -16.1916 C   0  0  0  0  0  0  0  0  0  0  0  0
    7.1032    0.2880  -16.6192 C   0  0  0  0  0  0  0  0  0  0  0  0
   10.4554    4.6884  -18.3133 H   0  0  0  0  0  0  0  0  0  0  0  0
    9.0201    3.6988  -18.1070 H   0  0  0  0  0  0  0  0  0  0  0  0
    9.4166    4.9310  -16.9174 H   0  0  0  0  0  0  0  0  0  0  0  0
   11.1103    2.4869  -17.5548 H   0  0  0  0  0  0  0  0  0  0  0  0
   12.4266    4.4228  -16.7263 H   0  0  0  0  0  0  0  0  0  0  0  0
   12.5876    2.9739  -15.7988 H   0  0  0  0  0  0  0  0  0  0  0  0
   13.1620    7.4350  -13.2915 H   0  0  0  0  0  0  0  0  0  0  0  0
   12.8925    8.4131  -11.1112 H   0  0  0  0  0  0  0  0  0  0  0  0
    8.7360    7.7833   -8.9957 H   0  0  0  0  0  0  0  0  0  0  0  0
    8.6928    8.5982   -6.6920 H   0  0  0  0  0  0  0  0  0  0  0  0
   12.9431    9.3392   -6.8871 H   0  0  0  0  0  0  0  0  0  0  0  0
   13.0211    8.4511   -9.0933 H   0  0  0  0  0  0  0  0  0  0  0  0
    9.0185    6.5186  -10.7197 H   0  0  0  0  0  0  0  0  0  0  0  0
    9.2819    5.5831  -12.9610 H   0  0  0  0  0  0  0  0  0  0  0  0
   11.4220    2.5594  -13.8473 H   0  0  0  0  0  0  0  0  0  0  0  0
   10.6316    3.7789  -12.9263 H   0  0  0  0  0  0  0  0  0  0  0  0
    8.8739    2.5085  -13.9301 H   0  0  0  0  0  0  0  0  0  0  0  0
    8.8859    3.9592  -14.8624 H   0  0  0  0  0  0  0  0  0  0  0  0
    8.6675    0.4082  -13.5873 H   0  0  0  0  0  0  0  0  0  0  0  0
    6.4793   -0.4391  -12.8415 H   0  0  0  0  0  0  0  0  0  0  0  0
    3.7457   -1.3291  -13.8383 H   0  0  0  0  0  0  0  0  0  0  0  0
    2.8793   -1.5547  -16.3852 H   0  0  0  0  0  0  0  0  0  0  0  0
    4.6367   -0.6424  -17.8861 H   0  0  0  0  0  0  0  0  0  0  0  0
    7.2735    0.4542  -17.6736 H   0  0  0  0  0  0  0  0  0  0  0  0
  2  1  1  0
  3  2  1  0
  4  3  1  0
  5  4  1  0
  6  5  2  0
  7  5  1  0
  8  7  1  0
  9  8  2  0
 10  9  1  0
 11 10  1  0
 12 11  1  0
 13 12  2  0
 14 13  1  0
 15 14  1  0
 16 15  1  0
 17 16  1  0
 18 16  1  0
 19 16  1  0
 20 14  2  0
 21 11  2  0
 21 20  1  0
 22 10  2  0
 23  7  2  0
 23 22  1  0
 24  4  1  0
 25 24  1  0
 26  2  1  0
 26 25  1  0
 27 26  1  0
 28 27  2  0
 29 27  1  0
 30 29  2  0
 31 30  1  0
 32 31  2  0
 33 32  1  0
 34 33  2  0
 35 34  1  0
 36 32  1  0
 36 35  1  0
 37 29  1  0
 37 36  2  0
 38  1  1  0
 39  1  1  0
 40  1  1  0
  2 41  1  6
 42  3  1  0
 43  3  1  0
 44  8  1  0
 45  9  1  0
 46 12  1  0
 47 13  1  0
 48 20  1  0
 49 21  1  0
 50 22  1  0
 51 23  1  0
 52 24  1  0
 53 24  1  0
 54 25  1  0
 55 25  1  0
 56 30  1  0
 57 31  1  0
 58 33  1  0
 59 34  1  0
 60 35  1  0
 61 37  1  0
M  END
>  <b_m_subgroup_collapsed>  (455) 
0

>  <r_i_docking_score>  (455) 
-7.9766207205171797

>  <s_m_subgroup_title>  (455) 
glide-dock_SP_D22_pv

>  <s_m_subgroupid>  (455) 
glide-dock_SP_D22_pv

>  <Molecule ChEMBL ID>  (455) 
CHEMBL1080755

>  <Standard Type>  (455) 
Ki

>  <Standard Value>  (455) 
10000.0

>  <label>  (455) 
0

$$$$
CHEMBL5828332
     RDKit          3D

 64 67  0  0  1  0  0  0  0  0999 V2000
    7.3431    4.3145  -13.1897 C   0  0  0  0  0  0  0  0  0  0  0  0
    8.4611    5.2047  -12.5825 C   0  0  1  0  0  0  0  0  0  0  0  0
    9.8055    5.0059  -13.3372 C   0  0  0  0  0  0  0  0  0  0  0  0
   10.7912    5.6803  -13.0473 O   0  0  0  0  0  0  0  0  0  0  0  0
    9.8653    4.0578  -14.2837 N   0  0  0  0  0  0  0  0  0  0  0  0
   11.0803    3.6044  -14.9583 C   0  0  2  0  0  0  0  0  0  0  0  0
   11.6370    4.6877  -15.8847 C   0  0  0  0  0  0  0  0  0  0  0  0
   10.8786    5.1675  -16.9744 C   0  0  0  0  0  0  0  0  0  0  0  0
   11.3957    6.1808  -17.8078 C   0  0  0  0  0  0  0  0  0  0  0  0
   12.6658    6.7272  -17.5456 C   0  0  0  0  0  0  0  0  0  0  0  0
   13.1614    7.7059  -18.3429 F   0  0  0  0  0  0  0  0  0  0  0  0
   13.4212    6.2634  -16.4510 C   0  0  0  0  0  0  0  0  0  0  0  0
   12.9075    5.2467  -15.6239 C   0  0  0  0  0  0  0  0  0  0  0  0
   10.8454    2.2480  -15.6308 C   0  0  0  0  0  0  0  0  0  0  0  0
    9.9550    1.3092  -15.0581 C   0  0  0  0  0  0  0  0  0  0  0  0
    9.7238    0.0973  -15.7291 C   0  0  0  0  0  0  0  0  0  0  0  0
   10.4012   -0.1515  -16.9363 C   0  0  0  0  0  0  0  0  0  0  0  0
   11.2892    0.8287  -17.4171 C   0  0  0  0  0  0  0  0  0  0  0  0
   11.5109    1.9982  -16.7837 N   0  0  0  0  0  0  0  0  0  0  0  0
    7.9762    6.6720  -12.6441 C   0  0  0  0  0  0  0  0  0  0  0  0
    8.8368    7.6658  -11.8362 C   0  0  0  0  0  0  0  0  0  0  0  0
    8.8890    7.2582  -10.4115 N   0  0  2  0  0  0  0  0  0  0  0  0
    9.6157    8.2356   -9.5585 C   0  0  0  0  0  0  0  0  0  0  0  0
    9.1660    8.2104   -8.0824 C   0  0  0  0  0  0  0  0  0  0  0  0
   10.0351    9.0761   -7.3533 O   0  0  0  0  0  0  0  0  0  0  0  0
   10.6973    8.6460   -6.2201 C   0  0  0  0  0  0  0  0  0  0  0  0
   11.2315    9.6575   -5.3919 C   0  0  0  0  0  0  0  0  0  0  0  0
   11.9130    9.3372   -4.2011 C   0  0  0  0  0  0  0  0  0  0  0  0
   12.0862    7.9897   -3.8314 C   0  0  0  0  0  0  0  0  0  0  0  0
   11.5733    6.9722   -4.6557 C   0  0  0  0  0  0  0  0  0  0  0  0
   10.8894    7.2918   -5.8468 C   0  0  0  0  0  0  0  0  0  0  0  0
    9.4073    5.8696  -10.2478 C   0  0  0  0  0  0  0  0  0  0  0  0
    8.6349    4.8345  -11.0914 C   0  0  0  0  0  0  0  0  0  0  0  0
    6.3989    4.4447  -12.6571 H   0  0  0  0  0  0  0  0  0  0  0  0
    7.1527    4.5558  -14.2372 H   0  0  0  0  0  0  0  0  0  0  0  0
    7.5882    3.2541  -13.1278 H   0  0  0  0  0  0  0  0  0  0  0  0
    9.0254    3.5362  -14.4835 H   0  0  0  0  0  0  0  0  0  0  0  0
   11.8244    3.4084  -14.1841 H   0  0  0  0  0  0  0  0  0  0  0  0
    9.9019    4.7572  -17.1784 H   0  0  0  0  0  0  0  0  0  0  0  0
   10.8185    6.5409  -18.6465 H   0  0  0  0  0  0  0  0  0  0  0  0
   14.3939    6.6893  -16.2471 H   0  0  0  0  0  0  0  0  0  0  0  0
   13.4919    4.9083  -14.7837 H   0  0  0  0  0  0  0  0  0  0  0  0
    9.4555    1.4979  -14.1194 H   0  0  0  0  0  0  0  0  0  0  0  0
    9.0378   -0.6278  -15.3173 H   0  0  0  0  0  0  0  0  0  0  0  0
   10.2514   -1.0746  -17.4758 H   0  0  0  0  0  0  0  0  0  0  0  0
   11.8348    0.6695  -18.3349 H   0  0  0  0  0  0  0  0  0  0  0  0
    7.9040    6.9717  -13.6818 H   0  0  0  0  0  0  0  0  0  0  0  0
    6.9573    6.7285  -12.2552 H   0  0  0  0  0  0  0  0  0  0  0  0
    8.3778    8.6530  -11.9051 H   0  0  0  0  0  0  0  0  0  0  0  0
    9.8413    7.7686  -12.2410 H   0  0  0  0  0  0  0  0  0  0  0  0
   10.6879    8.0538   -9.6323 H   0  0  0  0  0  0  0  0  0  0  0  0
    9.4542    9.2445   -9.9388 H   0  0  0  0  0  0  0  0  0  0  0  0
    8.1615    8.6238   -7.9977 H   0  0  0  0  0  0  0  0  0  0  0  0
    9.0949    7.2013   -7.6924 H   0  0  0  0  0  0  0  0  0  0  0  0
   11.1002   10.6949   -5.6652 H   0  0  0  0  0  0  0  0  0  0  0  0
   12.3036   10.1223   -3.5678 H   0  0  0  0  0  0  0  0  0  0  0  0
   12.6083    7.7399   -2.9211 H   0  0  0  0  0  0  0  0  0  0  0  0
   11.7081    5.9363   -4.3781 H   0  0  0  0  0  0  0  0  0  0  0  0
   10.5395    6.4686   -6.4484 H   0  0  0  0  0  0  0  0  0  0  0  0
    9.3522    5.5662   -9.2036 H   0  0  0  0  0  0  0  0  0  0  0  0
   10.4655    5.8554  -10.5057 H   0  0  0  0  0  0  0  0  0  0  0  0
    7.6613    4.6754  -10.6316 H   0  0  0  0  0  0  0  0  0  0  0  0
    9.1588    3.8796  -11.0357 H   0  0  0  0  0  0  0  0  0  0  0  0
    7.8989    7.3083  -10.1431 H   0  0  0  0  0  0  0  0  0  0  0  0
  2  1  1  6
  3  2  1  0
  4  3  2  0
  5  3  1  0
  6  5  1  0
  7  6  1  0
  8  7  1  0
  9  8  2  0
 10  9  1  0
 11 10  1  0
 12 10  2  0
 13  7  2  0
 13 12  1  0
 14  6  1  0
 15 14  2  0
 16 15  1  0
 17 16  2  0
 18 17  1  0
 19 14  1  0
 19 18  2  0
 20  2  1  0
 21 20  1  0
 22 21  1  0
 23 22  1  0
 24 23  1  0
 25 24  1  0
 26 25  1  0
 27 26  2  0
 28 27  1  0
 29 28  2  0
 30 29  1  0
 31 26  1  0
 31 30  2  0
 32 22  1  0
 33  2  1  0
 33 32  1  0
 34  1  1  0
 35  1  1  0
 36  1  1  0
 37  5  1  0
  6 38  1  1
 39  8  1  0
 40  9  1  0
 41 12  1  0
 42 13  1  0
 43 15  1  0
 44 16  1  0
 45 17  1  0
 46 18  1  0
 47 20  1  0
 48 20  1  0
 49 21  1  0
 50 21  1  0
 51 23  1  0
 52 23  1  0
 53 24  1  0
 54 24  1  0
 55 27  1  0
 56 28  1  0
 57 29  1  0
 58 30  1  0
 59 31  1  0
 60 32  1  0
 61 32  1  0
 62 33  1  0
 63 33  1  0
 22 64  1  1
M  CHG  1  22   1
M  END
>  <b_m_subgroup_collapsed>  (456) 
0

>  <r_i_docking_score>  (456) 
-7.9765317216077403

>  <s_m_subgroup_title>  (456) 
glide-dock_SP_D22_pv

>  <s_m_subgroupid>  (456) 
glide-dock_SP_D22_pv

>  <Molecule ChEMBL ID>  (456) 
CHEMBL5828332

>  <Standard Type>  (456) 
Ki

>  <Standard Value>  (456) 
55.0

>  <label>  (456) 
1

$$$$
CHEMBL556895
     RDKit          3D

 51 55  0  0  1  0  0  0  0  0999 V2000
    9.7581    3.9785  -13.2458 O   0  0  0  0  0  0  0  0  0  0  0  0
    8.5631    3.7747  -13.4618 C   0  0  0  0  0  0  0  0  0  0  0  0
    7.5832    4.4925  -12.8953 N   0  0  0  0  0  0  0  0  0  0  0  0
    7.7650    5.5865  -11.9488 C   0  0  0  0  0  0  0  0  0  0  0  0
    8.3431    5.0824  -10.6105 C   0  0  0  0  0  0  0  0  0  0  0  0
    8.4862    6.1849   -9.6400 N   0  0  0  0  0  0  0  0  0  0  0  0
    8.6828    5.7625   -8.2228 C   0  0  0  0  0  0  0  0  0  0  0  0
    9.6283    6.7964   -7.6751 C   0  0  0  0  0  0  0  0  0  0  0  0
   10.0281    6.9857   -6.3411 C   0  0  0  0  0  0  0  0  0  0  0  0
   10.9174    8.0455   -6.0561 C   0  0  0  0  0  0  0  0  0  0  0  0
   11.3931    8.8843   -7.0929 C   0  0  0  0  0  0  0  0  0  0  0  0
   10.9851    8.6735   -8.4295 C   0  0  0  0  0  0  0  0  0  0  0  0
   10.0950    7.6163   -8.6885 C   0  0  0  0  0  0  0  0  0  0  0  0
    9.5110    7.2053  -10.0081 C   0  0  0  0  0  0  0  0  0  0  0  0
    6.2609    4.0767  -13.2923 C   0  0  0  0  0  0  0  0  0  0  0  0
    6.5620    2.8691  -14.1672 C   0  0  0  0  0  0  0  0  0  0  0  0
    8.0220    2.8209  -14.2562 N   0  0  0  0  0  0  0  0  0  0  0  0
    8.7472    1.9183  -15.1249 C   0  0  0  0  0  0  0  0  0  0  0  0
   10.0905    2.0881  -15.3955 C   0  0  0  0  0  0  0  0  0  0  0  0
   10.7025    0.9013  -16.5026 S   0  0  0  0  0  0  0  0  0  0  0  0
    9.1362    0.1679  -16.6147 C   0  0  0  0  0  0  0  0  0  0  0  0
    8.1892    0.7834  -15.8342 C   0  0  0  0  0  0  0  0  0  0  0  0
    6.8147    0.2814  -15.7871 C   0  0  0  0  0  0  0  0  0  0  0  0
    6.3060   -0.3583  -14.6376 C   0  0  0  0  0  0  0  0  0  0  0  0
    5.0264   -0.9402  -14.7033 C   0  0  0  0  0  0  0  0  0  0  0  0
    4.3109   -0.8785  -15.9115 C   0  0  0  0  0  0  0  0  0  0  0  0
    4.9089   -0.2292  -17.0069 C   0  0  0  0  0  0  0  0  0  0  0  0
    6.1278    0.3468  -16.9502 N   0  0  0  0  0  0  0  0  0  0  0  0
    8.4267    6.3258  -12.4019 H   0  0  0  0  0  0  0  0  0  0  0  0
    6.8117    6.0931  -11.7867 H   0  0  0  0  0  0  0  0  0  0  0  0
    7.6861    4.3187  -10.1977 H   0  0  0  0  0  0  0  0  0  0  0  0
    9.3137    4.6034  -10.7462 H   0  0  0  0  0  0  0  0  0  0  0  0
    7.7371    5.7551   -7.6793 H   0  0  0  0  0  0  0  0  0  0  0  0
    9.1442    4.7764   -8.1575 H   0  0  0  0  0  0  0  0  0  0  0  0
    9.6579    6.3474   -5.5525 H   0  0  0  0  0  0  0  0  0  0  0  0
   11.2387    8.2166   -5.0394 H   0  0  0  0  0  0  0  0  0  0  0  0
   12.0759    9.6887   -6.8617 H   0  0  0  0  0  0  0  0  0  0  0  0
   11.3468    9.3092   -9.2252 H   0  0  0  0  0  0  0  0  0  0  0  0
   10.2987    6.7882  -10.6375 H   0  0  0  0  0  0  0  0  0  0  0  0
    9.0486    8.0492  -10.5223 H   0  0  0  0  0  0  0  0  0  0  0  0
    5.6531    3.8157  -12.4245 H   0  0  0  0  0  0  0  0  0  0  0  0
    5.7582    4.8695  -13.8475 H   0  0  0  0  0  0  0  0  0  0  0  0
    6.0875    2.9700  -15.1424 H   0  0  0  0  0  0  0  0  0  0  0  0
    6.1775    1.9829  -13.6693 H   0  0  0  0  0  0  0  0  0  0  0  0
   10.7797    2.8374  -15.0362 H   0  0  0  0  0  0  0  0  0  0  0  0
    8.9883   -0.6935  -17.2489 H   0  0  0  0  0  0  0  0  0  0  0  0
    6.8964   -0.4260  -13.7363 H   0  0  0  0  0  0  0  0  0  0  0  0
    4.6064   -1.4412  -13.8463 H   0  0  0  0  0  0  0  0  0  0  0  0
    3.3332   -1.3305  -16.0039 H   0  0  0  0  0  0  0  0  0  0  0  0
    4.3918   -0.1678  -17.9525 H   0  0  0  0  0  0  0  0  0  0  0  0
    7.6051    6.7075   -9.6571 H   0  0  0  0  0  0  0  0  0  0  0  0
  2  1  2  0
  3  2  1  0
  4  3  1  0
  5  4  1  0
  6  5  1  0
  7  6  1  0
  8  7  1  0
  9  8  2  0
 10  9  1  0
 11 10  2  0
 12 11  1  0
 13  8  1  0
 13 12  2  0
 14  6  1  0
 14 13  1  0
 15  3  1  0
 16 15  1  0
 17  2  1  0
 17 16  1  0
 18 17  1  0
 19 18  2  0
 20 19  1  0
 21 20  1  0
 22 18  1  0
 22 21  2  0
 23 22  1  0
 24 23  2  0
 25 24  1  0
 26 25  2  0
 27 26  1  0
 28 23  1  0
 28 27  2  0
 29  4  1  0
 30  4  1  0
 31  5  1  0
 32  5  1  0
 33  7  1  0
 34  7  1  0
 35  9  1  0
 36 10  1  0
 37 11  1  0
 38 12  1  0
 39 14  1  0
 40 14  1  0
 41 15  1  0
 42 15  1  0
 43 16  1  0
 44 16  1  0
 45 19  1  0
 46 21  1  0
 47 24  1  0
 48 25  1  0
 49 26  1  0
 50 27  1  0
 51  6  1  0
M  CHG  1   6   1
M  END
>  <b_m_subgroup_collapsed>  (457) 
0

>  <r_i_docking_score>  (457) 
-7.9729514185393002

>  <s_m_subgroup_title>  (457) 
glide-dock_SP_D22_pv

>  <s_m_subgroupid>  (457) 
glide-dock_SP_D22_pv

>  <Molecule ChEMBL ID>  (457) 
CHEMBL556895

>  <Standard Type>  (457) 
Ki

>  <Standard Value>  (457) 
10000.0

>  <label>  (457) 
0

$$$$
CHEMBL219185
     RDKit          3D

 47 49  0  0  1  0  0  0  0  0999 V2000
    8.4656    2.2924  -14.8378 C   0  0  0  0  0  0  0  0  0  0  0  0
    7.6546    3.2029  -13.9379 C   0  0  0  0  0  0  0  0  0  0  0  0
    6.2789    2.9710  -13.7529 C   0  0  0  0  0  0  0  0  0  0  0  0
    5.5337    3.8157  -12.9118 C   0  0  0  0  0  0  0  0  0  0  0  0
    6.1594    4.8889  -12.2530 C   0  0  0  0  0  0  0  0  0  0  0  0
    7.5388    5.1263  -12.4182 C   0  0  0  0  0  0  0  0  0  0  0  0
    8.0900    6.2295  -11.7097 N   0  0  0  0  0  0  0  0  0  0  0  0
    9.3551    6.6900  -11.6864 C   0  0  0  0  0  0  0  0  0  0  0  0
   10.3088    6.1719  -12.2681 O   0  0  0  0  0  0  0  0  0  0  0  0
    9.6156    7.9750  -10.8953 C   0  0  0  0  0  0  0  0  0  0  0  0
   10.2785    7.7831   -9.5816 N   0  0  0  0  0  0  0  0  0  0  0  0
    9.3697    7.1498   -8.6177 C   0  0  0  0  0  0  0  0  0  0  0  0
   10.0488    6.9634   -7.2509 C   0  0  0  0  0  0  0  0  0  0  0  0
   10.5039    8.3222   -6.6780 C   0  0  0  0  0  0  0  0  0  0  0  0
   11.1475    8.2622   -5.2858 C   0  0  0  0  0  0  0  0  0  0  0  0
   11.5492    7.0368   -4.6966 C   0  0  0  0  0  0  0  0  0  0  0  0
   12.0862    7.0118   -3.4002 C   0  0  0  0  0  0  0  0  0  0  0  0
   12.2394    8.2213   -2.7086 C   0  0  0  0  0  0  0  0  0  0  0  0
   11.8378    9.4179   -3.3252 C   0  0  0  0  0  0  0  0  0  0  0  0
   11.2866    9.4376   -4.5778 N   0  0  0  0  0  0  0  0  0  0  0  0
   10.8861   10.5639   -5.0548 O   0  0  0  0  0  0  0  0  0  0  0  0
   11.4160    8.9772   -7.7258 C   0  0  0  0  0  0  0  0  0  0  0  0
   10.7128    9.0937   -9.0895 C   0  0  0  0  0  0  0  0  0  0  0  0
    8.2825    4.2714  -13.2718 C   0  0  0  0  0  0  0  0  0  0  0  0
    7.8317    1.8184  -15.5873 H   0  0  0  0  0  0  0  0  0  0  0  0
    9.2396    2.8569  -15.3564 H   0  0  0  0  0  0  0  0  0  0  0  0
    8.9460    1.5101  -14.2479 H   0  0  0  0  0  0  0  0  0  0  0  0
    5.7933    2.1409  -14.2454 H   0  0  0  0  0  0  0  0  0  0  0  0
    4.4801    3.6347  -12.7688 H   0  0  0  0  0  0  0  0  0  0  0  0
    5.5765    5.5302  -11.6034 H   0  0  0  0  0  0  0  0  0  0  0  0
    7.4232    6.7738  -11.1514 H   0  0  0  0  0  0  0  0  0  0  0  0
   10.2593    8.5736  -11.5351 H   0  0  0  0  0  0  0  0  0  0  0  0
    8.6884    8.5420  -10.7790 H   0  0  0  0  0  0  0  0  0  0  0  0
    8.4854    7.7684   -8.4961 H   0  0  0  0  0  0  0  0  0  0  0  0
    9.0353    6.1772   -8.9798 H   0  0  0  0  0  0  0  0  0  0  0  0
    9.3508    6.4860   -6.5617 H   0  0  0  0  0  0  0  0  0  0  0  0
   10.8971    6.2873   -7.3732 H   0  0  0  0  0  0  0  0  0  0  0  0
    9.6092    8.9376   -6.5755 H   0  0  0  0  0  0  0  0  0  0  0  0
   11.4371    6.1006   -5.2201 H   0  0  0  0  0  0  0  0  0  0  0  0
   12.3789    6.0742   -2.9496 H   0  0  0  0  0  0  0  0  0  0  0  0
   12.6601    8.2364   -1.7125 H   0  0  0  0  0  0  0  0  0  0  0  0
   11.9095   10.3885   -2.8533 H   0  0  0  0  0  0  0  0  0  0  0  0
   11.6881    9.9756   -7.3930 H   0  0  0  0  0  0  0  0  0  0  0  0
   12.3442    8.4145   -7.8268 H   0  0  0  0  0  0  0  0  0  0  0  0
   11.4072    9.5409   -9.8011 H   0  0  0  0  0  0  0  0  0  0  0  0
    9.8572    9.7682   -9.0202 H   0  0  0  0  0  0  0  0  0  0  0  0
    9.3376    4.4045  -13.4342 H   0  0  0  0  0  0  0  0  0  0  0  0
  2  1  1  0
  3  2  2  0
  4  3  1  0
  5  4  2  0
  6  5  1  0
  7  6  1  0
  8  7  1  0
  9  8  2  0
 10  8  1  0
 11 10  1  0
 12 11  1  0
 13 12  1  0
 14 13  1  0
 15 14  1  0
 16 15  2  0
 17 16  1  0
 18 17  2  0
 19 18  1  0
 20 15  1  0
 20 19  2  0
 21 20  1  0
 22 14  1  0
 23 11  1  0
 23 22  1  0
 24  2  1  0
 24  6  2  0
 25  1  1  0
 26  1  1  0
 27  1  1  0
 28  3  1  0
 29  4  1  0
 30  5  1  0
 31  7  1  0
 32 10  1  0
 33 10  1  0
 34 12  1  0
 35 12  1  0
 36 13  1  0
 37 13  1  0
 38 14  1  0
 39 16  1  0
 40 17  1  0
 41 18  1  0
 42 19  1  0
 43 22  1  0
 44 22  1  0
 45 23  1  0
 46 23  1  0
 47 24  1  0
M  CHG  2  20   1  21  -1
M  END
>  <b_m_subgroup_collapsed>  (458) 
0

>  <r_i_docking_score>  (458) 
-7.9718877672744499

>  <s_m_subgroup_title>  (458) 
glide-dock_SP_D22_pv

>  <s_m_subgroupid>  (458) 
glide-dock_SP_D22_pv

>  <Molecule ChEMBL ID>  (458) 
CHEMBL219185

>  <Standard Type>  (458) 
Ki

>  <Standard Value>  (458) 
10000.0

>  <label>  (458) 
0

$$$$
CHEMBL492282
     RDKit          3D

 72 75  0  0  1  0  0  0  0  0999 V2000
    7.3380    1.5104  -18.4303 C   0  0  0  0  0  0  0  0  0  0  0  0
    8.0085    1.5790  -17.0422 C   0  0  0  0  0  0  0  0  0  0  0  0
    9.3886    0.8982  -17.1094 C   0  0  0  0  0  0  0  0  0  0  0  0
    7.1289    0.9653  -15.9467 C   0  0  0  0  0  0  0  0  0  0  0  0
    6.4765   -0.2495  -16.2567 C   0  0  0  0  0  0  0  0  0  0  0  0
    5.5787   -0.8549  -15.3650 C   0  0  0  0  0  0  0  0  0  0  0  0
    5.3290   -0.2539  -14.1268 C   0  0  0  0  0  0  0  0  0  0  0  0
    5.9906    0.9338  -13.7796 C   0  0  0  0  0  0  0  0  0  0  0  0
    6.8858    1.5711  -14.6720 C   0  0  0  0  0  0  0  0  0  0  0  0
    7.4363    2.7995  -14.2482 N   0  0  0  0  0  0  0  0  0  0  0  0
    6.5439    3.8312  -13.7252 C   0  0  0  0  0  0  0  0  0  0  0  0
    7.1102    4.4744  -12.4462 C   0  0  0  0  0  0  0  0  0  0  0  0
    8.5369    4.8637  -12.6149 N   0  0  0  0  0  0  0  0  0  0  0  0
    9.0947    5.6054  -11.4532 C   0  0  0  0  0  0  0  0  0  0  0  0
    9.3196    4.7158  -10.2122 C   0  0  0  0  0  0  0  0  0  0  0  0
    9.6827    5.4887   -8.9426 C   0  0  0  0  0  0  0  0  0  0  0  0
    8.3941    5.9923   -8.2896 C   0  0  0  0  0  0  0  0  0  0  0  0
    8.5408    6.8106   -7.0053 C   0  0  0  0  0  0  0  0  0  0  0  0
    9.3502    8.0928   -7.1991 C   0  0  0  0  0  0  0  0  0  0  0  0
    8.8863    8.9723   -7.9233 O   0  0  0  0  0  0  0  0  0  0  0  0
   10.5187    8.2470   -6.5482 N   0  0  0  0  0  0  0  0  0  0  0  0
   11.1941    9.5408   -6.4636 C   0  0  0  0  0  0  0  0  0  0  0  0
   11.1403   10.0401   -5.0308 C   0  0  0  0  0  0  0  0  0  0  0  0
   11.6704    8.9975   -4.0729 C   0  0  0  0  0  0  0  0  0  0  0  0
   12.0861    9.3726   -2.7847 C   0  0  0  0  0  0  0  0  0  0  0  0
   12.4861    8.3889   -1.8676 C   0  0  0  0  0  0  0  0  0  0  0  0
   12.4860    7.0337   -2.2466 C   0  0  0  0  0  0  0  0  0  0  0  0
   12.0860    6.6606   -3.5325 C   0  0  0  0  0  0  0  0  0  0  0  0
   11.6858    7.6354   -4.4545 C   0  0  0  0  0  0  0  0  0  0  0  0
   11.2459    7.1953   -5.8392 C   0  0  0  0  0  0  0  0  0  0  0  0
    9.3949    3.7377  -13.0719 C   0  0  0  0  0  0  0  0  0  0  0  0
    8.8585    3.0982  -14.3612 C   0  0  0  0  0  0  0  0  0  0  0  0
    6.2821    1.7727  -18.3776 H   0  0  0  0  0  0  0  0  0  0  0  0
    7.8325    2.1729  -19.1414 H   0  0  0  0  0  0  0  0  0  0  0  0
    7.3861    0.5075  -18.8548 H   0  0  0  0  0  0  0  0  0  0  0  0
    8.1395    2.6368  -16.8332 H   0  0  0  0  0  0  0  0  0  0  0  0
    9.9206    0.9301  -16.1611 H   0  0  0  0  0  0  0  0  0  0  0  0
    9.2935   -0.1532  -17.3827 H   0  0  0  0  0  0  0  0  0  0  0  0
   10.0236    1.3756  -17.8562 H   0  0  0  0  0  0  0  0  0  0  0  0
    6.6524   -0.7460  -17.1983 H   0  0  0  0  0  0  0  0  0  0  0  0
    5.0875   -1.7797  -15.6334 H   0  0  0  0  0  0  0  0  0  0  0  0
    4.6302   -0.7081  -13.4468 H   0  0  0  0  0  0  0  0  0  0  0  0
    5.7882    1.3622  -12.8095 H   0  0  0  0  0  0  0  0  0  0  0  0
    6.4221    4.5748  -14.5024 H   0  0  0  0  0  0  0  0  0  0  0  0
    5.5393    3.4540  -13.5342 H   0  0  0  0  0  0  0  0  0  0  0  0
    6.5150    5.3491  -12.1798 H   0  0  0  0  0  0  0  0  0  0  0  0
    7.0053    3.7722  -11.6214 H   0  0  0  0  0  0  0  0  0  0  0  0
   10.0410    6.0609  -11.7480 H   0  0  0  0  0  0  0  0  0  0  0  0
    8.4235    6.4333  -11.2180 H   0  0  0  0  0  0  0  0  0  0  0  0
    8.4043    4.1723   -9.9990 H   0  0  0  0  0  0  0  0  0  0  0  0
   10.0860    3.9702  -10.4082 H   0  0  0  0  0  0  0  0  0  0  0  0
   10.2057    4.8361   -8.2469 H   0  0  0  0  0  0  0  0  0  0  0  0
   10.3650    6.3061   -9.1778 H   0  0  0  0  0  0  0  0  0  0  0  0
    7.8653    6.5722   -9.0384 H   0  0  0  0  0  0  0  0  0  0  0  0
    7.7496    5.1453   -8.0594 H   0  0  0  0  0  0  0  0  0  0  0  0
    7.5758    7.1432   -6.6468 H   0  0  0  0  0  0  0  0  0  0  0  0
    8.8480    6.1725   -6.1902 H   0  0  0  0  0  0  0  0  0  0  0  0
   12.2252    9.4461   -6.8090 H   0  0  0  0  0  0  0  0  0  0  0  0
   10.7289   10.3147   -7.0469 H   0  0  0  0  0  0  0  0  0  0  0  0
   10.1112   10.2693   -4.7511 H   0  0  0  0  0  0  0  0  0  0  0  0
   11.6860   10.9722   -4.9759 H   0  0  0  0  0  0  0  0  0  0  0  0
   12.0854   10.4120   -2.4907 H   0  0  0  0  0  0  0  0  0  0  0  0
   12.8050    8.6808   -0.8807 H   0  0  0  0  0  0  0  0  0  0  0  0
   12.8018    6.2722   -1.5476 H   0  0  0  0  0  0  0  0  0  0  0  0
   12.0922    5.6250   -3.8186 H   0  0  0  0  0  0  0  0  0  0  0  0
   10.7460    6.2424   -5.7209 H   0  0  0  0  0  0  0  0  0  0  0  0
   12.0860    6.9354   -6.4669 H   0  0  0  0  0  0  0  0  0  0  0  0
   10.4144    4.0893  -13.2326 H   0  0  0  0  0  0  0  0  0  0  0  0
    9.4495    2.9723  -12.2998 H   0  0  0  0  0  0  0  0  0  0  0  0
    9.4219    2.1882  -14.5520 H   0  0  0  0  0  0  0  0  0  0  0  0
    9.0217    3.7760  -15.1993 H   0  0  0  0  0  0  0  0  0  0  0  0
    8.5332    5.5256  -13.3771 H   0  0  0  0  0  0  0  0  0  0  0  0
  2  1  1  0
  3  2  1  0
  4  2  1  0
  5  4  2  0
  6  5  1  0
  7  6  2  0
  8  7  1  0
  9  4  1  0
  9  8  2  0
 10  9  1  0
 11 10  1  0
 12 11  1  0
 13 12  1  0
 14 13  1  0
 15 14  1  0
 16 15  1  0
 17 16  1  0
 18 17  1  0
 19 18  1  0
 20 19  2  0
 21 19  1  0
 22 21  1  0
 23 22  1  0
 24 23  1  0
 25 24  2  0
 26 25  1  0
 27 26  2  0
 28 27  1  0
 29 24  1  0
 29 28  2  0
 30 21  1  0
 30 29  1  0
 31 13  1  0
 32 10  1  0
 32 31  1  0
 33  1  1  0
 34  1  1  0
 35  1  1  0
 36  2  1  0
 37  3  1  0
 38  3  1  0
 39  3  1  0
 40  5  1  0
 41  6  1  0
 42  7  1  0
 43  8  1  0
 44 11  1  0
 45 11  1  0
 46 12  1  0
 47 12  1  0
 48 14  1  0
 49 14  1  0
 50 15  1  0
 51 15  1  0
 52 16  1  0
 53 16  1  0
 54 17  1  0
 55 17  1  0
 56 18  1  0
 57 18  1  0
 58 22  1  0
 59 22  1  0
 60 23  1  0
 61 23  1  0
 62 25  1  0
 63 26  1  0
 64 27  1  0
 65 28  1  0
 66 30  1  0
 67 30  1  0
 68 31  1  0
 69 31  1  0
 70 32  1  0
 71 32  1  0
 72 13  1  0
M  CHG  1  13   1
M  END
>  <b_m_subgroup_collapsed>  (459) 
0

>  <r_i_docking_score>  (459) 
-7.9695741962123998

>  <s_m_subgroup_title>  (459) 
glide-dock_SP_D22_pv

>  <s_m_subgroupid>  (459) 
glide-dock_SP_D22_pv

>  <Molecule ChEMBL ID>  (459) 
CHEMBL492282

>  <Standard Type>  (459) 
Ki

>  <Standard Value>  (459) 
1.3

>  <label>  (459) 
1

$$$$
CHEMBL3409240
     RDKit          3D

 75 80  0  0  1  0  0  0  0  0999 V2000
   13.1335    8.9723   -1.3773 O   0  0  0  0  0  0  0  0  0  0  0  0
   12.4856    8.5419   -2.3194 C   0  0  0  0  0  0  0  0  0  0  0  0
   11.7894    7.1889   -2.1746 C   0  0  0  0  0  0  0  0  0  0  0  0
   11.6246    6.4327   -3.4917 C   0  0  0  0  0  0  0  0  0  0  0  0
   11.4199    7.3248   -4.6926 C   0  0  0  0  0  0  0  0  0  0  0  0
   10.8857    6.7823   -5.8662 C   0  0  0  0  0  0  0  0  0  0  0  0
   10.8306    7.5296   -7.0418 C   0  0  0  0  0  0  0  0  0  0  0  0
   11.2723    8.8689   -7.0464 C   0  0  0  0  0  0  0  0  0  0  0  0
   11.2860    9.6384   -8.1823 O   0  0  0  0  0  0  0  0  0  0  0  0
   11.1232    9.0122   -9.4527 C   0  0  0  0  0  0  0  0  0  0  0  0
    9.6389    8.8064   -9.8220 C   0  0  0  0  0  0  0  0  0  0  0  0
    9.4367    8.1332  -11.1860 C   0  0  0  0  0  0  0  0  0  0  0  0
    9.8266    6.6483  -11.2048 C   0  0  0  0  0  0  0  0  0  0  0  0
    9.5874    6.0516  -12.5411 N   0  0  0  0  0  0  0  0  0  0  0  0
    8.2190    5.4908  -12.6876 C   0  0  0  0  0  0  0  0  0  0  0  0
    8.0137    4.9552  -14.1115 C   0  0  0  0  0  0  0  0  0  0  0  0
    9.0560    3.9946  -14.4426 N   0  0  0  0  0  0  0  0  0  0  0  0
    8.7752    2.7170  -14.9753 C   0  0  0  0  0  0  0  0  0  0  0  0
    9.6870    2.1537  -15.9044 C   0  0  0  0  0  0  0  0  0  0  0  0
    9.4730    0.8900  -16.4752 C   0  0  0  0  0  0  0  0  0  0  0  0
    8.3157    0.1742  -16.1483 C   0  0  0  0  0  0  0  0  0  0  0  0
    7.3875    0.7218  -15.2450 C   0  0  0  0  0  0  0  0  0  0  0  0
    7.5986    1.9876  -14.6187 C   0  0  0  0  0  0  0  0  0  0  0  0
    6.4857    2.1956  -13.7258 C   0  0  0  0  0  0  0  0  0  0  0  0
    5.6538    1.1207  -13.8484 C   0  0  0  0  0  0  0  0  0  0  0  0
    6.1363    0.2767  -14.8349 N   0  0  0  0  0  0  0  0  0  0  0  0
    5.4262   -0.8841  -15.3368 C   0  0  0  0  0  0  0  0  0  0  0  0
    4.8934   -0.7336  -16.7637 C   0  0  0  0  0  0  0  0  0  0  0  0
    3.8508   -1.5864  -17.1644 C   0  0  0  0  0  0  0  0  0  0  0  0
    3.4196   -1.6212  -18.5021 C   0  0  0  0  0  0  0  0  0  0  0  0
    3.9975   -0.7564  -19.4481 C   0  0  0  0  0  0  0  0  0  0  0  0
    4.9809    0.1593  -19.0488 C   0  0  0  0  0  0  0  0  0  0  0  0
    5.5189    1.0153  -19.9495 F   0  0  0  0  0  0  0  0  0  0  0  0
    5.4255    0.1734  -17.7142 C   0  0  0  0  0  0  0  0  0  0  0  0
   10.4170    4.5027  -14.3471 C   0  0  0  0  0  0  0  0  0  0  0  0
   10.6506    5.0957  -12.9549 C   0  0  0  0  0  0  0  0  0  0  0  0
   11.7394    9.4482   -5.8426 C   0  0  0  0  0  0  0  0  0  0  0  0
   11.8282    8.6725   -4.6651 C   0  0  0  0  0  0  0  0  0  0  0  0
   12.3823    9.2114   -3.4795 N   0  0  0  0  0  0  0  0  0  0  0  0
   12.3302    6.5700   -1.4530 H   0  0  0  0  0  0  0  0  0  0  0  0
   10.8062    7.3728   -1.7478 H   0  0  0  0  0  0  0  0  0  0  0  0
   10.7670    5.7724   -3.4097 H   0  0  0  0  0  0  0  0  0  0  0  0
   12.4860    5.7933   -3.6650 H   0  0  0  0  0  0  0  0  0  0  0  0
   10.5404    5.7723   -5.8876 H   0  0  0  0  0  0  0  0  0  0  0  0
   10.4604    7.0346   -7.9232 H   0  0  0  0  0  0  0  0  0  0  0  0
   11.6974    8.0869   -9.4965 H   0  0  0  0  0  0  0  0  0  0  0  0
   11.5841    9.6681  -10.1917 H   0  0  0  0  0  0  0  0  0  0  0  0
    9.1450    9.7723   -9.8468 H   0  0  0  0  0  0  0  0  0  0  0  0
    9.0987    8.2446   -9.0603 H   0  0  0  0  0  0  0  0  0  0  0  0
   10.0172    8.6621  -11.9398 H   0  0  0  0  0  0  0  0  0  0  0  0
    8.3898    8.2390  -11.4727 H   0  0  0  0  0  0  0  0  0  0  0  0
    9.2878    6.0915  -10.4353 H   0  0  0  0  0  0  0  0  0  0  0  0
   10.8844    6.5728  -10.9544 H   0  0  0  0  0  0  0  0  0  0  0  0
    7.4736    6.2564  -12.4677 H   0  0  0  0  0  0  0  0  0  0  0  0
    8.0721    4.6857  -11.9650 H   0  0  0  0  0  0  0  0  0  0  0  0
    8.0967    5.7724  -14.8216 H   0  0  0  0  0  0  0  0  0  0  0  0
    7.0071    4.5727  -14.2465 H   0  0  0  0  0  0  0  0  0  0  0  0
   10.5682    2.6886  -16.2221 H   0  0  0  0  0  0  0  0  0  0  0  0
   10.1805    0.4856  -17.1857 H   0  0  0  0  0  0  0  0  0  0  0  0
    8.1170   -0.7738  -16.6259 H   0  0  0  0  0  0  0  0  0  0  0  0
    6.3358    3.0240  -13.0518 H   0  0  0  0  0  0  0  0  0  0  0  0
    4.7106    0.9255  -13.3596 H   0  0  0  0  0  0  0  0  0  0  0  0
    4.5950   -1.1037  -14.6653 H   0  0  0  0  0  0  0  0  0  0  0  0
    6.0858   -1.7501  -15.2946 H   0  0  0  0  0  0  0  0  0  0  0  0
    3.3855   -2.2292  -16.4362 H   0  0  0  0  0  0  0  0  0  0  0  0
    2.6403   -2.3118  -18.7917 H   0  0  0  0  0  0  0  0  0  0  0  0
    3.6854   -0.7842  -20.4805 H   0  0  0  0  0  0  0  0  0  0  0  0
    6.1878    0.8893  -17.4617 H   0  0  0  0  0  0  0  0  0  0  0  0
   11.1645    3.7254  -14.5034 H   0  0  0  0  0  0  0  0  0  0  0  0
   10.5695    5.2587  -15.1182 H   0  0  0  0  0  0  0  0  0  0  0  0
   11.6223    5.5914  -12.9492 H   0  0  0  0  0  0  0  0  0  0  0  0
   10.6803    4.2700  -12.2467 H   0  0  0  0  0  0  0  0  0  0  0  0
   12.0750   10.4754   -5.8466 H   0  0  0  0  0  0  0  0  0  0  0  0
   12.7968   10.1305   -3.5252 H   0  0  0  0  0  0  0  0  0  0  0  0
    9.6457    6.8122  -13.2008 H   0  0  0  0  0  0  0  0  0  0  0  0
  2  1  2  0
  3  2  1  0
  4  3  1  0
  5  4  1  0
  6  5  1  0
  7  6  2  0
  8  7  1  0
  9  8  1  0
 10  9  1  0
 11 10  1  0
 12 11  1  0
 13 12  1  0
 14 13  1  0
 15 14  1  0
 16 15  1  0
 17 16  1  0
 18 17  1  0
 19 18  1  0
 20 19  2  0
 21 20  1  0
 22 21  2  0
 23 18  2  0
 23 22  1  0
 24 23  1  0
 25 24  2  0
 26 22  1  0
 26 25  1  0
 27 26  1  0
 28 27  1  0
 29 28  2  0
 30 29  1  0
 31 30  2  0
 32 31  1  0
 33 32  1  0
 34 28  1  0
 34 32  2  0
 35 17  1  0
 36 14  1  0
 36 35  1  0
 37  8  2  0
 38  5  2  0
 38 37  1  0
 39  2  1  0
 39 38  1  0
 40  3  1  0
 41  3  1  0
 42  4  1  0
 43  4  1  0
 44  6  1  0
 45  7  1  0
 46 10  1  0
 47 10  1  0
 48 11  1  0
 49 11  1  0
 50 12  1  0
 51 12  1  0
 52 13  1  0
 53 13  1  0
 54 15  1  0
 55 15  1  0
 56 16  1  0
 57 16  1  0
 58 19  1  0
 59 20  1  0
 60 21  1  0
 61 24  1  0
 62 25  1  0
 63 27  1  0
 64 27  1  0
 65 29  1  0
 66 30  1  0
 67 31  1  0
 68 34  1  0
 69 35  1  0
 70 35  1  0
 71 36  1  0
 72 36  1  0
 73 37  1  0
 74 39  1  0
 75 14  1  0
M  CHG  1  14   1
M  END
>  <b_m_subgroup_collapsed>  (460) 
0

>  <r_i_docking_score>  (460) 
-7.9694918549800802

>  <s_m_subgroup_title>  (460) 
glide-dock_SP_D22_pv

>  <s_m_subgroupid>  (460) 
glide-dock_SP_D22_pv

>  <Molecule ChEMBL ID>  (460) 
CHEMBL3409240

>  <Standard Type>  (460) 
Ki

>  <Standard Value>  (460) 
6.1

>  <label>  (460) 
1

$$$$
CHEMBL86504
     RDKit          3D

 41 43  0  0  1  0  0  0  0  0999 V2000
    8.8555    0.8063  -16.9608 F   0  0  0  0  0  0  0  0  0  0  0  0
    9.9349    0.7763  -16.1801 C   0  0  0  0  0  0  0  0  0  0  0  0
   11.0029    0.5467  -16.9475 F   0  0  0  0  0  0  0  0  0  0  0  0
    9.8156   -0.2299  -15.3200 F   0  0  0  0  0  0  0  0  0  0  0  0
   10.0789    2.0644  -15.4293 C   0  0  0  0  0  0  0  0  0  0  0  0
    9.1327    2.5735  -14.6380 N   0  0  0  0  0  0  0  0  0  0  0  0
    9.7276    3.7245  -14.1450 C   0  0  0  0  0  0  0  0  0  0  0  0
    9.2402    4.6924  -13.2319 C   0  0  0  0  0  0  0  0  0  0  0  0
    7.9762    4.4920  -12.7047 O   0  0  0  0  0  0  0  0  0  0  0  0
    7.5364    5.3164  -11.6279 C   0  0  0  0  0  0  0  0  0  0  0  0
    8.2774    4.9712  -10.3165 C   0  0  0  0  0  0  0  0  0  0  0  0
    8.4898    6.1725   -9.4851 N   0  0  0  0  0  0  0  0  0  0  0  0
    9.1644    5.9198   -8.2003 C   0  0  0  0  0  0  0  0  0  0  0  0
   10.0048    7.1168   -7.7997 C   0  0  0  0  0  0  0  0  0  0  0  0
   11.1306    7.4788   -8.5704 C   0  0  0  0  0  0  0  0  0  0  0  0
   11.9412    8.5628   -8.1812 C   0  0  0  0  0  0  0  0  0  0  0  0
   11.6313    9.2876   -7.0129 C   0  0  0  0  0  0  0  0  0  0  0  0
   10.4995    8.9428   -6.2527 C   0  0  0  0  0  0  0  0  0  0  0  0
    9.6850    7.8616   -6.6473 C   0  0  0  0  0  0  0  0  0  0  0  0
   10.0603    5.8044  -12.9122 C   0  0  0  0  0  0  0  0  0  0  0  0
   11.3393    5.9593  -13.4770 C   0  0  0  0  0  0  0  0  0  0  0  0
   12.2670    7.3655  -13.1086 Cl  0  0  0  0  0  0  0  0  0  0  0  0
   11.8501    4.9877  -14.3528 C   0  0  0  0  0  0  0  0  0  0  0  0
   11.0424    3.8887  -14.6792 C   0  0  0  0  0  0  0  0  0  0  0  0
   11.2165    2.7832  -15.4928 N   0  0  0  0  0  0  0  0  0  0  0  0
    6.4676    5.1500  -11.4813 H   0  0  0  0  0  0  0  0  0  0  0  0
    7.6139    6.3693  -11.8943 H   0  0  0  0  0  0  0  0  0  0  0  0
    9.2623    4.5434  -10.5215 H   0  0  0  0  0  0  0  0  0  0  0  0
    7.7270    4.2016   -9.7702 H   0  0  0  0  0  0  0  0  0  0  0  0
    7.6043    6.6527   -9.3255 H   0  0  0  0  0  0  0  0  0  0  0  0
    9.8296    5.0581   -8.2753 H   0  0  0  0  0  0  0  0  0  0  0  0
    8.4098    5.6818   -7.4473 H   0  0  0  0  0  0  0  0  0  0  0  0
   11.3838    6.9216   -9.4606 H   0  0  0  0  0  0  0  0  0  0  0  0
   12.8050    8.8344   -8.7725 H   0  0  0  0  0  0  0  0  0  0  0  0
   12.2619   10.1088   -6.6966 H   0  0  0  0  0  0  0  0  0  0  0  0
   10.2610    9.5093   -5.3645 H   0  0  0  0  0  0  0  0  0  0  0  0
    8.8212    7.6016   -6.0560 H   0  0  0  0  0  0  0  0  0  0  0  0
    9.7258    6.5860  -12.2504 H   0  0  0  0  0  0  0  0  0  0  0  0
   12.8372    5.0983  -14.7808 H   0  0  0  0  0  0  0  0  0  0  0  0
   12.0262    2.5213  -16.0369 H   0  0  0  0  0  0  0  0  0  0  0  0
    9.0656    6.8181  -10.0101 H   0  0  0  0  0  0  0  0  0  0  0  0
  2  1  1  0
  3  2  1  0
  4  2  1  0
  5  2  1  0
  6  5  2  0
  7  6  1  0
  8  7  2  0
  9  8  1  0
 10  9  1  0
 11 10  1  0
 12 11  1  0
 13 12  1  0
 14 13  1  0
 15 14  2  0
 16 15  1  0
 17 16  2  0
 18 17  1  0
 19 14  1  0
 19 18  2  0
 20  8  1  0
 21 20  2  0
 22 21  1  0
 23 21  1  0
 24  7  1  0
 24 23  2  0
 25  5  1  0
 25 24  1  0
 26 10  1  0
 27 10  1  0
 28 11  1  0
 29 11  1  0
 30 12  1  0
 31 13  1  0
 32 13  1  0
 33 15  1  0
 34 16  1  0
 35 17  1  0
 36 18  1  0
 37 19  1  0
 38 20  1  0
 39 23  1  0
 40 25  1  0
 41 12  1  0
M  CHG  1  12   1
M  END
>  <b_m_subgroup_collapsed>  (461) 
0

>  <r_i_docking_score>  (461) 
-7.9661979366213798

>  <s_m_subgroup_title>  (461) 
glide-dock_SP_D22_pv

>  <s_m_subgroupid>  (461) 
glide-dock_SP_D22_pv

>  <Molecule ChEMBL ID>  (461) 
CHEMBL86504

>  <Standard Type>  (461) 
Ki

>  <Standard Value>  (461) 
32.4

>  <label>  (461) 
1

$$$$
CHEMBL3800150
     RDKit          3D

 72 76  0  0  1  0  0  0  0  0999 V2000
   11.5798    0.2348  -17.8385 C   0  0  0  0  0  0  0  0  0  0  0  0
   11.7710    1.7430  -18.0658 C   0  0  0  0  0  0  0  0  0  0  0  0
   12.9496    1.9986  -19.0187 C   0  0  0  0  0  0  0  0  0  0  0  0
   11.9268    2.5018  -16.7330 C   0  0  0  0  0  0  0  0  0  0  0  0
   11.7893    4.3273  -16.9644 S   0  0  0  0  0  0  0  0  0  0  0  0
   10.6098    4.6498  -17.7813 O   0  0  0  0  0  0  0  0  0  0  0  0
   13.1116    4.8803  -17.2956 O   0  0  0  0  0  0  0  0  0  0  0  0
   11.4294    4.8790  -15.3766 N   0  0  0  0  0  0  0  0  0  0  0  0
   12.2387    5.7450  -14.6553 C   0  0  0  0  0  0  0  0  0  0  0  0
   11.6572    6.0243  -13.4483 C   0  0  0  0  0  0  0  0  0  0  0  0
   10.4085    5.3120  -13.4134 C   0  0  0  0  0  0  0  0  0  0  0  0
    9.3339    5.1628  -12.4973 C   0  0  0  0  0  0  0  0  0  0  0  0
    9.3469    5.8385  -11.1773 C   0  0  0  0  0  0  0  0  0  0  0  0
    8.8860    5.1606  -10.0285 C   0  0  0  0  0  0  0  0  0  0  0  0
    8.9757    5.7352   -8.7502 C   0  0  0  0  0  0  0  0  0  0  0  0
    9.5402    7.0083   -8.5767 C   0  0  0  0  0  0  0  0  0  0  0  0
    9.6542    7.4630   -7.2844 O   0  0  0  0  0  0  0  0  0  0  0  0
   10.6241    8.4630   -7.0052 C   0  0  0  0  0  0  0  0  0  0  0  0
   11.1031    8.3569   -5.5704 C   0  0  0  0  0  0  0  0  0  0  0  0
   11.2865    7.0831   -4.9884 C   0  0  0  0  0  0  0  0  0  0  0  0
   11.7790    6.9695   -3.6735 C   0  0  0  0  0  0  0  0  0  0  0  0
   12.0861    8.1262   -2.9333 C   0  0  0  0  0  0  0  0  0  0  0  0
   11.8937    9.3955   -3.5079 C   0  0  0  0  0  0  0  0  0  0  0  0
   11.4058    9.5149   -4.8257 C   0  0  0  0  0  0  0  0  0  0  0  0
    9.9610    7.7289   -9.7209 C   0  0  0  0  0  0  0  0  0  0  0  0
    9.8527    7.1493  -11.0030 C   0  0  0  0  0  0  0  0  0  0  0  0
    8.2782    4.2837  -12.8506 C   0  0  0  0  0  0  0  0  0  0  0  0
    8.3045    3.5510  -14.0639 C   0  0  0  0  0  0  0  0  0  0  0  0
    7.3175    2.5781  -14.3939 N   0  0  0  0  0  0  0  0  0  0  0  0
    7.3355    1.8837  -15.6879 C   0  0  0  0  0  0  0  0  0  0  0  0
    7.1026    0.3756  -15.4962 C   0  0  0  0  0  0  0  0  0  0  0  0
    5.8425    0.1326  -14.7583 N   0  0  0  0  0  0  0  0  0  0  0  0
    5.5235   -1.3093  -14.6465 C   0  0  0  0  0  0  0  0  0  0  0  0
    5.8179    0.8306  -13.4480 C   0  0  0  0  0  0  0  0  0  0  0  0
    6.1204    2.3429  -13.5819 C   0  0  0  0  0  0  0  0  0  0  0  0
    9.2939    3.7206  -14.9671 N   0  0  0  0  0  0  0  0  0  0  0  0
   10.3026    4.5738  -14.6252 C   0  0  0  0  0  0  0  0  0  0  0  0
   12.4870   -0.2243  -17.4463 H   0  0  0  0  0  0  0  0  0  0  0  0
   10.7653    0.0354  -17.1385 H   0  0  0  0  0  0  0  0  0  0  0  0
   11.3385   -0.2741  -18.7743 H   0  0  0  0  0  0  0  0  0  0  0  0
   10.8620    2.1062  -18.5514 H   0  0  0  0  0  0  0  0  0  0  0  0
   13.8967    1.6944  -18.5695 H   0  0  0  0  0  0  0  0  0  0  0  0
   12.8319    1.4420  -19.9488 H   0  0  0  0  0  0  0  0  0  0  0  0
   13.0339    3.0505  -19.2855 H   0  0  0  0  0  0  0  0  0  0  0  0
   12.8786    2.2845  -16.2485 H   0  0  0  0  0  0  0  0  0  0  0  0
   11.1376    2.1928  -16.0499 H   0  0  0  0  0  0  0  0  0  0  0  0
   13.1721    6.1039  -15.0649 H   0  0  0  0  0  0  0  0  0  0  0  0
   12.0607    6.6643  -12.6758 H   0  0  0  0  0  0  0  0  0  0  0  0
    8.4704    4.1724  -10.1148 H   0  0  0  0  0  0  0  0  0  0  0  0
    8.6268    5.1863   -7.8896 H   0  0  0  0  0  0  0  0  0  0  0  0
   10.1929    9.4478   -7.1903 H   0  0  0  0  0  0  0  0  0  0  0  0
   11.5053    8.3569   -7.6397 H   0  0  0  0  0  0  0  0  0  0  0  0
   11.0619    6.1888   -5.5482 H   0  0  0  0  0  0  0  0  0  0  0  0
   11.9214    5.9923   -3.2331 H   0  0  0  0  0  0  0  0  0  0  0  0
   12.4560    8.0406   -1.9219 H   0  0  0  0  0  0  0  0  0  0  0  0
   12.1188   10.2828   -2.9358 H   0  0  0  0  0  0  0  0  0  0  0  0
   11.2738   10.4928   -5.2652 H   0  0  0  0  0  0  0  0  0  0  0  0
   10.3678    8.7266   -9.6338 H   0  0  0  0  0  0  0  0  0  0  0  0
   10.1804    7.7205  -11.8589 H   0  0  0  0  0  0  0  0  0  0  0  0
    7.4748    4.1802  -12.1410 H   0  0  0  0  0  0  0  0  0  0  0  0
    6.5442    2.3006  -16.3137 H   0  0  0  0  0  0  0  0  0  0  0  0
    8.2600    2.0131  -16.2494 H   0  0  0  0  0  0  0  0  0  0  0  0
    7.0620   -0.1157  -16.4697 H   0  0  0  0  0  0  0  0  0  0  0  0
    7.9412   -0.0675  -14.9541 H   0  0  0  0  0  0  0  0  0  0  0  0
    6.2505   -1.8277  -14.0167 H   0  0  0  0  0  0  0  0  0  0  0  0
    4.5330   -1.4495  -14.2116 H   0  0  0  0  0  0  0  0  0  0  0  0
    5.5221   -1.7899  -15.6262 H   0  0  0  0  0  0  0  0  0  0  0  0
    4.8442    0.6975  -12.9763 H   0  0  0  0  0  0  0  0  0  0  0  0
    6.5492    0.3648  -12.7879 H   0  0  0  0  0  0  0  0  0  0  0  0
    6.1818    2.7553  -12.5796 H   0  0  0  0  0  0  0  0  0  0  0  0
    5.2860    2.8551  -14.0567 H   0  0  0  0  0  0  0  0  0  0  0  0
    5.1084    0.5430  -15.3181 H   0  0  0  0  0  0  0  0  0  0  0  0
  2  1  1  0
  3  2  1  0
  4  2  1  0
  5  4  1  0
  6  5  2  0
  7  5  2  0
  8  5  1  0
  9  8  1  0
 10  9  2  0
 11 10  1  0
 12 11  1  0
 13 12  1  0
 14 13  1  0
 15 14  2  0
 16 15  1  0
 17 16  1  0
 18 17  1  0
 19 18  1  0
 20 19  2  0
 21 20  1  0
 22 21  2  0
 23 22  1  0
 24 19  1  0
 24 23  2  0
 25 16  2  0
 26 13  2  0
 26 25  1  0
 27 12  2  0
 28 27  1  0
 29 28  1  0
 30 29  1  0
 31 30  1  0
 32 31  1  0
 33 32  1  0
 34 32  1  0
 35 29  1  0
 35 34  1  0
 36 28  2  0
 37  8  1  0
 37 11  2  0
 37 36  1  0
 38  1  1  0
 39  1  1  0
 40  1  1  0
 41  2  1  0
 42  3  1  0
 43  3  1  0
 44  3  1  0
 45  4  1  0
 46  4  1  0
 47  9  1  0
 48 10  1  0
 49 14  1  0
 50 15  1  0
 51 18  1  0
 52 18  1  0
 53 20  1  0
 54 21  1  0
 55 22  1  0
 56 23  1  0
 57 24  1  0
 58 25  1  0
 59 26  1  0
 60 27  1  0
 61 30  1  0
 62 30  1  0
 63 31  1  0
 64 31  1  0
 65 33  1  0
 66 33  1  0
 67 33  1  0
 68 34  1  0
 69 34  1  0
 70 35  1  0
 71 35  1  0
 72 32  1  0
M  CHG  1  32   1
M  END
>  <b_m_subgroup_collapsed>  (462) 
0

>  <r_i_docking_score>  (462) 
-7.9658501031143096

>  <s_m_subgroup_title>  (462) 
glide-dock_SP_D22_pv

>  <s_m_subgroupid>  (462) 
glide-dock_SP_D22_pv

>  <Molecule ChEMBL ID>  (462) 
CHEMBL3800150

>  <Standard Type>  (462) 
Ki

>  <Standard Value>  (462) 
86.0

>  <label>  (462) 
1

$$$$
CHEMBL4584497
     RDKit          3D

 63 66  0  0  1  0  0  0  0  0999 V2000
    3.5238   -1.1532  -15.5697 C   0  0  0  0  0  0  0  0  0  0  0  0
    4.9370   -1.4307  -15.0350 C   0  0  0  0  0  0  0  0  0  0  0  0
    5.8674   -0.2589  -15.2987 C   0  0  0  0  0  0  0  0  0  0  0  0
    6.5105   -0.2216  -16.5491 C   0  0  0  0  0  0  0  0  0  0  0  0
    7.3479    0.8535  -16.8759 C   0  0  0  0  0  0  0  0  0  0  0  0
    7.5317    1.8977  -15.9531 C   0  0  0  0  0  0  0  0  0  0  0  0
    6.9031    1.8969  -14.6846 C   0  0  0  0  0  0  0  0  0  0  0  0
    7.1451    3.0152  -13.8470 N   0  0  0  0  0  0  0  0  0  0  0  0
    8.5284    3.4245  -13.6362 C   0  0  0  0  0  0  0  0  0  0  0  0
    8.5992    4.9495  -13.5850 C   0  0  0  0  0  0  0  0  0  0  0  0
    7.7279    5.5121  -12.5134 N   0  0  0  0  0  0  0  0  0  0  0  0
    7.8111    6.9983  -12.4613 C   0  0  0  0  0  0  0  0  0  0  0  0
    8.8384    7.5606  -11.4557 C   0  0  2  0  0  0  0  0  0  0  0  0
    8.8571    8.8837  -11.6177 F   0  0  0  0  0  0  0  0  0  0  0  0
   10.2783    7.0508  -11.6291 C   0  0  0  0  0  0  0  0  0  0  0  0
   11.3339    7.7513  -10.7537 C   0  0  0  0  0  0  0  0  0  0  0  0
   11.0117    7.8924   -9.3467 N   0  0  0  0  0  0  0  0  0  0  0  0
   10.5484    6.9729   -8.4928 C   0  0  0  0  0  0  0  0  0  0  0  0
   10.0975    5.8729   -8.8103 O   0  0  0  0  0  0  0  0  0  0  0  0
   10.8084    7.3275   -7.0958 C   0  0  0  0  0  0  0  0  0  0  0  0
   11.2861    6.5957   -6.0445 C   0  0  0  0  0  0  0  0  0  0  0  0
   11.4768    7.5012   -4.9534 C   0  0  0  0  0  0  0  0  0  0  0  0
   11.9835    7.3789   -3.6385 C   0  0  0  0  0  0  0  0  0  0  0  0
   12.0860    8.5070   -2.8009 C   0  0  0  0  0  0  0  0  0  0  0  0
   11.6875    9.7720   -3.2703 C   0  0  0  0  0  0  0  0  0  0  0  0
   11.1754    9.9236   -4.5667 C   0  0  0  0  0  0  0  0  0  0  0  0
   11.0755    8.7971   -5.3915 C   0  0  0  0  0  0  0  0  0  0  0  0
   10.6359    8.6383   -6.6845 N   0  0  0  0  0  0  0  0  0  0  0  0
    6.3172    5.0400  -12.6299 C   0  0  0  0  0  0  0  0  0  0  0  0
    6.1861    3.5185  -12.8626 C   0  0  0  0  0  0  0  0  0  0  0  0
    6.0736    0.7809  -14.3497 C   0  0  0  0  0  0  0  0  0  0  0  0
    5.2864    0.6464  -12.8141 Cl  0  0  0  0  0  0  0  0  0  0  0  0
    2.8876   -2.0272  -15.4446 H   0  0  0  0  0  0  0  0  0  0  0  0
    3.0569   -0.3111  -15.0537 H   0  0  0  0  0  0  0  0  0  0  0  0
    3.5449   -0.9255  -16.6377 H   0  0  0  0  0  0  0  0  0  0  0  0
    5.3390   -2.3193  -15.5280 H   0  0  0  0  0  0  0  0  0  0  0  0
    4.9045   -1.6815  -13.9765 H   0  0  0  0  0  0  0  0  0  0  0  0
    6.3576   -1.0152  -17.2661 H   0  0  0  0  0  0  0  0  0  0  0  0
    7.8407    0.8870  -17.8356 H   0  0  0  0  0  0  0  0  0  0  0  0
    8.1545    2.7266  -16.2572 H   0  0  0  0  0  0  0  0  0  0  0  0
    8.9010    3.0044  -12.7018 H   0  0  0  0  0  0  0  0  0  0  0  0
    9.2014    3.0502  -14.4065 H   0  0  0  0  0  0  0  0  0  0  0  0
    9.6379    5.2363  -13.4458 H   0  0  0  0  0  0  0  0  0  0  0  0
    8.2962    5.3545  -14.5520 H   0  0  0  0  0  0  0  0  0  0  0  0
    8.0392    7.3740  -13.4468 H   0  0  0  0  0  0  0  0  0  0  0  0
    6.8319    7.4230  -12.2471 H   0  0  0  0  0  0  0  0  0  0  0  0
    8.4862    7.3797  -10.4398 H   0  0  0  0  0  0  0  0  0  0  0  0
   10.3071    5.9837  -11.4194 H   0  0  0  0  0  0  0  0  0  0  0  0
   10.5849    7.1716  -12.6666 H   0  0  0  0  0  0  0  0  0  0  0  0
   12.2912    7.2404  -10.8417 H   0  0  0  0  0  0  0  0  0  0  0  0
   11.5034    8.7646  -11.1049 H   0  0  0  0  0  0  0  0  0  0  0  0
   11.3806    8.7249   -8.9160 H   0  0  0  0  0  0  0  0  0  0  0  0
   11.5668    5.5572   -6.0565 H   0  0  0  0  0  0  0  0  0  0  0  0
   12.2967    6.4095   -3.2763 H   0  0  0  0  0  0  0  0  0  0  0  0
   12.4756    8.4071   -1.8004 H   0  0  0  0  0  0  0  0  0  0  0  0
   11.7886   10.6459   -2.6465 H   0  0  0  0  0  0  0  0  0  0  0  0
   10.8768   10.8960   -4.9315 H   0  0  0  0  0  0  0  0  0  0  0  0
   10.2456    9.3564   -7.2761 H   0  0  0  0  0  0  0  0  0  0  0  0
    5.7724    5.3194  -11.7273 H   0  0  0  0  0  0  0  0  0  0  0  0
    5.8279    5.5630  -13.4469 H   0  0  0  0  0  0  0  0  0  0  0  0
    5.1653    3.2993  -13.1764 H   0  0  0  0  0  0  0  0  0  0  0  0
    6.3531    3.0040  -11.9154 H   0  0  0  0  0  0  0  0  0  0  0  0
    8.0596    5.1635  -11.6246 H   0  0  0  0  0  0  0  0  0  0  0  0
  2  1  1  0
  3  2  1  0
  4  3  2  0
  5  4  1  0
  6  5  2  0
  7  6  1  0
  8  7  1  0
  9  8  1  0
 10  9  1  0
 11 10  1  0
 12 11  1  0
 13 12  1  0
 14 13  1  0
 15 13  1  0
 16 15  1  0
 17 16  1  0
 18 17  1  0
 19 18  2  0
 20 18  1  0
 21 20  2  0
 22 21  1  0
 23 22  2  0
 24 23  1  0
 25 24  2  0
 26 25  1  0
 27 22  1  0
 27 26  2  0
 28 20  1  0
 28 27  1  0
 29 11  1  0
 30  8  1  0
 30 29  1  0
 31  3  1  0
 31  7  2  0
 32 31  1  0
 33  1  1  0
 34  1  1  0
 35  1  1  0
 36  2  1  0
 37  2  1  0
 38  4  1  0
 39  5  1  0
 40  6  1  0
 41  9  1  0
 42  9  1  0
 43 10  1  0
 44 10  1  0
 45 12  1  0
 46 12  1  0
 13 47  1  1
 48 15  1  0
 49 15  1  0
 50 16  1  0
 51 16  1  0
 52 17  1  0
 53 21  1  0
 54 23  1  0
 55 24  1  0
 56 25  1  0
 57 26  1  0
 58 28  1  0
 59 29  1  0
 60 29  1  0
 61 30  1  0
 62 30  1  0
 63 11  1  0
M  CHG  1  11   1
M  END
>  <b_m_subgroup_collapsed>  (463) 
0

>  <r_i_docking_score>  (463) 
-7.9656811290634

>  <s_m_subgroup_title>  (463) 
glide-dock_SP_D22_pv

>  <s_m_subgroupid>  (463) 
glide-dock_SP_D22_pv

>  <Molecule ChEMBL ID>  (463) 
CHEMBL4584497

>  <Standard Type>  (463) 
Ki

>  <Standard Value>  (463) 
80.2

>  <label>  (463) 
1

$$$$
CHEMBL219182
     RDKit          3D

 47 49  0  0  1  0  0  0  0  0999 V2000
    7.7485    2.1746  -15.1276 C   0  0  0  0  0  0  0  0  0  0  0  0
    7.4427    3.1989  -14.0547 C   0  0  0  0  0  0  0  0  0  0  0  0
    6.1718    3.2247  -13.4473 C   0  0  0  0  0  0  0  0  0  0  0  0
    5.8963    4.1652  -12.4403 C   0  0  0  0  0  0  0  0  0  0  0  0
    6.8852    5.0813  -12.0363 C   0  0  0  0  0  0  0  0  0  0  0  0
    8.1648    5.0755  -12.6411 C   0  0  0  0  0  0  0  0  0  0  0  0
    9.2490    6.0296  -12.2065 C   0  0  0  0  0  0  0  0  0  0  0  0
   10.3960    5.9140  -12.6414 O   0  0  0  0  0  0  0  0  0  0  0  0
    8.8861    7.0058  -11.3585 N   0  0  0  0  0  0  0  0  0  0  0  0
    9.7680    8.0055  -10.7742 C   0  0  0  0  0  0  0  0  0  0  0  0
   10.2943    7.7295   -9.4371 N   0  0  0  0  0  0  0  0  0  0  0  0
    9.1902    7.5994   -8.4755 C   0  0  0  0  0  0  0  0  0  0  0  0
    9.7272    7.2910   -7.0654 C   0  0  0  0  0  0  0  0  0  0  0  0
   10.6703    8.4179   -6.6194 C   0  0  0  0  0  0  0  0  0  0  0  0
   11.2030    8.2935   -5.1885 C   0  0  0  0  0  0  0  0  0  0  0  0
   11.6036    7.0486   -4.6487 C   0  0  0  0  0  0  0  0  0  0  0  0
   12.0900    6.9717   -3.3347 C   0  0  0  0  0  0  0  0  0  0  0  0
   12.2037    8.1500   -2.5845 C   0  0  0  0  0  0  0  0  0  0  0  0
   11.8068    9.3694   -3.1585 C   0  0  0  0  0  0  0  0  0  0  0  0
   11.2939    9.4349   -4.4233 N   0  0  0  0  0  0  0  0  0  0  0  0
   10.8867   10.5715   -4.8663 O   0  0  0  0  0  0  0  0  0  0  0  0
   11.7948    8.5545   -7.6546 C   0  0  0  0  0  0  0  0  0  0  0  0
   11.2037    8.8136   -9.0505 C   0  0  0  0  0  0  0  0  0  0  0  0
    8.4299    4.1246  -13.6550 C   0  0  0  0  0  0  0  0  0  0  0  0
    7.1749    1.2608  -14.9685 H   0  0  0  0  0  0  0  0  0  0  0  0
    7.4980    2.5716  -16.1123 H   0  0  0  0  0  0  0  0  0  0  0  0
    8.8074    1.9126  -15.1222 H   0  0  0  0  0  0  0  0  0  0  0  0
    5.4103    2.5203  -13.7455 H   0  0  0  0  0  0  0  0  0  0  0  0
    4.9274    4.1764  -11.9627 H   0  0  0  0  0  0  0  0  0  0  0  0
    6.6391    5.7725  -11.2438 H   0  0  0  0  0  0  0  0  0  0  0  0
    7.9128    7.0641  -11.0643 H   0  0  0  0  0  0  0  0  0  0  0  0
   10.6042    8.1794  -11.4531 H   0  0  0  0  0  0  0  0  0  0  0  0
    9.2044    8.9400  -10.7531 H   0  0  0  0  0  0  0  0  0  0  0  0
    8.5979    8.5158   -8.4581 H   0  0  0  0  0  0  0  0  0  0  0  0
    8.5123    6.7993   -8.7814 H   0  0  0  0  0  0  0  0  0  0  0  0
    8.8927    7.1987   -6.3688 H   0  0  0  0  0  0  0  0  0  0  0  0
   10.2380    6.3275   -7.0745 H   0  0  0  0  0  0  0  0  0  0  0  0
   10.0687    9.3254   -6.6774 H   0  0  0  0  0  0  0  0  0  0  0  0
   11.5330    6.1461   -5.2363 H   0  0  0  0  0  0  0  0  0  0  0  0
   12.3838    6.0202   -2.9131 H   0  0  0  0  0  0  0  0  0  0  0  0
   12.5836    8.1250   -1.5749 H   0  0  0  0  0  0  0  0  0  0  0  0
   11.8523   10.3187   -2.6462 H   0  0  0  0  0  0  0  0  0  0  0  0
   12.4626    9.3716   -7.3794 H   0  0  0  0  0  0  0  0  0  0  0  0
   12.4034    7.6499   -7.6769 H   0  0  0  0  0  0  0  0  0  0  0  0
   12.0165    8.8869   -9.7757 H   0  0  0  0  0  0  0  0  0  0  0  0
   10.6808    9.7715   -9.0641 H   0  0  0  0  0  0  0  0  0  0  0  0
    9.4038    4.0903  -14.1229 H   0  0  0  0  0  0  0  0  0  0  0  0
  2  1  1  0
  3  2  2  0
  4  3  1  0
  5  4  2  0
  6  5  1  0
  7  6  1  0
  8  7  2  0
  9  7  1  0
 10  9  1  0
 11 10  1  0
 12 11  1  0
 13 12  1  0
 14 13  1  0
 15 14  1  0
 16 15  2  0
 17 16  1  0
 18 17  2  0
 19 18  1  0
 20 15  1  0
 20 19  2  0
 21 20  1  0
 22 14  1  0
 23 11  1  0
 23 22  1  0
 24  2  1  0
 24  6  2  0
 25  1  1  0
 26  1  1  0
 27  1  1  0
 28  3  1  0
 29  4  1  0
 30  5  1  0
 31  9  1  0
 32 10  1  0
 33 10  1  0
 34 12  1  0
 35 12  1  0
 36 13  1  0
 37 13  1  0
 38 14  1  0
 39 16  1  0
 40 17  1  0
 41 18  1  0
 42 19  1  0
 43 22  1  0
 44 22  1  0
 45 23  1  0
 46 23  1  0
 47 24  1  0
M  CHG  2  20   1  21  -1
M  END
>  <b_m_subgroup_collapsed>  (464) 
0

>  <r_i_docking_score>  (464) 
-7.9632397034211602

>  <s_m_subgroup_title>  (464) 
glide-dock_SP_D22_pv

>  <s_m_subgroupid>  (464) 
glide-dock_SP_D22_pv

>  <Molecule ChEMBL ID>  (464) 
CHEMBL219182

>  <Standard Type>  (464) 
Ki

>  <Standard Value>  (464) 
10000.0

>  <label>  (464) 
0

$$$$
CHEMBL3774621
     RDKit          3D

 62 66  0  0  1  0  0  0  0  0999 V2000
    9.4760    6.6592   -6.6532 C   0  0  0  0  0  0  0  0  0  0  0  0
   10.4528    7.6348   -7.0802 N   0  0  0  0  0  0  0  0  0  0  0  0
   10.7696    8.0015   -8.3347 C   0  0  0  0  0  0  0  0  0  0  0  0
   10.0871    7.2184   -9.7635 S   0  0  0  0  0  0  0  0  0  0  0  0
    9.6896    8.7062  -10.7195 C   0  0  0  0  0  0  0  0  0  0  0  0
    9.3710    8.4059  -12.1943 C   0  0  0  0  0  0  0  0  0  0  0  0
    8.0381    7.6884  -12.4247 C   0  0  0  0  0  0  0  0  0  0  0  0
    8.0851    6.2425  -12.1062 N   0  0  1  0  0  0  0  0  0  0  0  0
    6.7527    5.6600  -11.8726 C   0  0  0  0  0  0  0  0  0  0  0  0
    6.8490    4.1833  -12.2643 C   0  0  1  0  0  0  0  0  0  0  0  0
    5.8227    3.7226  -13.3008 C   0  0  0  0  0  0  0  0  0  0  0  0
    6.6151    2.6813  -14.0707 C   0  0  0  0  0  0  0  0  0  0  0  0
    7.9636    3.2291  -14.1712 N   0  0  0  0  0  0  0  0  0  0  0  0
    8.9768    2.4210  -14.7481 C   0  0  0  0  0  0  0  0  0  0  0  0
    8.8043    1.0142  -14.8450 C   0  0  0  0  0  0  0  0  0  0  0  0
    9.7491    0.2005  -15.4929 C   0  0  0  0  0  0  0  0  0  0  0  0
   10.8861    0.7798  -16.0680 C   0  0  0  0  0  0  0  0  0  0  0  0
   11.0950    2.1630  -15.9616 C   0  0  0  0  0  0  0  0  0  0  0  0
   10.1570    2.9974  -15.3016 C   0  0  0  0  0  0  0  0  0  0  0  0
   10.3342    4.3631  -15.2273 O   0  0  0  0  0  0  0  0  0  0  0  0
   11.5734    4.9181  -15.3464 C   0  0  0  0  0  0  0  0  0  0  0  0
   11.5254    6.2169  -14.9685 F   0  0  0  0  0  0  0  0  0  0  0  0
   12.4795    4.3155  -14.5353 F   0  0  0  0  0  0  0  0  0  0  0  0
   12.0222    4.8926  -16.6255 F   0  0  0  0  0  0  0  0  0  0  0  0
    8.2143    3.9837  -12.9394 C   0  0  1  0  0  0  0  0  0  0  0  0
    8.7408    5.4099  -13.1368 C   0  0  0  0  0  0  0  0  0  0  0  0
   11.6790    8.9720   -8.3839 N   0  0  0  0  0  0  0  0  0  0  0  0
   12.0066    9.2371   -7.0767 N   0  0  0  0  0  0  0  0  0  0  0  0
   11.2856    8.3962   -6.3337 C   0  0  0  0  0  0  0  0  0  0  0  0
   11.5012    8.3073   -4.8914 C   0  0  0  0  0  0  0  0  0  0  0  0
   11.6861    7.0606   -4.2465 C   0  0  0  0  0  0  0  0  0  0  0  0
   12.0257    6.9724   -2.9390 N   0  0  0  0  0  0  0  0  0  0  0  0
   12.1736    8.1396   -2.2746 C   0  0  0  0  0  0  0  0  0  0  0  0
   11.9845    9.3814   -2.9120 C   0  0  0  0  0  0  0  0  0  0  0  0
   11.6450    9.4715   -4.2149 N   0  0  0  0  0  0  0  0  0  0  0  0
    8.8861    7.0775   -5.8467 H   0  0  0  0  0  0  0  0  0  0  0  0
    9.9960    5.7723   -6.3158 H   0  0  0  0  0  0  0  0  0  0  0  0
    8.7927    6.3945   -7.4606 H   0  0  0  0  0  0  0  0  0  0  0  0
    8.8611    9.2286  -10.2390 H   0  0  0  0  0  0  0  0  0  0  0  0
   10.5510    9.3717  -10.6736 H   0  0  0  0  0  0  0  0  0  0  0  0
    9.2863    9.3602  -12.7172 H   0  0  0  0  0  0  0  0  0  0  0  0
   10.2019    7.8649  -12.6468 H   0  0  0  0  0  0  0  0  0  0  0  0
    7.2978    8.2318  -11.8493 H   0  0  0  0  0  0  0  0  0  0  0  0
    7.6858    7.7828  -13.4468 H   0  0  0  0  0  0  0  0  0  0  0  0
    6.4867    5.7722  -10.8281 H   0  0  0  0  0  0  0  0  0  0  0  0
    5.9958    6.1805  -12.4616 H   0  0  0  0  0  0  0  0  0  0  0  0
    6.7870    3.5510  -11.3776 H   0  0  0  0  0  0  0  0  0  0  0  0
    4.9132    3.3224  -12.8530 H   0  0  0  0  0  0  0  0  0  0  0  0
    5.5420    4.5339  -13.9729 H   0  0  0  0  0  0  0  0  0  0  0  0
    6.6051    1.7582  -13.4906 H   0  0  0  0  0  0  0  0  0  0  0  0
    6.1875    2.4817  -15.0503 H   0  0  0  0  0  0  0  0  0  0  0  0
    7.9419    0.5138  -14.4354 H   0  0  0  0  0  0  0  0  0  0  0  0
    9.5938   -0.8661  -15.5557 H   0  0  0  0  0  0  0  0  0  0  0  0
   11.6141    0.1683  -16.5779 H   0  0  0  0  0  0  0  0  0  0  0  0
   11.9909    2.5581  -16.4116 H   0  0  0  0  0  0  0  0  0  0  0  0
    8.8857    3.4296  -12.2807 H   0  0  0  0  0  0  0  0  0  0  0  0
    8.4703    5.7721  -14.1299 H   0  0  0  0  0  0  0  0  0  0  0  0
    9.8235    5.4668  -13.0307 H   0  0  0  0  0  0  0  0  0  0  0  0
   11.6188    6.1279   -4.7857 H   0  0  0  0  0  0  0  0  0  0  0  0
   12.4472    8.0923   -1.2311 H   0  0  0  0  0  0  0  0  0  0  0  0
   12.0861   10.3083   -2.3689 H   0  0  0  0  0  0  0  0  0  0  0  0
    8.5902    6.1378  -11.2366 H   0  0  0  0  0  0  0  0  0  0  0  0
  2  1  1  0
  3  2  1  0
  4  3  1  0
  5  4  1  0
  6  5  1  0
  7  6  1  0
  8  7  1  0
  9  8  1  0
 10  9  1  0
 11 10  1  0
 12 11  1  0
 13 12  1  0
 14 13  1  0
 15 14  2  0
 16 15  1  0
 17 16  2  0
 18 17  1  0
 19 14  1  0
 19 18  2  0
 20 19  1  0
 21 20  1  0
 22 21  1  0
 23 21  1  0
 24 21  1  0
 25 10  1  0
 25 13  1  0
 26  8  1  0
 26 25  1  0
 27  3  2  0
 28 27  1  0
 29  2  1  0
 29 28  2  0
 30 29  1  0
 31 30  2  0
 32 31  1  0
 33 32  2  0
 34 33  1  0
 35 30  1  0
 35 34  2  0
 36  1  1  0
 37  1  1  0
 38  1  1  0
 39  5  1  0
 40  5  1  0
 41  6  1  0
 42  6  1  0
 43  7  1  0
 44  7  1  0
 45  9  1  0
 46  9  1  0
 10 47  1  1
 48 11  1  0
 49 11  1  0
 50 12  1  0
 51 12  1  0
 52 15  1  0
 53 16  1  0
 54 17  1  0
 55 18  1  0
 25 56  1  1
 57 26  1  0
 58 26  1  0
 59 31  1  0
 60 33  1  0
 61 34  1  0
  8 62  1  1
M  CHG  1   8   1
M  END
>  <b_m_subgroup_collapsed>  (465) 
0

>  <r_i_docking_score>  (465) 
-7.9632349113517202

>  <s_m_subgroup_title>  (465) 
glide-dock_SP_D22_pv

>  <s_m_subgroupid>  (465) 
glide-dock_SP_D22_pv

>  <Molecule ChEMBL ID>  (465) 
CHEMBL3774621

>  <Standard Type>  (465) 
Ki

>  <Standard Value>  (465) 
11.5

>  <label>  (465) 
1

$$$$
CHEMBL4863980
     RDKit          3D

 66 70  0  0  1  0  0  0  0  0999 V2000
   12.7583    8.8330   -1.2100 F   0  0  0  0  0  0  0  0  0  0  0  0
   12.2688    8.6649   -2.4591 C   0  0  0  0  0  0  0  0  0  0  0  0
   11.7450    9.7709   -3.1720 C   0  0  0  0  0  0  0  0  0  0  0  0
   11.2419    9.6235   -4.4874 C   0  0  0  0  0  0  0  0  0  0  0  0
   11.2807    8.3421   -5.0799 C   0  0  0  0  0  0  0  0  0  0  0  0
   10.8511    7.8747   -6.3433 C   0  0  0  0  0  0  0  0  0  0  0  0
   10.0703    8.5641   -7.4410 C   0  0  1  0  0  0  0  0  0  0  0  0
   10.7551    8.6060   -8.8236 C   0  0  0  0  0  0  0  0  0  0  0  0
   10.6692    7.2707   -9.5955 C   0  0  0  0  0  0  0  0  0  0  0  0
    9.2868    6.7158   -9.6784 N   0  0  1  0  0  0  0  0  0  0  0  0
    9.2500    5.4180  -10.4047 C   0  0  0  0  0  0  0  0  0  0  0  0
    9.2775    5.5722  -11.9339 C   0  0  0  0  0  0  0  0  0  0  0  0
    9.5274    4.2160  -12.6249 C   0  0  0  0  0  0  0  0  0  0  0  0
    9.4048    4.2921  -14.0411 O   0  0  0  0  0  0  0  0  0  0  0  0
   10.4112    4.8711  -14.7870 C   0  0  0  0  0  0  0  0  0  0  0  0
   11.6244    5.3737  -14.2562 C   0  0  0  0  0  0  0  0  0  0  0  0
   12.5574    6.0107  -15.0988 C   0  0  0  0  0  0  0  0  0  0  0  0
   12.3044    6.1455  -16.4792 C   0  0  0  0  0  0  0  0  0  0  0  0
   13.3256    6.8453  -17.3626 C   0  0  0  0  0  0  0  0  0  0  0  0
   14.1141    5.9223  -18.1834 N   0  0  0  0  0  0  0  0  0  0  0  0
   14.9499    6.6129  -19.1615 C   0  0  0  0  0  0  0  0  0  0  0  0
   16.1886    7.2833  -18.5330 C   0  0  0  0  0  0  0  0  0  0  0  0
   16.9357    6.3216  -17.7888 O   0  0  0  0  0  0  0  0  0  0  0  0
   16.1656    5.6957  -16.7683 C   0  0  0  0  0  0  0  0  0  0  0  0
   14.9453    5.0020  -17.4079 C   0  0  0  0  0  0  0  0  0  0  0  0
   11.1082    5.6175  -17.0162 C   0  0  0  0  0  0  0  0  0  0  0  0
   10.7373    5.7589  -18.6969 Cl  0  0  0  0  0  0  0  0  0  0  0  0
   10.1841    4.9722  -16.1722 C   0  0  0  0  0  0  0  0  0  0  0  0
    8.6838    6.5894   -8.3326 C   0  0  0  0  0  0  0  0  0  0  0  0
    8.6681    7.9583   -7.6030 C   0  0  0  0  0  0  0  0  0  0  0  0
   11.1491    6.5813   -6.4311 N   0  0  0  0  0  0  0  0  0  0  0  0
   11.6866    6.1765   -5.1840 O   0  0  0  0  0  0  0  0  0  0  0  0
   11.7862    7.2657   -4.3442 C   0  0  0  0  0  0  0  0  0  0  0  0
   12.2835    7.3843   -3.0425 C   0  0  0  0  0  0  0  0  0  0  0  0
   11.7329   10.7362   -2.6836 H   0  0  0  0  0  0  0  0  0  0  0  0
   10.8466   10.4758   -5.0194 H   0  0  0  0  0  0  0  0  0  0  0  0
    9.9456    9.6049   -7.1358 H   0  0  0  0  0  0  0  0  0  0  0  0
   10.2658    9.3707   -9.4247 H   0  0  0  0  0  0  0  0  0  0  0  0
   11.7948    8.9253   -8.7223 H   0  0  0  0  0  0  0  0  0  0  0  0
   11.2891    6.5328   -9.0977 H   0  0  0  0  0  0  0  0  0  0  0  0
   11.0902    7.4082  -10.5911 H   0  0  0  0  0  0  0  0  0  0  0  0
    8.3385    4.8744  -10.1499 H   0  0  0  0  0  0  0  0  0  0  0  0
   10.0798    4.7954  -10.0654 H   0  0  0  0  0  0  0  0  0  0  0  0
   10.0385    6.2902  -12.2310 H   0  0  0  0  0  0  0  0  0  0  0  0
    8.3284    5.9854  -12.2733 H   0  0  0  0  0  0  0  0  0  0  0  0
    8.7736    3.5061  -12.2887 H   0  0  0  0  0  0  0  0  0  0  0  0
   10.4834    3.7777  -12.3366 H   0  0  0  0  0  0  0  0  0  0  0  0
   11.8691    5.2934  -13.2086 H   0  0  0  0  0  0  0  0  0  0  0  0
   13.4742    6.3939  -14.6735 H   0  0  0  0  0  0  0  0  0  0  0  0
   12.7850    7.5426  -18.0067 H   0  0  0  0  0  0  0  0  0  0  0  0
   13.9736    7.4642  -16.7416 H   0  0  0  0  0  0  0  0  0  0  0  0
   15.2878    5.8919  -19.9069 H   0  0  0  0  0  0  0  0  0  0  0  0
   14.3590    7.3503  -19.7070 H   0  0  0  0  0  0  0  0  0  0  0  0
   16.8268    7.6959  -19.3132 H   0  0  0  0  0  0  0  0  0  0  0  0
   15.9004    8.1141  -17.8883 H   0  0  0  0  0  0  0  0  0  0  0  0
   16.7960    4.9734  -16.2491 H   0  0  0  0  0  0  0  0  0  0  0  0
   15.8537    6.4267  -16.0222 H   0  0  0  0  0  0  0  0  0  0  0  0
   14.3518    4.4984  -16.6468 H   0  0  0  0  0  0  0  0  0  0  0  0
   15.2934    4.2068  -18.0692 H   0  0  0  0  0  0  0  0  0  0  0  0
    9.2722    4.5761  -16.5932 H   0  0  0  0  0  0  0  0  0  0  0  0
    7.6863    6.1724   -8.4372 H   0  0  0  0  0  0  0  0  0  0  0  0
    9.2139    5.8321   -7.7623 H   0  0  0  0  0  0  0  0  0  0  0  0
    8.0861    8.6666   -8.1883 H   0  0  0  0  0  0  0  0  0  0  0  0
    8.1621    7.8703   -6.6413 H   0  0  0  0  0  0  0  0  0  0  0  0
   12.6743    6.5282   -2.5153 H   0  0  0  0  0  0  0  0  0  0  0  0
    8.6878    7.3643  -10.1753 H   0  0  0  0  0  0  0  0  0  0  0  0
  2  1  1  0
  3  2  2  0
  4  3  1  0
  5  4  2  0
  6  5  1  0
  7  6  1  0
  8  7  1  0
  9  8  1  0
 10  9  1  0
 11 10  1  0
 12 11  1  0
 13 12  1  0
 14 13  1  0
 15 14  1  0
 16 15  1  0
 17 16  2  0
 18 17  1  0
 19 18  1  0
 20 19  1  0
 21 20  1  0
 22 21  1  0
 23 22  1  0
 24 23  1  0
 25 20  1  0
 25 24  1  0
 26 18  2  0
 27 26  1  0
 28 15  2  0
 28 26  1  0
 29 10  1  0
 30  7  1  0
 30 29  1  0
 31  6  2  0
 32 31  1  0
 33  5  1  0
 33 32  1  0
 34  2  1  0
 34 33  2  0
 35  3  1  0
 36  4  1  0
  7 37  1  1
 38  8  1  0
 39  8  1  0
 40  9  1  0
 41  9  1  0
 42 11  1  0
 43 11  1  0
 44 12  1  0
 45 12  1  0
 46 13  1  0
 47 13  1  0
 48 16  1  0
 49 17  1  0
 50 19  1  0
 51 19  1  0
 52 21  1  0
 53 21  1  0
 54 22  1  0
 55 22  1  0
 56 24  1  0
 57 24  1  0
 58 25  1  0
 59 25  1  0
 60 28  1  0
 61 29  1  0
 62 29  1  0
 63 30  1  0
 64 30  1  0
 65 34  1  0
 10 66  1  6
M  CHG  1  10   1
M  END
>  <b_m_subgroup_collapsed>  (466) 
0

>  <r_i_docking_score>  (466) 
-7.9609192033915503

>  <s_m_subgroup_title>  (466) 
glide-dock_SP_D22_pv

>  <s_m_subgroupid>  (466) 
glide-dock_SP_D22_pv

>  <Molecule ChEMBL ID>  (466) 
CHEMBL4863980

>  <Standard Type>  (466) 
Ki

>  <Standard Value>  (466) 
5.4

>  <label>  (466) 
1

$$$$
CHEMBL4591835
     RDKit          3D

 70 74  0  0  1  0  0  0  0  0999 V2000
    8.9407    0.1376  -14.6335 C   0  0  0  0  0  0  0  0  0  0  0  0
    8.5396    1.0082  -15.7233 N   0  0  0  0  0  0  0  0  0  0  0  0
    9.2244    2.0253  -16.2831 C   0  0  0  0  0  0  0  0  0  0  0  0
   10.7718    2.5984  -15.6625 S   0  0  0  0  0  0  0  0  0  0  0  0
   10.1514    3.4452  -14.1768 C   0  0  0  0  0  0  0  0  0  0  0  0
    9.4824    4.7947  -14.5019 C   0  0  0  0  0  0  0  0  0  0  0  0
    8.5582    5.3314  -13.3821 C   0  0  0  0  0  0  0  0  0  0  0  0
    9.1905    6.3907  -12.5600 N   0  0  0  0  0  0  0  0  0  0  0  0
   10.1848    5.8514  -11.6235 C   0  0  0  0  0  0  0  0  0  0  0  0
   10.9179    6.9721  -10.8501 C   0  0  0  0  0  0  0  0  0  0  0  0
    9.9620    7.8718  -10.0520 C   0  0  0  0  0  0  0  0  0  0  0  0
    8.9401    8.3925  -11.0941 C   0  0  0  0  0  0  0  0  0  0  0  0
    8.2210    7.2423  -11.8469 C   0  0  0  0  0  0  0  0  0  0  0  0
    9.2255    7.1416   -8.8904 C   0  0  0  0  0  0  0  0  0  0  0  0
   10.1022    6.7721   -7.6853 C   0  0  0  0  0  0  0  0  0  0  0  0
   10.7931    7.9603   -7.1996 N   0  0  0  0  0  0  0  0  0  0  0  0
   11.1521    8.0513   -5.8346 C   0  0  0  0  0  0  0  0  0  0  0  0
   11.3228    6.8875   -5.0480 C   0  0  0  0  0  0  0  0  0  0  0  0
   11.6869    6.9720   -3.6906 C   0  0  0  0  0  0  0  0  0  0  0  0
   11.8935    8.2259   -3.0907 C   0  0  0  0  0  0  0  0  0  0  0  0
   11.6880    9.3935   -3.8443 C   0  0  0  0  0  0  0  0  0  0  0  0
   11.3157    9.3106   -5.2009 C   0  0  0  0  0  0  0  0  0  0  0  0
   11.0683   10.4639   -5.8809 O   0  0  0  0  0  0  0  0  0  0  0  0
   11.6320    8.5922   -8.2124 C   0  0  0  0  0  0  0  0  0  0  0  0
   10.7613    9.0367   -9.4133 C   0  0  0  0  0  0  0  0  0  0  0  0
    8.6091    2.5720  -17.3308 N   0  0  0  0  0  0  0  0  0  0  0  0
    7.4187    1.8931  -17.4463 N   0  0  0  0  0  0  0  0  0  0  0  0
    7.4041    0.9932  -16.4573 C   0  0  0  0  0  0  0  0  0  0  0  0
    6.2473    0.1333  -16.2322 C   0  0  0  0  0  0  0  0  0  0  0  0
    5.5957    0.1201  -14.9787 C   0  0  0  0  0  0  0  0  0  0  0  0
    4.4319   -0.6521  -14.7947 C   0  0  0  0  0  0  0  0  0  0  0  0
    3.9262   -1.4277  -15.8546 C   0  0  0  0  0  0  0  0  0  0  0  0
    4.5782   -1.4276  -17.1013 C   0  0  0  0  0  0  0  0  0  0  0  0
    5.7331   -0.6443  -17.2921 C   0  0  0  0  0  0  0  0  0  0  0  0
    8.0840   -0.1662  -14.0357 H   0  0  0  0  0  0  0  0  0  0  0  0
    9.4145   -0.7496  -15.0504 H   0  0  0  0  0  0  0  0  0  0  0  0
    9.6582    0.6226  -13.9769 H   0  0  0  0  0  0  0  0  0  0  0  0
   10.9949    3.5755  -13.5026 H   0  0  0  0  0  0  0  0  0  0  0  0
    9.4471    2.7950  -13.6610 H   0  0  0  0  0  0  0  0  0  0  0  0
    8.8827    4.6666  -15.3998 H   0  0  0  0  0  0  0  0  0  0  0  0
   10.2365    5.5316  -14.7805 H   0  0  0  0  0  0  0  0  0  0  0  0
    8.1710    4.5281  -12.7528 H   0  0  0  0  0  0  0  0  0  0  0  0
    7.6858    5.7730  -13.8485 H   0  0  0  0  0  0  0  0  0  0  0  0
   10.8860    5.3114  -12.2469 H   0  0  0  0  0  0  0  0  0  0  0  0
    9.7291    5.1300  -10.9433 H   0  0  0  0  0  0  0  0  0  0  0  0
   11.4768    7.5775  -11.5658 H   0  0  0  0  0  0  0  0  0  0  0  0
   11.6683    6.5724  -10.1761 H   0  0  0  0  0  0  0  0  0  0  0  0
    8.2165    9.0568  -10.6211 H   0  0  0  0  0  0  0  0  0  0  0  0
    9.4527    9.0089  -11.8317 H   0  0  0  0  0  0  0  0  0  0  0  0
    7.4938    7.6609  -12.5438 H   0  0  0  0  0  0  0  0  0  0  0  0
    7.6860    6.5723  -11.1753 H   0  0  0  0  0  0  0  0  0  0  0  0
    8.6831    6.2589   -9.2238 H   0  0  0  0  0  0  0  0  0  0  0  0
    8.4763    7.8272   -8.5064 H   0  0  0  0  0  0  0  0  0  0  0  0
   10.8275    6.0037   -7.9550 H   0  0  0  0  0  0  0  0  0  0  0  0
    9.4636    6.3570   -6.9040 H   0  0  0  0  0  0  0  0  0  0  0  0
   11.2022    5.9062   -5.4793 H   0  0  0  0  0  0  0  0  0  0  0  0
   11.8221    6.0697   -3.1121 H   0  0  0  0  0  0  0  0  0  0  0  0
   12.1733    8.2942   -2.0498 H   0  0  0  0  0  0  0  0  0  0  0  0
   11.7975   10.3571   -3.3692 H   0  0  0  0  0  0  0  0  0  0  0  0
   10.7422   10.2481   -6.7431 H   0  0  0  0  0  0  0  0  0  0  0  0
   12.1929    9.4243   -7.8018 H   0  0  0  0  0  0  0  0  0  0  0  0
   12.3898    7.8785   -8.5352 H   0  0  0  0  0  0  0  0  0  0  0  0
   11.3818    9.5392  -10.1564 H   0  0  0  0  0  0  0  0  0  0  0  0
   10.0441    9.7722   -9.0604 H   0  0  0  0  0  0  0  0  0  0  0  0
    5.9630    0.7304  -14.1668 H   0  0  0  0  0  0  0  0  0  0  0  0
    3.9183   -0.6469  -13.8462 H   0  0  0  0  0  0  0  0  0  0  0  0
    3.0387   -2.0284  -15.7176 H   0  0  0  0  0  0  0  0  0  0  0  0
    4.1845   -2.0262  -17.9103 H   0  0  0  0  0  0  0  0  0  0  0  0
    6.2204   -0.6347  -18.2561 H   0  0  0  0  0  0  0  0  0  0  0  0
    9.6797    7.0020  -13.1965 H   0  0  0  0  0  0  0  0  0  0  0  0
  2  1  1  0
  3  2  1  0
  4  3  1  0
  5  4  1  0
  6  5  1  0
  7  6  1  0
  8  7  1  0
  9  8  1  0
 10  9  1  0
 11 10  1  0
 12 11  1  0
 13  8  1  0
 13 12  1  0
 14 11  1  0
 15 14  1  0
 16 15  1  0
 17 16  1  0
 18 17  2  0
 19 18  1  0
 20 19  2  0
 21 20  1  0
 22 17  1  0
 22 21  2  0
 23 22  1  0
 24 16  1  0
 25 11  1  0
 25 24  1  0
 26  3  2  0
 27 26  1  0
 28  2  1  0
 28 27  2  0
 29 28  1  0
 30 29  2  0
 31 30  1  0
 32 31  2  0
 33 32  1  0
 34 29  1  0
 34 33  2  0
 35  1  1  0
 36  1  1  0
 37  1  1  0
 38  5  1  0
 39  5  1  0
 40  6  1  0
 41  6  1  0
 42  7  1  0
 43  7  1  0
 44  9  1  0
 45  9  1  0
 46 10  1  0
 47 10  1  0
 48 12  1  0
 49 12  1  0
 50 13  1  0
 51 13  1  0
 52 14  1  0
 53 14  1  0
 54 15  1  0
 55 15  1  0
 56 18  1  0
 57 19  1  0
 58 20  1  0
 59 21  1  0
 60 23  1  0
 61 24  1  0
 62 24  1  0
 63 25  1  0
 64 25  1  0
 65 30  1  0
 66 31  1  0
 67 32  1  0
 68 33  1  0
 69 34  1  0
 70  8  1  0
M  CHG  1   8   1
M  END
>  <b_m_subgroup_collapsed>  (467) 
0

>  <r_i_docking_score>  (467) 
-7.9597215301923097

>  <s_m_subgroup_title>  (467) 
glide-dock_SP_D22_pv

>  <s_m_subgroupid>  (467) 
glide-dock_SP_D22_pv

>  <Molecule ChEMBL ID>  (467) 
CHEMBL4591835

>  <Standard Type>  (467) 
Ki

>  <Standard Value>  (467) 
17595.0

>  <label>  (467) 
0

$$$$
CHEMBL478
     RDKit          3D

 27 28  0  0  1  0  0  0  0  0999 V2000
   12.0872    7.0080   -2.6595 Cl  0  0  0  0  0  0  0  0  0  0  0  0
   11.6933    7.9453   -4.0551 C   0  0  0  0  0  0  0  0  0  0  0  0
   11.6288    9.3466   -3.9640 C   0  0  0  0  0  0  0  0  0  0  0  0
   11.3018   10.0979   -5.1059 C   0  0  0  0  0  0  0  0  0  0  0  0
   11.1053    9.4628   -6.3440 C   0  0  0  0  0  0  0  0  0  0  0  0
   11.1957    8.0562   -6.4649 C   0  0  0  0  0  0  0  0  0  0  0  0
   11.0792    7.4112   -7.7194 N   0  0  0  0  0  0  0  0  0  0  0  0
   11.1147    8.1657   -8.9746 C   0  0  0  0  0  0  0  0  0  0  0  0
    9.6871    8.4504   -9.4917 C   0  0  0  0  0  0  0  0  0  0  0  0
    8.8892    7.2011   -9.5640 N   0  0  0  0  0  0  0  0  0  0  0  0
    8.8859    6.4567   -8.2857 C   0  0  0  0  0  0  0  0  0  0  0  0
   10.3023    6.1782   -7.7834 C   0  0  0  0  0  0  0  0  0  0  0  0
   11.4558    7.3068   -5.2876 C   0  0  0  0  0  0  0  0  0  0  0  0
   11.8113    9.8420   -3.0207 H   0  0  0  0  0  0  0  0  0  0  0  0
   11.2498   11.1710   -5.0454 H   0  0  0  0  0  0  0  0  0  0  0  0
   10.8981   10.0875   -7.1953 H   0  0  0  0  0  0  0  0  0  0  0  0
   11.6980    9.0822   -8.8889 H   0  0  0  0  0  0  0  0  0  0  0  0
   11.6463    7.5575   -9.7079 H   0  0  0  0  0  0  0  0  0  0  0  0
    9.1763    9.1505   -8.8277 H   0  0  0  0  0  0  0  0  0  0  0  0
    9.7233    8.9157  -10.4774 H   0  0  0  0  0  0  0  0  0  0  0  0
    7.9180    7.4278   -9.8225 H   0  0  0  0  0  0  0  0  0  0  0  0
    8.3659    7.0512   -7.5357 H   0  0  0  0  0  0  0  0  0  0  0  0
    8.3247    5.5306   -8.4037 H   0  0  0  0  0  0  0  0  0  0  0  0
   10.7986    5.4634   -8.4381 H   0  0  0  0  0  0  0  0  0  0  0  0
   10.2166    5.7117   -6.8093 H   0  0  0  0  0  0  0  0  0  0  0  0
   11.5587    6.2328   -5.3225 H   0  0  0  0  0  0  0  0  0  0  0  0
    9.2723    6.6036  -10.2802 H   0  0  0  0  0  0  0  0  0  0  0  0
  2  1  1  0
  3  2  1  0
  4  3  2  0
  5  4  1  0
  6  5  2  0
  7  6  1  0
  8  7  1  0
  9  8  1  0
 10  9  1  0
 11 10  1  0
 12  7  1  0
 12 11  1  0
 13  2  2  0
 13  6  1  0
 14  3  1  0
 15  4  1  0
 16  5  1  0
 17  8  1  0
 18  8  1  0
 19  9  1  0
 20  9  1  0
 21 10  1  0
 22 11  1  0
 23 11  1  0
 24 12  1  0
 25 12  1  0
 26 13  1  0
 27 10  1  0
M  CHG  1  10   1
M  END
>  <b_m_subgroup_collapsed>  (468) 
0

>  <r_i_docking_score>  (468) 
-7.9590881611557398

>  <s_m_subgroup_title>  (468) 
glide-dock_SP_D22_pv

>  <s_m_subgroupid>  (468) 
glide-dock_SP_D22_pv

>  <Molecule ChEMBL ID>  (468) 
CHEMBL478

>  <Standard Type>  (468) 
Ki

>  <Standard Value>  (468) 
10000.0

>  <label>  (468) 
0

$$$$
CHEMBL4555876
     RDKit          3D

 69 73  0  0  1  0  0  0  0  0999 V2000
   12.4858    9.4084   -7.0662 C   0  0  0  0  0  0  0  0  0  0  0  0
   11.5047    8.3482   -7.0298 N   0  0  0  0  0  0  0  0  0  0  0  0
   10.8066    7.8007   -8.0409 C   0  0  0  0  0  0  0  0  0  0  0  0
   10.9660    8.3653   -9.7069 S   0  0  0  0  0  0  0  0  0  0  0  0
    9.2685    8.0453  -10.2678 C   0  0  0  0  0  0  0  0  0  0  0  0
    9.0732    6.6091  -10.7879 C   0  0  0  0  0  0  0  0  0  0  0  0
    9.1757    6.5255  -12.3148 C   0  0  0  0  0  0  0  0  0  0  0  0
    9.0278    5.1258  -12.7868 N   0  0  0  0  0  0  0  0  0  0  0  0
    7.9028    4.9313  -13.7337 C   0  0  0  0  0  0  0  0  0  0  0  0
    7.6985    3.4381  -14.0521 C   0  0  0  0  0  0  0  0  0  0  0  0
    8.9774    2.7179  -14.5640 C   0  0  0  0  0  0  0  0  0  0  0  0
   10.1204    3.0510  -13.5728 C   0  0  0  0  0  0  0  0  0  0  0  0
   10.2816    4.5585  -13.3346 C   0  0  0  0  0  0  0  0  0  0  0  0
    9.3362    3.1444  -16.0140 C   0  0  0  0  0  0  0  0  0  0  0  0
   10.5288    2.3533  -16.5884 C   0  0  0  0  0  0  0  0  0  0  0  0
   10.2829    0.9135  -16.5101 N   0  0  0  0  0  0  0  0  0  0  0  0
    9.8266    0.2879  -17.6865 C   0  0  0  0  0  0  0  0  0  0  0  0
    8.5952   -0.4081  -17.7264 C   0  0  0  0  0  0  0  0  0  0  0  0
    8.1386   -0.9995  -18.9189 C   0  0  0  0  0  0  0  0  0  0  0  0
    8.9096   -0.9069  -20.0903 C   0  0  0  0  0  0  0  0  0  0  0  0
   10.1455   -0.2388  -20.0620 C   0  0  0  0  0  0  0  0  0  0  0  0
   10.6060    0.3502  -18.8691 C   0  0  0  0  0  0  0  0  0  0  0  0
   11.8135    0.9653  -18.8683 F   0  0  0  0  0  0  0  0  0  0  0  0
    9.8934    0.3922  -15.2003 C   0  0  0  0  0  0  0  0  0  0  0  0
    8.7179    1.1892  -14.5971 C   0  0  0  0  0  0  0  0  0  0  0  0
    9.9973    6.8165   -7.6477 N   0  0  0  0  0  0  0  0  0  0  0  0
   10.1519    6.7375   -6.2861 N   0  0  0  0  0  0  0  0  0  0  0  0
   11.0535    7.6653   -5.9615 C   0  0  0  0  0  0  0  0  0  0  0  0
   11.5112    7.8810   -4.5967 C   0  0  0  0  0  0  0  0  0  0  0  0
   11.8740    6.7741   -3.8045 C   0  0  0  0  0  0  0  0  0  0  0  0
   12.3620    6.9644   -2.5000 C   0  0  0  0  0  0  0  0  0  0  0  0
   12.4838    8.2655   -1.9771 C   0  0  0  0  0  0  0  0  0  0  0  0
   12.0862    9.3706   -2.7495 C   0  0  0  0  0  0  0  0  0  0  0  0
   11.6030    9.1830   -4.0559 C   0  0  0  0  0  0  0  0  0  0  0  0
   13.0916    9.3361   -7.9690 H   0  0  0  0  0  0  0  0  0  0  0  0
   11.9568   10.3604   -7.0468 H   0  0  0  0  0  0  0  0  0  0  0  0
   13.1588    9.3712   -6.2110 H   0  0  0  0  0  0  0  0  0  0  0  0
    8.5884    8.2461   -9.4390 H   0  0  0  0  0  0  0  0  0  0  0  0
    9.0061    8.7709  -11.0375 H   0  0  0  0  0  0  0  0  0  0  0  0
    9.7912    5.9345  -10.3181 H   0  0  0  0  0  0  0  0  0  0  0  0
    8.0885    6.2504  -10.4830 H   0  0  0  0  0  0  0  0  0  0  0  0
    8.3989    7.1562  -12.7495 H   0  0  0  0  0  0  0  0  0  0  0  0
   10.1266    6.9463  -12.6461 H   0  0  0  0  0  0  0  0  0  0  0  0
    6.9876    5.3320  -13.2943 H   0  0  0  0  0  0  0  0  0  0  0  0
    8.0896    5.4934  -14.6461 H   0  0  0  0  0  0  0  0  0  0  0  0
    7.3498    2.9719  -13.1330 H   0  0  0  0  0  0  0  0  0  0  0  0
    6.8794    3.3135  -14.7597 H   0  0  0  0  0  0  0  0  0  0  0  0
    9.9029    2.5727  -12.6219 H   0  0  0  0  0  0  0  0  0  0  0  0
   11.0720    2.6325  -13.8949 H   0  0  0  0  0  0  0  0  0  0  0  0
   10.5567    5.0761  -14.2547 H   0  0  0  0  0  0  0  0  0  0  0  0
   11.1058    4.7254  -12.6471 H   0  0  0  0  0  0  0  0  0  0  0  0
    8.4791    2.9729  -16.6637 H   0  0  0  0  0  0  0  0  0  0  0  0
    9.5442    4.2113  -16.0793 H   0  0  0  0  0  0  0  0  0  0  0  0
   10.6959    2.6723  -17.6169 H   0  0  0  0  0  0  0  0  0  0  0  0
   11.4513    2.5848  -16.0563 H   0  0  0  0  0  0  0  0  0  0  0  0
    7.9744   -0.4940  -16.8486 H   0  0  0  0  0  0  0  0  0  0  0  0
    7.1924   -1.5228  -18.9324 H   0  0  0  0  0  0  0  0  0  0  0  0
    8.5595   -1.3580  -21.0068 H   0  0  0  0  0  0  0  0  0  0  0  0
   10.7456   -0.1801  -20.9568 H   0  0  0  0  0  0  0  0  0  0  0  0
    9.6440   -0.6666  -15.2670 H   0  0  0  0  0  0  0  0  0  0  0  0
   10.7594    0.4475  -14.5393 H   0  0  0  0  0  0  0  0  0  0  0  0
    8.5081    0.8092  -13.5969 H   0  0  0  0  0  0  0  0  0  0  0  0
    7.8141    0.9961  -15.1749 H   0  0  0  0  0  0  0  0  0  0  0  0
   11.7902    5.7733   -4.2031 H   0  0  0  0  0  0  0  0  0  0  0  0
   12.6441    6.1099   -1.9016 H   0  0  0  0  0  0  0  0  0  0  0  0
   12.8577    8.4158   -0.9763 H   0  0  0  0  0  0  0  0  0  0  0  0
   12.1337   10.3671   -2.3357 H   0  0  0  0  0  0  0  0  0  0  0  0
   11.2977   10.0415   -4.6356 H   0  0  0  0  0  0  0  0  0  0  0  0
    8.7973    4.5825  -11.9654 H   0  0  0  0  0  0  0  0  0  0  0  0
  2  1  1  0
  3  2  1  0
  4  3  1  0
  5  4  1  0
  6  5  1  0
  7  6  1  0
  8  7  1  0
  9  8  1  0
 10  9  1  0
 11 10  1  0
 12 11  1  0
 13  8  1  0
 13 12  1  0
 14 11  1  0
 15 14  1  0
 16 15  1  0
 17 16  1  0
 18 17  2  0
 19 18  1  0
 20 19  2  0
 21 20  1  0
 22 17  1  0
 22 21  2  0
 23 22  1  0
 24 16  1  0
 25 11  1  0
 25 24  1  0
 26  3  2  0
 27 26  1  0
 28  2  1  0
 28 27  2  0
 29 28  1  0
 30 29  2  0
 31 30  1  0
 32 31  2  0
 33 32  1  0
 34 29  1  0
 34 33  2  0
 35  1  1  0
 36  1  1  0
 37  1  1  0
 38  5  1  0
 39  5  1  0
 40  6  1  0
 41  6  1  0
 42  7  1  0
 43  7  1  0
 44  9  1  0
 45  9  1  0
 46 10  1  0
 47 10  1  0
 48 12  1  0
 49 12  1  0
 50 13  1  0
 51 13  1  0
 52 14  1  0
 53 14  1  0
 54 15  1  0
 55 15  1  0
 56 18  1  0
 57 19  1  0
 58 20  1  0
 59 21  1  0
 60 24  1  0
 61 24  1  0
 62 25  1  0
 63 25  1  0
 64 30  1  0
 65 31  1  0
 66 32  1  0
 67 33  1  0
 68 34  1  0
 69  8  1  0
M  CHG  1   8   1
M  END
>  <b_m_subgroup_collapsed>  (469) 
0

>  <r_i_docking_score>  (469) 
-7.95750155211259

>  <s_m_subgroup_title>  (469) 
glide-dock_SP_D22_pv

>  <s_m_subgroupid>  (469) 
glide-dock_SP_D22_pv

>  <Molecule ChEMBL ID>  (469) 
CHEMBL4555876

>  <Standard Type>  (469) 
Ki

>  <Standard Value>  (469) 
26253.0

>  <label>  (469) 
0

$$$$
CHEMBL166366
     RDKit          3D

 56 60  0  0  1  0  0  0  0  0999 V2000
   11.2838   10.5721   -5.4470 N   0  0  0  0  0  0  0  0  0  0  0  0
   11.4569    9.3554   -4.7895 C   0  0  0  0  0  0  0  0  0  0  0  0
   11.9219    9.3714   -3.4582 C   0  0  0  0  0  0  0  0  0  0  0  0
   12.0974    8.1704   -2.7486 C   0  0  0  0  0  0  0  0  0  0  0  0
   11.8134    6.9455   -3.3746 C   0  0  0  0  0  0  0  0  0  0  0  0
   11.3404    6.9220   -4.7023 C   0  0  0  0  0  0  0  0  0  0  0  0
   11.1450    8.1223   -5.4229 C   0  0  0  0  0  0  0  0  0  0  0  0
   10.6718    8.0659   -6.8367 C   0  0  0  0  0  0  0  0  0  0  0  0
   11.1214    8.7939   -7.7250 O   0  0  0  0  0  0  0  0  0  0  0  0
    9.5171    7.1108   -7.1631 C   0  0  0  0  0  0  0  0  0  0  0  0
    9.7221    6.3884   -8.5085 C   0  0  0  0  0  0  0  0  0  0  0  0
    8.4203    5.7599   -9.0513 C   0  0  0  0  0  0  0  0  0  0  0  0
    8.4862    5.1281  -10.4125 N   0  0  2  0  0  0  0  0  0  0  0  0
    9.8534    5.0048  -10.9652 C   0  0  0  0  0  0  0  0  0  0  0  0
    9.8918    4.2182  -12.2738 C   0  0  0  0  0  0  0  0  0  0  0  0
    9.0032    4.8386  -13.3675 C   0  0  2  0  0  0  0  0  0  0  0  0
    7.6078    5.1530  -12.8055 C   0  0  2  0  0  0  0  0  0  0  0  0
    7.5793    5.7719  -11.3955 C   0  0  0  0  0  0  0  0  0  0  0  0
    6.8644    3.8606  -13.0489 C   0  0  0  0  0  0  0  0  0  0  0  0
    5.6969    3.2668  -12.5401 C   0  0  0  0  0  0  0  0  0  0  0  0
    5.3496    1.9798  -13.0220 C   0  0  0  0  0  0  0  0  0  0  0  0
    6.1329    1.3102  -14.0016 C   0  0  0  0  0  0  0  0  0  0  0  0
    7.2888    1.9002  -14.5666 C   0  0  0  0  0  0  0  0  0  0  0  0
    7.5748    3.1644  -14.0247 C   0  0  0  0  0  0  0  0  0  0  0  0
    8.7372    3.8597  -14.4108 N   0  0  0  0  0  0  0  0  0  0  0  0
    9.7358    3.0285  -15.0759 C   0  0  0  0  0  0  0  0  0  0  0  0
    9.0578    2.1120  -16.1141 C   0  0  0  0  0  0  0  0  0  0  0  0
    8.0789    1.2709  -15.5036 O   0  0  0  0  0  0  0  0  0  0  0  0
   11.2012   10.5540   -6.4551 H   0  0  0  0  0  0  0  0  0  0  0  0
   11.6842   11.4183   -5.0739 H   0  0  0  0  0  0  0  0  0  0  0  0
   12.1364   10.3091   -2.9654 H   0  0  0  0  0  0  0  0  0  0  0  0
   12.4490    8.1933   -1.7259 H   0  0  0  0  0  0  0  0  0  0  0  0
   11.9543    6.0203   -2.8320 H   0  0  0  0  0  0  0  0  0  0  0  0
   11.1411    5.9653   -5.1612 H   0  0  0  0  0  0  0  0  0  0  0  0
    9.3608    6.3880   -6.3633 H   0  0  0  0  0  0  0  0  0  0  0  0
    8.6091    7.7144   -7.2036 H   0  0  0  0  0  0  0  0  0  0  0  0
   10.0926    7.1038   -9.2405 H   0  0  0  0  0  0  0  0  0  0  0  0
   10.4920    5.6300   -8.3680 H   0  0  0  0  0  0  0  0  0  0  0  0
    8.0711    5.0058   -8.3468 H   0  0  0  0  0  0  0  0  0  0  0  0
    7.6867    6.5604   -9.0469 H   0  0  0  0  0  0  0  0  0  0  0  0
   10.2845    5.9917  -11.1378 H   0  0  0  0  0  0  0  0  0  0  0  0
   10.4635    4.4857  -10.2260 H   0  0  0  0  0  0  0  0  0  0  0  0
   10.9133    4.1722  -12.6449 H   0  0  0  0  0  0  0  0  0  0  0  0
    9.6046    3.1875  -12.0695 H   0  0  0  0  0  0  0  0  0  0  0  0
    9.4664    5.7408  -13.7715 H   0  0  0  0  0  0  0  0  0  0  0  0
    7.1226    5.8791  -13.4468 H   0  0  0  0  0  0  0  0  0  0  0  0
    6.5489    5.7720  -11.0435 H   0  0  0  0  0  0  0  0  0  0  0  0
    7.8977    6.8113  -11.4848 H   0  0  0  0  0  0  0  0  0  0  0  0
    5.1050    3.7672  -11.7875 H   0  0  0  0  0  0  0  0  0  0  0  0
    4.4858    1.4768  -12.6289 H   0  0  0  0  0  0  0  0  0  0  0  0
    5.8369    0.3257  -14.3328 H   0  0  0  0  0  0  0  0  0  0  0  0
   10.4742    3.6667  -15.5616 H   0  0  0  0  0  0  0  0  0  0  0  0
   10.2669    2.4241  -14.3387 H   0  0  0  0  0  0  0  0  0  0  0  0
    8.5824    2.7038  -16.8983 H   0  0  0  0  0  0  0  0  0  0  0  0
    9.8020    1.4821  -16.6017 H   0  0  0  0  0  0  0  0  0  0  0  0
    8.1260    4.1915  -10.2958 H   0  0  0  0  0  0  0  0  0  0  0  0
  2  1  1  0
  3  2  2  0
  4  3  1  0
  5  4  2  0
  6  5  1  0
  7  2  1  0
  7  6  2  0
  8  7  1  0
  9  8  2  0
 10  8  1  0
 11 10  1  0
 12 11  1  0
 13 12  1  0
 14 13  1  0
 15 14  1  0
 16 15  1  0
 17 16  1  0
 18 13  1  0
 18 17  1  0
 19 17  1  0
 20 19  2  0
 21 20  1  0
 22 21  2  0
 23 22  1  0
 24 19  1  0
 24 23  2  0
 25 16  1  0
 25 24  1  0
 26 25  1  0
 27 26  1  0
 28 23  1  0
 28 27  1  0
 29  1  1  0
 30  1  1  0
 31  3  1  0
 32  4  1  0
 33  5  1  0
 34  6  1  0
 35 10  1  0
 36 10  1  0
 37 11  1  0
 38 11  1  0
 39 12  1  0
 40 12  1  0
 41 14  1  0
 42 14  1  0
 43 15  1  0
 44 15  1  0
 16 45  1  6
 17 46  1  6
 47 18  1  0
 48 18  1  0
 49 20  1  0
 50 21  1  0
 51 22  1  0
 52 26  1  0
 53 26  1  0
 54 27  1  0
 55 27  1  0
 13 56  1  1
M  CHG  1  13   1
M  END
>  <b_m_subgroup_collapsed>  (470) 
0

>  <r_i_docking_score>  (470) 
-7.95519705638982

>  <s_m_subgroup_title>  (470) 
glide-dock_SP_D22_pv

>  <s_m_subgroupid>  (470) 
glide-dock_SP_D22_pv

>  <Molecule ChEMBL ID>  (470) 
CHEMBL166366

>  <Standard Type>  (470) 
Ki

>  <Standard Value>  (470) 
60.0

>  <label>  (470) 
1

$$$$
CHEMBL1258426
     RDKit          3D

 59 63  0  0  1  0  0  0  0  0999 V2000
   11.3039    2.1952  -15.5427 F   0  0  0  0  0  0  0  0  0  0  0  0
   10.0194    2.0709  -15.1431 C   0  0  0  0  0  0  0  0  0  0  0  0
    9.2643    0.9603  -15.5544 C   0  0  0  0  0  0  0  0  0  0  0  0
    7.9303    0.8305  -15.1325 C   0  0  0  0  0  0  0  0  0  0  0  0
    7.3496    1.8153  -14.3052 C   0  0  0  0  0  0  0  0  0  0  0  0
    6.0314    1.6306  -13.8502 C   0  0  0  0  0  0  0  0  0  0  0  0
    5.4116    2.5999  -13.0455 C   0  0  0  0  0  0  0  0  0  0  0  0
    6.1357    3.7317  -12.6376 C   0  0  0  0  0  0  0  0  0  0  0  0
    7.4850    3.9006  -13.0242 C   0  0  0  0  0  0  0  0  0  0  0  0
    8.2329    4.9113  -12.4052 N   0  0  0  0  0  0  0  0  0  0  0  0
    8.8158    6.0122  -13.1455 C   0  0  0  0  0  0  0  0  0  0  0  0
   10.1923    6.3478  -12.5219 C   0  0  0  0  0  0  0  0  0  0  0  0
   10.0873    6.6422  -11.0866 N   0  0  0  0  0  0  0  0  0  0  0  0
    9.4794    7.9502  -10.8510 C   0  0  0  0  0  0  0  0  0  0  0  0
    9.6715    8.4390   -9.4051 C   0  0  0  0  0  0  0  0  0  0  0  0
   11.1536    8.6077   -9.0439 C   0  0  0  0  0  0  0  0  0  0  0  0
   11.2856    9.3730   -7.8585 O   0  0  0  0  0  0  0  0  0  0  0  0
   11.3396    8.7615   -6.6293 C   0  0  0  0  0  0  0  0  0  0  0  0
   11.1205    7.3748   -6.4003 C   0  0  0  0  0  0  0  0  0  0  0  0
   11.2948    6.8272   -5.1096 C   0  0  0  0  0  0  0  0  0  0  0  0
   11.6862    7.6793   -4.0652 C   0  0  0  0  0  0  0  0  0  0  0  0
   11.8288    9.0381   -4.2707 C   0  0  0  0  0  0  0  0  0  0  0  0
   11.6674    9.6052   -5.5445 C   0  0  0  0  0  0  0  0  0  0  0  0
   12.1526    9.7428   -2.9895 C   0  0  0  0  0  0  0  0  0  0  0  0
   12.0863    8.6627   -1.9675 N   0  0  0  0  0  0  0  0  0  0  0  0
   11.9417    7.3336   -2.6258 C   0  0  0  0  0  0  0  0  0  0  0  0
    9.4369    5.5274  -10.3765 C   0  0  0  0  0  0  0  0  0  0  0  0
    8.0724    5.1510  -10.9811 C   0  0  0  0  0  0  0  0  0  0  0  0
    8.0935    2.9549  -13.8975 C   0  0  0  0  0  0  0  0  0  0  0  0
    9.4446    3.0521  -14.3149 C   0  0  0  0  0  0  0  0  0  0  0  0
    9.7147    0.2038  -16.1780 H   0  0  0  0  0  0  0  0  0  0  0  0
    7.3645   -0.0387  -15.4363 H   0  0  0  0  0  0  0  0  0  0  0  0
    5.4694    0.7541  -14.1432 H   0  0  0  0  0  0  0  0  0  0  0  0
    4.3941    2.4618  -12.7132 H   0  0  0  0  0  0  0  0  0  0  0  0
    5.6666    4.4464  -11.9751 H   0  0  0  0  0  0  0  0  0  0  0  0
    8.1422    6.8689  -13.0875 H   0  0  0  0  0  0  0  0  0  0  0  0
    8.9189    5.7695  -14.2034 H   0  0  0  0  0  0  0  0  0  0  0  0
   10.6647    7.1815  -13.0445 H   0  0  0  0  0  0  0  0  0  0  0  0
   10.8667    5.5008  -12.6462 H   0  0  0  0  0  0  0  0  0  0  0  0
    8.4273    7.9340  -11.1107 H   0  0  0  0  0  0  0  0  0  0  0  0
    9.9420    8.6758  -11.5196 H   0  0  0  0  0  0  0  0  0  0  0  0
    9.1639    7.7937   -8.6888 H   0  0  0  0  0  0  0  0  0  0  0  0
    9.1781    9.4057   -9.3157 H   0  0  0  0  0  0  0  0  0  0  0  0
   11.6499    9.1740   -9.8340 H   0  0  0  0  0  0  0  0  0  0  0  0
   11.6843    7.6567   -8.9959 H   0  0  0  0  0  0  0  0  0  0  0  0
   10.8349    6.7089   -7.2015 H   0  0  0  0  0  0  0  0  0  0  0  0
   11.1471    5.7728   -4.9348 H   0  0  0  0  0  0  0  0  0  0  0  0
   11.8090   10.6625   -5.7059 H   0  0  0  0  0  0  0  0  0  0  0  0
   13.1494   10.1722   -3.0468 H   0  0  0  0  0  0  0  0  0  0  0  0
   11.4382   10.5379   -2.7820 H   0  0  0  0  0  0  0  0  0  0  0  0
   12.9078    8.6911   -1.3814 H   0  0  0  0  0  0  0  0  0  0  0  0
   11.1147    6.7606   -2.2021 H   0  0  0  0  0  0  0  0  0  0  0  0
   12.8602    6.7519   -2.5368 H   0  0  0  0  0  0  0  0  0  0  0  0
   10.0863    4.6564  -10.4414 H   0  0  0  0  0  0  0  0  0  0  0  0
    9.3328    5.7401   -9.3143 H   0  0  0  0  0  0  0  0  0  0  0  0
    7.3354    5.9357  -10.8251 H   0  0  0  0  0  0  0  0  0  0  0  0
    7.6882    4.2576  -10.4847 H   0  0  0  0  0  0  0  0  0  0  0  0
   10.0699    3.8717  -14.0036 H   0  0  0  0  0  0  0  0  0  0  0  0
   11.2639    8.8234   -1.3990 H   0  0  0  0  0  0  0  0  0  0  0  0
  2  1  1  0
  3  2  1  0
  4  3  2  0
  5  4  1  0
  6  5  2  0
  7  6  1  0
  8  7  2  0
  9  8  1  0
 10  9  1  0
 11 10  1  0
 12 11  1  0
 13 12  1  0
 14 13  1  0
 15 14  1  0
 16 15  1  0
 17 16  1  0
 18 17  1  0
 19 18  1  0
 20 19  2  0
 21 20  1  0
 22 21  2  0
 23 18  2  0
 23 22  1  0
 24 22  1  0
 25 24  1  0
 26 21  1  0
 26 25  1  0
 27 13  1  0
 28 10  1  0
 28 27  1  0
 29  5  1  0
 29  9  2  0
 30  2  2  0
 30 29  1  0
 31  3  1  0
 32  4  1  0
 33  6  1  0
 34  7  1  0
 35  8  1  0
 36 11  1  0
 37 11  1  0
 38 12  1  0
 39 12  1  0
 40 14  1  0
 41 14  1  0
 42 15  1  0
 43 15  1  0
 44 16  1  0
 45 16  1  0
 46 19  1  0
 47 20  1  0
 48 23  1  0
 49 24  1  0
 50 24  1  0
 51 25  1  0
 52 26  1  0
 53 26  1  0
 54 27  1  0
 55 27  1  0
 56 28  1  0
 57 28  1  0
 58 30  1  0
 59 25  1  0
M  CHG  1  25   1
M  END
>  <b_m_subgroup_collapsed>  (471) 
0

>  <r_i_docking_score>  (471) 
-7.95182680762505

>  <s_m_subgroup_title>  (471) 
glide-dock_SP_D22_pv

>  <s_m_subgroupid>  (471) 
glide-dock_SP_D22_pv

>  <Molecule ChEMBL ID>  (471) 
CHEMBL1258426

>  <Standard Type>  (471) 
Ki

>  <Standard Value>  (471) 
24.7

>  <label>  (471) 
1

$$$$
CHEMBL93432
     RDKit          3D

 62 66  0  0  1  0  0  0  0  0999 V2000
    8.1708    4.6391  -12.4863 C   0  0  0  0  0  0  0  0  0  0  0  0
    9.4648    5.2585  -12.9926 C   0  0  0  0  0  0  0  0  0  0  0  0
   10.1722    4.9686  -14.0872 C   0  0  0  0  0  0  0  0  0  0  0  0
    9.9100    3.8860  -15.0520 C   0  0  0  0  0  0  0  0  0  0  0  0
    9.7899    2.5540  -14.6011 C   0  0  0  0  0  0  0  0  0  0  0  0
    9.5358    1.5179  -15.5182 C   0  0  0  0  0  0  0  0  0  0  0  0
    9.4023    1.8096  -16.8924 C   0  0  0  0  0  0  0  0  0  0  0  0
    9.5218    3.1399  -17.3445 C   0  0  0  0  0  0  0  0  0  0  0  0
    9.7736    4.1767  -16.4273 C   0  0  0  0  0  0  0  0  0  0  0  0
   11.2841    5.8110  -14.0784 N   0  0  0  0  0  0  0  0  0  0  0  0
   12.2288    5.9475  -15.1387 C   0  0  0  0  0  0  0  0  0  0  0  0
   12.5490    7.2319  -15.6361 C   0  0  0  0  0  0  0  0  0  0  0  0
   13.4492    7.3862  -16.7059 C   0  0  0  0  0  0  0  0  0  0  0  0
   14.0432    6.2553  -17.2933 C   0  0  0  0  0  0  0  0  0  0  0  0
   13.7353    4.9719  -16.8041 C   0  0  0  0  0  0  0  0  0  0  0  0
   12.8399    4.8164  -15.7288 C   0  0  0  0  0  0  0  0  0  0  0  0
   11.2501    6.5724  -12.9637 C   0  0  0  0  0  0  0  0  0  0  0  0
   12.1188    7.3683  -12.6116 O   0  0  0  0  0  0  0  0  0  0  0  0
   10.0992    6.2888  -12.3069 N   0  0  0  0  0  0  0  0  0  0  0  0
    9.5768    6.8634  -11.0472 C   0  0  1  0  0  0  0  0  0  0  0  0
   10.0859    6.0689   -9.8410 C   0  0  0  0  0  0  0  0  0  0  0  0
    9.5366    6.6122   -8.5226 C   0  0  0  0  0  0  0  0  0  0  0  0
    9.9979    8.0099   -8.3518 N   0  0  2  0  0  0  0  0  0  0  0  0
    9.6934    8.5731   -7.0160 C   0  0  0  0  0  0  0  0  0  0  0  0
   10.7430    8.2827   -5.9535 C   0  0  0  0  0  0  0  0  0  0  0  0
   10.8213    7.0165   -5.3354 C   0  0  0  0  0  0  0  0  0  0  0  0
   11.6860    6.8059   -4.2449 C   0  0  0  0  0  0  0  0  0  0  0  0
   12.4861    7.8565   -3.7675 C   0  0  0  0  0  0  0  0  0  0  0  0
   12.4569    9.1075   -4.4094 C   0  0  0  0  0  0  0  0  0  0  0  0
   11.5863    9.3226   -5.4975 C   0  0  0  0  0  0  0  0  0  0  0  0
    9.4921    8.8643   -9.4568 C   0  0  0  0  0  0  0  0  0  0  0  0
    9.9246    8.3502  -10.8339 C   0  0  0  0  0  0  0  0  0  0  0  0
    7.8519    3.8105  -13.1168 H   0  0  0  0  0  0  0  0  0  0  0  0
    8.2899    4.2573  -11.4732 H   0  0  0  0  0  0  0  0  0  0  0  0
    7.3680    5.3798  -12.4882 H   0  0  0  0  0  0  0  0  0  0  0  0
    9.8945    2.3194  -13.5512 H   0  0  0  0  0  0  0  0  0  0  0  0
    9.4411    0.4972  -15.1723 H   0  0  0  0  0  0  0  0  0  0  0  0
    9.2115    1.0138  -17.5978 H   0  0  0  0  0  0  0  0  0  0  0  0
    9.4237    3.3676  -18.3965 H   0  0  0  0  0  0  0  0  0  0  0  0
    9.8659    5.1949  -16.7787 H   0  0  0  0  0  0  0  0  0  0  0  0
   12.0919    8.1134  -15.2107 H   0  0  0  0  0  0  0  0  0  0  0  0
   13.6758    8.3742  -17.0792 H   0  0  0  0  0  0  0  0  0  0  0  0
   14.7351    6.3686  -18.1152 H   0  0  0  0  0  0  0  0  0  0  0  0
   14.1948    4.1010  -17.2470 H   0  0  0  0  0  0  0  0  0  0  0  0
   12.6232    3.8218  -15.3646 H   0  0  0  0  0  0  0  0  0  0  0  0
    8.4867    6.8049  -11.0639 H   0  0  0  0  0  0  0  0  0  0  0  0
    9.8527    5.0089   -9.9381 H   0  0  0  0  0  0  0  0  0  0  0  0
   11.1694    6.1722   -9.8067 H   0  0  0  0  0  0  0  0  0  0  0  0
    9.8943    5.9795   -7.7140 H   0  0  0  0  0  0  0  0  0  0  0  0
    8.4469    6.5634   -8.5057 H   0  0  0  0  0  0  0  0  0  0  0  0
    9.6850    9.6578   -7.1130 H   0  0  0  0  0  0  0  0  0  0  0  0
    8.6992    8.2765   -6.6769 H   0  0  0  0  0  0  0  0  0  0  0  0
   10.1692    6.2103   -5.6350 H   0  0  0  0  0  0  0  0  0  0  0  0
   11.7083    5.8437   -3.7560 H   0  0  0  0  0  0  0  0  0  0  0  0
   13.1359    7.6981   -2.9236 H   0  0  0  0  0  0  0  0  0  0  0  0
   13.0927    9.9027   -4.0532 H   0  0  0  0  0  0  0  0  0  0  0  0
   11.5511   10.3012   -5.9526 H   0  0  0  0  0  0  0  0  0  0  0  0
    9.9154    9.8568   -9.3587 H   0  0  0  0  0  0  0  0  0  0  0  0
    8.4113    8.9712   -9.3981 H   0  0  0  0  0  0  0  0  0  0  0  0
   10.9962    8.5202  -10.8866 H   0  0  0  0  0  0  0  0  0  0  0  0
    9.4726    8.9562  -11.6193 H   0  0  0  0  0  0  0  0  0  0  0  0
   11.0057    8.0037   -8.4313 H   0  0  0  0  0  0  0  0  0  0  0  0
  2  1  1  0
  3  2  2  0
  4  3  1  0
  5  4  2  0
  6  5  1  0
  7  6  2  0
  8  7  1  0
  9  4  1  0
  9  8  2  0
 10  3  1  0
 11 10  1  0
 12 11  2  0
 13 12  1  0
 14 13  2  0
 15 14  1  0
 16 11  1  0
 16 15  2  0
 17 10  1  0
 18 17  2  0
 19  2  1  0
 19 17  1  0
 20 19  1  0
 21 20  1  0
 22 21  1  0
 23 22  1  0
 24 23  1  0
 25 24  1  0
 26 25  2  0
 27 26  1  0
 28 27  2  0
 29 28  1  0
 30 25  1  0
 30 29  2  0
 31 23  1  0
 32 20  1  0
 32 31  1  0
 33  1  1  0
 34  1  1  0
 35  1  1  0
 36  5  1  0
 37  6  1  0
 38  7  1  0
 39  8  1  0
 40  9  1  0
 41 12  1  0
 42 13  1  0
 43 14  1  0
 44 15  1  0
 45 16  1  0
 20 46  1  6
 47 21  1  0
 48 21  1  0
 49 22  1  0
 50 22  1  0
 51 24  1  0
 52 24  1  0
 53 26  1  0
 54 27  1  0
 55 28  1  0
 56 29  1  0
 57 30  1  0
 58 31  1  0
 59 31  1  0
 60 32  1  0
 61 32  1  0
 23 62  1  6
M  CHG  1  23   1
M  END
>  <b_m_subgroup_collapsed>  (472) 
0

>  <r_i_docking_score>  (472) 
-7.9494941838711002

>  <s_m_subgroup_title>  (472) 
glide-dock_SP_D22_pv

>  <s_m_subgroupid>  (472) 
glide-dock_SP_D22_pv

>  <Molecule ChEMBL ID>  (472) 
CHEMBL93432

>  <Standard Type>  (472) 
Ki

>  <Standard Value>  (472) 
8.8

>  <label>  (472) 
1

$$$$
CHEMBL80784
     RDKit          3D

 53 55  0  0  1  0  0  0  0  0999 V2000
   10.7162    8.0788   -8.4593 C   0  0  0  0  0  0  0  0  0  0  0  0
   11.2702    8.4240   -7.1739 C   0  0  0  0  0  0  0  0  0  0  0  0
   11.1223    7.6027   -6.1216 C   0  0  0  0  0  0  0  0  0  0  0  0
   11.5653    7.8641   -4.7516 C   0  0  0  0  0  0  0  0  0  0  0  0
   11.8798    9.1638   -4.3057 C   0  0  0  0  0  0  0  0  0  0  0  0
   12.2760    9.3723   -2.9758 C   0  0  0  0  0  0  0  0  0  0  0  0
   12.3906    8.2902   -2.0853 C   0  0  0  0  0  0  0  0  0  0  0  0
   12.0925    6.9875   -2.5310 C   0  0  0  0  0  0  0  0  0  0  0  0
   11.6861    6.7788   -3.8588 C   0  0  0  0  0  0  0  0  0  0  0  0
   10.8606    8.8305   -9.5673 C   0  0  0  0  0  0  0  0  0  0  0  0
   10.2950    8.5723  -10.7947 O   0  0  0  0  0  0  0  0  0  0  0  0
    9.2440    7.6125  -10.8383 C   0  0  0  0  0  0  0  0  0  0  0  0
    9.8249    6.2014  -11.0683 C   0  0  1  0  0  0  0  0  0  0  0  0
    8.9930    5.0891  -10.4166 C   0  0  0  0  0  0  0  0  0  0  0  0
    7.6741    4.8491  -11.1582 C   0  0  0  0  0  0  0  0  0  0  0  0
    7.8850    4.5713  -12.6004 N   0  0  1  0  0  0  0  0  0  0  0  0
    6.6135    4.2929  -13.3105 C   0  0  0  0  0  0  0  0  0  0  0  0
    6.4642    2.8231  -13.6408 C   0  0  0  0  0  0  0  0  0  0  0  0
    5.4329    2.0661  -13.0462 C   0  0  0  0  0  0  0  0  0  0  0  0
    5.2931    0.6992  -13.3569 C   0  0  0  0  0  0  0  0  0  0  0  0
    6.1896    0.0796  -14.2456 C   0  0  0  0  0  0  0  0  0  0  0  0
    7.2169    0.8330  -14.8445 C   0  0  0  0  0  0  0  0  0  0  0  0
    7.3491    2.2046  -14.5512 C   0  0  0  0  0  0  0  0  0  0  0  0
    8.6879    5.6252  -13.2743 C   0  0  0  0  0  0  0  0  0  0  0  0
   10.0274    5.8741  -12.5562 C   0  0  0  0  0  0  0  0  0  0  0  0
   10.1443    7.1658   -8.4969 H   0  0  0  0  0  0  0  0  0  0  0  0
   11.7947    9.3616   -7.0697 H   0  0  0  0  0  0  0  0  0  0  0  0
   10.6046    6.6634   -6.2691 H   0  0  0  0  0  0  0  0  0  0  0  0
   11.7944   10.0148   -4.9634 H   0  0  0  0  0  0  0  0  0  0  0  0
   12.4857   10.3758   -2.6457 H   0  0  0  0  0  0  0  0  0  0  0  0
   12.6929    8.4618   -1.0632 H   0  0  0  0  0  0  0  0  0  0  0  0
   12.1767    6.1498   -1.8546 H   0  0  0  0  0  0  0  0  0  0  0  0
   11.4542    5.7773   -4.1914 H   0  0  0  0  0  0  0  0  0  0  0  0
   11.4385    9.7433   -9.5921 H   0  0  0  0  0  0  0  0  0  0  0  0
    8.6335    7.6540   -9.9334 H   0  0  0  0  0  0  0  0  0  0  0  0
    8.5595    7.8966  -11.6371 H   0  0  0  0  0  0  0  0  0  0  0  0
   10.7953    6.1762  -10.5770 H   0  0  0  0  0  0  0  0  0  0  0  0
    9.5797    4.1714  -10.4069 H   0  0  0  0  0  0  0  0  0  0  0  0
    8.7894    5.3247   -9.3716 H   0  0  0  0  0  0  0  0  0  0  0  0
    7.0154    5.7134  -11.0451 H   0  0  0  0  0  0  0  0  0  0  0  0
    7.1743    3.9899  -10.7069 H   0  0  0  0  0  0  0  0  0  0  0  0
    5.7544    4.6457  -12.7367 H   0  0  0  0  0  0  0  0  0  0  0  0
    6.5749    4.8362  -14.2470 H   0  0  0  0  0  0  0  0  0  0  0  0
    4.7416    2.5292  -12.3592 H   0  0  0  0  0  0  0  0  0  0  0  0
    4.4919    0.1326  -12.9133 H   0  0  0  0  0  0  0  0  0  0  0  0
    6.0875   -0.9719  -14.4756 H   0  0  0  0  0  0  0  0  0  0  0  0
    7.9012    0.3560  -15.5330 H   0  0  0  0  0  0  0  0  0  0  0  0
    8.1366    2.7720  -15.0206 H   0  0  0  0  0  0  0  0  0  0  0  0
    8.0972    6.5405  -13.3304 H   0  0  0  0  0  0  0  0  0  0  0  0
    8.8852    5.3240  -14.3040 H   0  0  0  0  0  0  0  0  0  0  0  0
   10.5772    6.6778  -13.0462 H   0  0  0  0  0  0  0  0  0  0  0  0
   10.6493    4.9831  -12.6485 H   0  0  0  0  0  0  0  0  0  0  0  0
    8.4313    3.7221  -12.6511 H   0  0  0  0  0  0  0  0  0  0  0  0
  2  1  1  0
  3  2  2  0
  4  3  1  0
  5  4  2  0
  6  5  1  0
  7  6  2  0
  8  7  1  0
  9  4  1  0
  9  8  2  0
 10  1  2  0
 11 10  1  0
 12 11  1  0
 13 12  1  0
 14 13  1  0
 15 14  1  0
 16 15  1  0
 17 16  1  0
 18 17  1  0
 19 18  2  0
 20 19  1  0
 21 20  2  0
 22 21  1  0
 23 18  1  0
 23 22  2  0
 24 16  1  0
 25 13  1  0
 25 24  1  0
 26  1  1  0
 27  2  1  0
 28  3  1  0
 29  5  1  0
 30  6  1  0
 31  7  1  0
 32  8  1  0
 33  9  1  0
 34 10  1  0
 35 12  1  0
 36 12  1  0
 13 37  1  1
 38 14  1  0
 39 14  1  0
 40 15  1  0
 41 15  1  0
 42 17  1  0
 43 17  1  0
 44 19  1  0
 45 20  1  0
 46 21  1  0
 47 22  1  0
 48 23  1  0
 49 24  1  0
 50 24  1  0
 51 25  1  0
 52 25  1  0
 16 53  1  1
M  CHG  1  16   1
M  END
>  <b_m_subgroup_collapsed>  (473) 
0

>  <r_i_docking_score>  (473) 
-7.9484810157483201

>  <s_m_subgroup_title>  (473) 
glide-dock_SP_D22_pv

>  <s_m_subgroupid>  (473) 
glide-dock_SP_D22_pv

>  <Molecule ChEMBL ID>  (473) 
CHEMBL80784

>  <Standard Type>  (473) 
Ki

>  <Standard Value>  (473) 
10000.0

>  <label>  (473) 
0

$$$$
CHEMBL179351
     RDKit          3D

 58 61  0  0  1  0  0  0  0  0999 V2000
    9.6051    7.0981  -11.3232 O   0  0  0  0  0  0  0  0  0  0  0  0
   10.6890    7.3667  -10.8100 C   0  0  0  0  0  0  0  0  0  0  0  0
   11.8409    7.3942  -11.5012 N   0  0  0  0  0  0  0  0  0  0  0  0
   11.9780    7.2488  -12.9496 C   0  0  0  0  0  0  0  0  0  0  0  0
   12.0508    5.8010  -13.4054 C   0  0  0  0  0  0  0  0  0  0  0  0
   11.1783    5.2071  -14.2358 C   0  0  0  0  0  0  0  0  0  0  0  0
   11.2855    3.7678  -14.7087 C   0  0  0  0  0  0  0  0  0  0  0  0
   10.1015    2.9228  -14.3944 N   0  0  0  0  0  0  0  0  0  0  0  0
    8.8231    3.4923  -14.9110 C   0  0  0  0  0  0  0  0  0  0  0  0
    7.6238    2.5721  -14.6441 C   0  0  0  0  0  0  0  0  0  0  0  0
    7.9037    1.2434  -15.1529 N   0  0  0  0  0  0  0  0  0  0  0  0
    6.8310    0.4288  -15.5529 C   0  0  0  0  0  0  0  0  0  0  0  0
    6.8437   -0.0474  -16.8810 C   0  0  0  0  0  0  0  0  0  0  0  0
    5.7793   -0.8192  -17.3784 C   0  0  0  0  0  0  0  0  0  0  0  0
    4.6828   -1.1178  -16.5517 C   0  0  0  0  0  0  0  0  0  0  0  0
    4.6607   -0.6566  -15.2242 C   0  0  0  0  0  0  0  0  0  0  0  0
    3.2861   -1.0075  -14.2458 Cl  0  0  0  0  0  0  0  0  0  0  0  0
    5.7368    0.0979  -14.7075 C   0  0  0  0  0  0  0  0  0  0  0  0
    5.6866    0.5976  -13.0481 Cl  0  0  0  0  0  0  0  0  0  0  0  0
    9.1010    0.6030  -14.6385 C   0  0  0  0  0  0  0  0  0  0  0  0
   10.3270    1.5170  -14.8487 C   0  0  0  0  0  0  0  0  0  0  0  0
   10.8324    7.5870   -9.3282 C   0  0  0  0  0  0  0  0  0  0  0  0
   10.0842    6.8170   -8.4087 C   0  0  0  0  0  0  0  0  0  0  0  0
   10.2785    6.9732   -7.0197 C   0  0  0  0  0  0  0  0  0  0  0  0
   11.1951    7.9302   -6.5303 C   0  0  0  0  0  0  0  0  0  0  0  0
   11.5054    8.0304   -5.1056 C   0  0  0  0  0  0  0  0  0  0  0  0
   11.7309    9.1751   -4.4597 N   0  0  0  0  0  0  0  0  0  0  0  0
   12.0860    8.8138   -3.1580 C   0  0  0  0  0  0  0  0  0  0  0  0
   12.0674    7.4443   -3.0423 C   0  0  0  0  0  0  0  0  0  0  0  0
   11.6856    6.9804   -4.2905 N   0  0  0  0  0  0  0  0  0  0  0  0
   11.8861    8.7489   -7.4460 C   0  0  0  0  0  0  0  0  0  0  0  0
   11.7136    8.5734   -8.8328 C   0  0  0  0  0  0  0  0  0  0  0  0
   12.6768    7.6169  -10.9825 H   0  0  0  0  0  0  0  0  0  0  0  0
   12.9017    7.7482  -13.2519 H   0  0  0  0  0  0  0  0  0  0  0  0
   11.1647    7.7712  -13.4466 H   0  0  0  0  0  0  0  0  0  0  0  0
   12.8858    5.2236  -13.0404 H   0  0  0  0  0  0  0  0  0  0  0  0
   10.3473    5.7776  -14.6206 H   0  0  0  0  0  0  0  0  0  0  0  0
   11.4533    3.7804  -15.7872 H   0  0  0  0  0  0  0  0  0  0  0  0
   12.1701    3.3215  -14.2575 H   0  0  0  0  0  0  0  0  0  0  0  0
    8.6113    4.4523  -14.4469 H   0  0  0  0  0  0  0  0  0  0  0  0
    8.9181    3.6684  -15.9845 H   0  0  0  0  0  0  0  0  0  0  0  0
    7.4377    2.5308  -13.5718 H   0  0  0  0  0  0  0  0  0  0  0  0
    6.7183    2.9708  -15.1020 H   0  0  0  0  0  0  0  0  0  0  0  0
    7.6741    0.1873  -17.5313 H   0  0  0  0  0  0  0  0  0  0  0  0
    5.7996   -1.1761  -18.3979 H   0  0  0  0  0  0  0  0  0  0  0  0
    3.8582   -1.7038  -16.9360 H   0  0  0  0  0  0  0  0  0  0  0  0
    8.9459    0.3952  -13.5793 H   0  0  0  0  0  0  0  0  0  0  0  0
    9.2585   -0.3592  -15.1299 H   0  0  0  0  0  0  0  0  0  0  0  0
   10.5636    1.5320  -15.9142 H   0  0  0  0  0  0  0  0  0  0  0  0
   11.2075    1.1053  -14.3462 H   0  0  0  0  0  0  0  0  0  0  0  0
    9.3849    6.0747   -8.7646 H   0  0  0  0  0  0  0  0  0  0  0  0
    9.7264    6.3508   -6.3306 H   0  0  0  0  0  0  0  0  0  0  0  0
   12.3174    9.5631   -2.4147 H   0  0  0  0  0  0  0  0  0  0  0  0
   12.2704    6.7863   -2.2096 H   0  0  0  0  0  0  0  0  0  0  0  0
   11.5754    6.0111   -4.5549 H   0  0  0  0  0  0  0  0  0  0  0  0
   12.5909    9.4844   -7.0808 H   0  0  0  0  0  0  0  0  0  0  0  0
   12.2767    9.1961   -9.5125 H   0  0  0  0  0  0  0  0  0  0  0  0
   10.0101    2.8764  -13.3870 H   0  0  0  0  0  0  0  0  0  0  0  0
  2  1  2  0
  3  2  1  0
  4  3  1  0
  5  4  1  0
  6  5  2  0
  7  6  1  0
  8  7  1  0
  9  8  1  0
 10  9  1  0
 11 10  1  0
 12 11  1  0
 13 12  2  0
 14 13  1  0
 15 14  2  0
 16 15  1  0
 17 16  1  0
 18 12  1  0
 18 16  2  0
 19 18  1  0
 20 11  1  0
 21  8  1  0
 21 20  1  0
 22  2  1  0
 23 22  1  0
 24 23  2  0
 25 24  1  0
 26 25  1  0
 27 26  2  0
 28 27  1  0
 29 28  2  0
 30 26  1  0
 30 29  1  0
 31 25  2  0
 32 22  2  0
 32 31  1  0
 33  3  1  0
 34  4  1  0
 35  4  1  0
 36  5  1  0
 37  6  1  0
 38  7  1  0
 39  7  1  0
 40  9  1  0
 41  9  1  0
 42 10  1  0
 43 10  1  0
 44 13  1  0
 45 14  1  0
 46 15  1  0
 47 20  1  0
 48 20  1  0
 49 21  1  0
 50 21  1  0
 51 23  1  0
 52 24  1  0
 53 28  1  0
 54 29  1  0
 55 30  1  0
 56 31  1  0
 57 32  1  0
 58  8  1  0
M  CHG  1   8   1
M  END
>  <b_m_subgroup_collapsed>  (474) 
0

>  <r_i_docking_score>  (474) 
-7.9437311094397698

>  <s_m_subgroup_title>  (474) 
glide-dock_SP_D22_pv

>  <s_m_subgroupid>  (474) 
glide-dock_SP_D22_pv

>  <Molecule ChEMBL ID>  (474) 
CHEMBL179351

>  <Standard Type>  (474) 
Ki

>  <Standard Value>  (474) 
8.0

>  <label>  (474) 
1

$$$$
CHEMBL5950738
     RDKit          3D

 55 57  0  0  1  0  0  0  0  0999 V2000
   11.0680    9.8736   -6.4026 O   0  0  0  0  0  0  0  0  0  0  0  0
   10.9831    8.7793   -5.8475 C   0  0  0  0  0  0  0  0  0  0  0  0
   10.1568    7.8105   -6.2773 N   0  0  0  0  0  0  0  0  0  0  0  0
    9.3475    7.8573   -7.4904 C   0  0  0  0  0  0  0  0  0  0  0  0
    9.5359    6.5512   -8.2889 C   0  0  0  0  0  0  0  0  0  0  0  0
    8.8859    6.5725   -9.6242 N   0  0  2  0  0  0  0  0  0  0  0  0
    8.6358    5.2067  -10.1506 C   0  0  0  0  0  0  0  0  0  0  0  0
    7.8208    5.2697  -11.4523 C   0  0  0  0  0  0  0  0  0  0  0  0
    8.5430    6.0715  -12.5558 C   0  0  2  0  0  0  0  0  0  0  0  0
    9.7113    5.3033  -13.1904 C   0  0  0  0  0  0  0  0  0  0  0  0
   11.0080    5.8520  -13.3198 C   0  0  0  0  0  0  0  0  0  0  0  0
   12.0067    5.1000  -13.9624 C   0  0  0  0  0  0  0  0  0  0  0  0
   11.6859    3.8222  -14.4427 C   0  0  0  0  0  0  0  0  0  0  0  0
   10.3718    3.3479  -14.2848 C   0  0  0  0  0  0  0  0  0  0  0  0
   10.0774    2.0824  -14.7433 O   0  0  0  0  0  0  0  0  0  0  0  0
    8.8356    1.7766  -15.2095 C   0  0  0  0  0  0  0  0  0  0  0  0
    8.8359    0.5032  -15.6735 F   0  0  0  0  0  0  0  0  0  0  0  0
    7.8805    1.8444  -14.2495 F   0  0  0  0  0  0  0  0  0  0  0  0
    8.4854    2.5718  -16.2502 F   0  0  0  0  0  0  0  0  0  0  0  0
    9.3989    4.0850  -13.6944 N   0  0  0  0  0  0  0  0  0  0  0  0
    8.8859    7.4643  -11.9684 C   0  0  0  0  0  0  0  0  0  0  0  0
    9.6204    7.3997  -10.6157 C   0  0  0  0  0  0  0  0  0  0  0  0
   11.8637    8.4951   -4.6187 C   0  0  0  0  0  0  0  0  0  0  0  0
   11.5350    9.4546   -3.4616 C   0  0  0  0  0  0  0  0  0  0  0  0
   12.3655    9.1342   -2.2111 C   0  0  0  0  0  0  0  0  0  0  0  0
   12.1806    7.7720   -1.8474 O   0  0  0  0  0  0  0  0  0  0  0  0
   12.6329    6.8616   -2.8431 C   0  0  0  0  0  0  0  0  0  0  0  0
   11.8244    7.0266   -4.1340 C   0  0  0  0  0  0  0  0  0  0  0  0
   10.1292    6.9537   -5.7441 H   0  0  0  0  0  0  0  0  0  0  0  0
    9.6140    8.7287   -8.0900 H   0  0  0  0  0  0  0  0  0  0  0  0
    8.3000    7.9853   -7.2084 H   0  0  0  0  0  0  0  0  0  0  0  0
    9.1159    5.7374   -7.6948 H   0  0  0  0  0  0  0  0  0  0  0  0
   10.5984    6.3219   -8.4086 H   0  0  0  0  0  0  0  0  0  0  0  0
    8.0861    4.6234   -9.4118 H   0  0  0  0  0  0  0  0  0  0  0  0
    9.5831    4.6884  -10.3146 H   0  0  0  0  0  0  0  0  0  0  0  0
    6.8680    5.7571  -11.2371 H   0  0  0  0  0  0  0  0  0  0  0  0
    7.5669    4.2668  -11.7935 H   0  0  0  0  0  0  0  0  0  0  0  0
    7.8369    6.2293  -13.3720 H   0  0  0  0  0  0  0  0  0  0  0  0
   11.2617    6.8360  -12.9608 H   0  0  0  0  0  0  0  0  0  0  0  0
   13.0022    5.5008  -14.0874 H   0  0  0  0  0  0  0  0  0  0  0  0
   12.4310    3.2187  -14.9406 H   0  0  0  0  0  0  0  0  0  0  0  0
    9.4638    8.0797  -12.6469 H   0  0  0  0  0  0  0  0  0  0  0  0
    7.9553    8.0165  -11.8467 H   0  0  0  0  0  0  0  0  0  0  0  0
    9.7434    8.4160  -10.2464 H   0  0  0  0  0  0  0  0  0  0  0  0
   10.6256    6.9965  -10.7437 H   0  0  0  0  0  0  0  0  0  0  0  0
   12.8857    8.7181   -4.9226 H   0  0  0  0  0  0  0  0  0  0  0  0
   11.6862   10.4921   -3.7559 H   0  0  0  0  0  0  0  0  0  0  0  0
   10.4860    9.3722   -3.2135 H   0  0  0  0  0  0  0  0  0  0  0  0
   13.4197    9.3423   -2.3763 H   0  0  0  0  0  0  0  0  0  0  0  0
   12.0611    9.7653   -1.3790 H   0  0  0  0  0  0  0  0  0  0  0  0
   13.6860    7.0296   -3.0471 H   0  0  0  0  0  0  0  0  0  0  0  0
   12.5380    5.8437   -2.4632 H   0  0  0  0  0  0  0  0  0  0  0  0
   10.8143    6.6801   -3.9425 H   0  0  0  0  0  0  0  0  0  0  0  0
   12.2168    6.3637   -4.9054 H   0  0  0  0  0  0  0  0  0  0  0  0
    7.9622    6.9957   -9.5207 H   0  0  0  0  0  0  0  0  0  0  0  0
  2  1  2  0
  3  2  1  0
  4  3  1  0
  5  4  1  0
  6  5  1  0
  7  6  1  0
  8  7  1  0
  9  8  1  0
 10  9  1  0
 11 10  2  0
 12 11  1  0
 13 12  2  0
 14 13  1  0
 15 14  1  0
 16 15  1  0
 17 16  1  0
 18 16  1  0
 19 16  1  0
 20 10  1  0
 20 14  2  0
 21  9  1  0
 22  6  1  0
 22 21  1  0
 23  2  1  0
 24 23  1  0
 25 24  1  0
 26 25  1  0
 27 26  1  0
 28 23  1  0
 28 27  1  0
 29  3  1  0
 30  4  1  0
 31  4  1  0
 32  5  1  0
 33  5  1  0
 34  7  1  0
 35  7  1  0
 36  8  1  0
 37  8  1  0
  9 38  1  6
 39 11  1  0
 40 12  1  0
 41 13  1  0
 42 21  1  0
 43 21  1  0
 44 22  1  0
 45 22  1  0
 46 23  1  0
 47 24  1  0
 48 24  1  0
 49 25  1  0
 50 25  1  0
 51 27  1  0
 52 27  1  0
 53 28  1  0
 54 28  1  0
  6 55  1  1
M  CHG  1   6   1
M  END
>  <b_m_subgroup_collapsed>  (475) 
0

>  <r_i_docking_score>  (475) 
-7.9434373667526099

>  <s_m_subgroup_title>  (475) 
glide-dock_SP_D22_pv

>  <s_m_subgroupid>  (475) 
glide-dock_SP_D22_pv

>  <Molecule ChEMBL ID>  (475) 
CHEMBL5950738

>  <Standard Type>  (475) 
Ki

>  <Standard Value>  (475) 
28.0

>  <label>  (475) 
1

$$$$
CHEMBL241083
     RDKit          3D

 36 39  0  0  1  0  0  0  0  0999 V2000
   12.4860    6.9684  -13.5029 C   0  0  0  0  0  0  0  0  0  0  0  0
   11.2862    6.2427  -13.5499 C   0  0  0  0  0  0  0  0  0  0  0  0
   10.3247    6.4120  -12.5356 C   0  0  0  0  0  0  0  0  0  0  0  0
   10.5805    7.2503  -11.4192 C   0  0  0  0  0  0  0  0  0  0  0  0
    9.4811    7.5456  -10.3851 C   0  0  1  0  0  0  0  0  0  0  0  0
    8.4860    6.4359  -10.3453 N   0  0  0  0  0  0  0  0  0  0  0  0
    8.8687    5.3000   -9.4727 C   0  0  0  0  0  0  0  0  0  0  0  0
    9.0321    5.7538   -8.0123 C   0  0  0  0  0  0  0  0  0  0  0  0
    9.8393    6.9985   -7.9187 C   0  0  0  0  0  0  0  0  0  0  0  0
    9.9887    7.8326   -8.9866 C   0  0  0  0  0  0  0  0  0  0  0  0
   10.6536    8.9723   -8.5513 N   0  0  0  0  0  0  0  0  0  0  0  0
   11.0443    8.8409   -7.2263 C   0  0  0  0  0  0  0  0  0  0  0  0
   11.7541    9.6818   -6.3440 C   0  0  0  0  0  0  0  0  0  0  0  0
   12.0577    9.2308   -5.0463 C   0  0  0  0  0  0  0  0  0  0  0  0
   11.6330    7.9560   -4.6319 C   0  0  0  0  0  0  0  0  0  0  0  0
   10.8836    7.1394   -5.5027 C   0  0  0  0  0  0  0  0  0  0  0  0
   10.5709    7.5597   -6.8175 C   0  0  0  0  0  0  0  0  0  0  0  0
   11.8517    7.8646  -11.3287 C   0  0  0  0  0  0  0  0  0  0  0  0
   12.7737    7.7722  -12.3866 C   0  0  0  0  0  0  0  0  0  0  0  0
   13.2073    6.8786  -14.3023 H   0  0  0  0  0  0  0  0  0  0  0  0
   11.0746    5.6066  -14.3971 H   0  0  0  0  0  0  0  0  0  0  0  0
    9.3814    5.9035  -12.6621 H   0  0  0  0  0  0  0  0  0  0  0  0
    8.9471    8.4249  -10.7481 H   0  0  0  0  0  0  0  0  0  0  0  0
    7.5965    6.8558  -10.0381 H   0  0  0  0  0  0  0  0  0  0  0  0
    9.8049    4.8763   -9.8402 H   0  0  0  0  0  0  0  0  0  0  0  0
    8.1160    4.5137   -9.5414 H   0  0  0  0  0  0  0  0  0  0  0  0
    9.5169    4.9723   -7.4469 H   0  0  0  0  0  0  0  0  0  0  0  0
    8.0544    5.9138   -7.5575 H   0  0  0  0  0  0  0  0  0  0  0  0
   10.8538    9.7599   -9.1501 H   0  0  0  0  0  0  0  0  0  0  0  0
   12.0902   10.6608   -6.6472 H   0  0  0  0  0  0  0  0  0  0  0  0
   12.6250    9.8516   -4.3695 H   0  0  0  0  0  0  0  0  0  0  0  0
   11.8675    7.6088   -3.6360 H   0  0  0  0  0  0  0  0  0  0  0  0
   10.5428    6.1726   -5.1624 H   0  0  0  0  0  0  0  0  0  0  0  0
   12.1196    8.5040  -10.5039 H   0  0  0  0  0  0  0  0  0  0  0  0
   13.7124    8.3049  -12.3351 H   0  0  0  0  0  0  0  0  0  0  0  0
    8.3296    6.1058  -11.2834 H   0  0  0  0  0  0  0  0  0  0  0  0
  2  1  2  0
  3  2  1  0
  4  3  2  0
  5  4  1  0
  6  5  1  0
  7  6  1  0
  8  7  1  0
  9  8  1  0
 10  5  1  0
 10  9  2  0
 11 10  1  0
 12 11  1  0
 13 12  2  0
 14 13  1  0
 15 14  2  0
 16 15  1  0
 17  9  1  0
 17 12  1  0
 17 16  2  0
 18  4  1  0
 19  1  1  0
 19 18  2  0
 20  1  1  0
 21  2  1  0
 22  3  1  0
  5 23  1  6
 24  6  1  0
 25  7  1  0
 26  7  1  0
 27  8  1  0
 28  8  1  0
 29 11  1  0
 30 13  1  0
 31 14  1  0
 32 15  1  0
 33 16  1  0
 34 18  1  0
 35 19  1  0
 36  6  1  0
M  CHG  1   6   1
M  END
>  <b_m_subgroup_collapsed>  (476) 
0

>  <r_i_docking_score>  (476) 
-7.94313780907828

>  <s_m_subgroup_title>  (476) 
glide-dock_SP_D22_pv

>  <s_m_subgroupid>  (476) 
glide-dock_SP_D22_pv

>  <Molecule ChEMBL ID>  (476) 
CHEMBL241083

>  <Standard Type>  (476) 
Ki

>  <Standard Value>  (476) 
300000.0

>  <label>  (476) 
0

$$$$
CHEMBL3085819
     RDKit          3D

 52 54  0  0  1  0  0  0  0  0999 V2000
   11.7925    3.1145  -18.3114 C   0  0  0  0  0  0  0  0  0  0  0  0
   10.6367    3.2961  -17.3351 C   0  0  0  0  0  0  0  0  0  0  0  0
    9.4737    3.2004  -17.7267 O   0  0  0  0  0  0  0  0  0  0  0  0
   10.9704    3.5589  -16.0633 N   0  0  0  0  0  0  0  0  0  0  0  0
   10.0180    3.7396  -14.9729 C   0  0  1  0  0  0  0  0  0  0  0  0
   10.6905    3.4371  -13.6264 C   0  0  0  0  0  0  0  0  0  0  0  0
    9.6850    3.6422  -12.4856 C   0  0  0  0  0  0  0  0  0  0  0  0
    9.1349    5.0785  -12.4245 C   0  0  2  0  0  0  0  0  0  0  0  0
    8.1336    5.2609  -11.2584 C   0  0  0  0  0  0  0  0  0  0  0  0
    8.7483    5.1789   -9.8391 C   0  0  0  0  0  0  0  0  0  0  0  0
    8.8855    6.4780   -9.1236 N   0  0  2  0  0  0  0  0  0  0  0  0
    9.7732    7.4577   -9.7964 C   0  0  0  0  0  0  0  0  0  0  0  0
    9.8143    8.7793   -9.0149 C   0  0  0  0  0  0  0  0  0  0  0  0
   10.3207    8.5405   -7.6090 C   0  0  0  0  0  0  0  0  0  0  0  0
   11.0997    9.5071   -6.9444 C   0  0  0  0  0  0  0  0  0  0  0  0
   11.6407    9.2462   -5.6732 C   0  0  0  0  0  0  0  0  0  0  0  0
   11.4014    8.0043   -5.0559 C   0  0  0  0  0  0  0  0  0  0  0  0
   12.0065    7.7086   -3.7654 C   0  0  0  0  0  0  0  0  0  0  0  0
   12.4859    7.4738   -2.7393 N   0  0  0  0  0  0  0  0  0  0  0  0
   10.5923    7.0478   -5.7059 C   0  0  0  0  0  0  0  0  0  0  0  0
   10.0407    7.3124   -6.9800 C   0  0  0  0  0  0  0  0  0  0  0  0
    9.1754    6.2604   -7.6712 C   0  0  0  0  0  0  0  0  0  0  0  0
    8.4770    5.3903  -13.7841 C   0  0  0  0  0  0  0  0  0  0  0  0
    9.4503    5.1691  -14.9608 C   0  0  0  0  0  0  0  0  0  0  0  0
   12.3467    4.0467  -18.4216 H   0  0  0  0  0  0  0  0  0  0  0  0
   12.4758    2.3423  -17.9570 H   0  0  0  0  0  0  0  0  0  0  0  0
   11.4238    2.8179  -19.2937 H   0  0  0  0  0  0  0  0  0  0  0  0
   11.9519    3.6211  -15.8358 H   0  0  0  0  0  0  0  0  0  0  0  0
    9.1949    3.0342  -15.1092 H   0  0  0  0  0  0  0  0  0  0  0  0
   11.5617    4.0765  -13.4768 H   0  0  0  0  0  0  0  0  0  0  0  0
   11.0458    2.4058  -13.6182 H   0  0  0  0  0  0  0  0  0  0  0  0
   10.0889    3.3291  -11.5284 H   0  0  0  0  0  0  0  0  0  0  0  0
    8.8599    2.9724  -12.6809 H   0  0  0  0  0  0  0  0  0  0  0  0
    9.9668    5.7686  -12.2802 H   0  0  0  0  0  0  0  0  0  0  0  0
    7.3748    4.4815  -11.3444 H   0  0  0  0  0  0  0  0  0  0  0  0
    7.5765    6.1874  -11.3773 H   0  0  0  0  0  0  0  0  0  0  0  0
    9.7123    4.6717   -9.8460 H   0  0  0  0  0  0  0  0  0  0  0  0
    8.0864    4.5510   -9.2396 H   0  0  0  0  0  0  0  0  0  0  0  0
   10.7768    7.0399   -9.8906 H   0  0  0  0  0  0  0  0  0  0  0  0
    9.4109    7.6553  -10.8053 H   0  0  0  0  0  0  0  0  0  0  0  0
    8.8209    9.2289   -8.9658 H   0  0  0  0  0  0  0  0  0  0  0  0
   10.4639    9.4913   -9.5249 H   0  0  0  0  0  0  0  0  0  0  0  0
   11.2884   10.4564   -7.4139 H   0  0  0  0  0  0  0  0  0  0  0  0
   12.2531    9.9932   -5.1881 H   0  0  0  0  0  0  0  0  0  0  0  0
   10.3982    6.1055   -5.2186 H   0  0  0  0  0  0  0  0  0  0  0  0
    9.6929    5.3115   -7.5447 H   0  0  0  0  0  0  0  0  0  0  0  0
    8.2274    6.1705   -7.1388 H   0  0  0  0  0  0  0  0  0  0  0  0
    7.6043    4.7499  -13.9211 H   0  0  0  0  0  0  0  0  0  0  0  0
    8.0945    6.4113  -13.7920 H   0  0  0  0  0  0  0  0  0  0  0  0
   10.2805    5.8712  -14.8960 H   0  0  0  0  0  0  0  0  0  0  0  0
    8.9391    5.3713  -15.9016 H   0  0  0  0  0  0  0  0  0  0  0  0
    7.9621    6.9083   -9.1550 H   0  0  0  0  0  0  0  0  0  0  0  0
  2  1  1  0
  3  2  2  0
  4  2  1  0
  5  4  1  0
  6  5  1  0
  7  6  1  0
  8  7  1  0
  9  8  1  0
 10  9  1  0
 11 10  1  0
 12 11  1  0
 13 12  1  0
 14 13  1  0
 15 14  1  0
 16 15  2  0
 17 16  1  0
 18 17  1  0
 19 18  3  0
 20 17  2  0
 21 14  2  0
 21 20  1  0
 22 11  1  0
 22 21  1  0
 23  8  1  0
 24  5  1  0
 24 23  1  0
 25  1  1  0
 26  1  1  0
 27  1  1  0
 28  4  1  0
  5 29  1  6
 30  6  1  0
 31  6  1  0
 32  7  1  0
 33  7  1  0
  8 34  1  1
 35  9  1  0
 36  9  1  0
 37 10  1  0
 38 10  1  0
 39 12  1  0
 40 12  1  0
 41 13  1  0
 42 13  1  0
 43 15  1  0
 44 16  1  0
 45 20  1  0
 46 22  1  0
 47 22  1  0
 48 23  1  0
 49 23  1  0
 50 24  1  0
 51 24  1  0
 11 52  1  1
M  CHG  1  11   1
M  END
>  <b_m_subgroup_collapsed>  (477) 
0

>  <r_i_docking_score>  (477) 
-7.9423620566182596

>  <s_m_subgroup_title>  (477) 
glide-dock_SP_D22_pv

>  <s_m_subgroupid>  (477) 
glide-dock_SP_D22_pv

>  <Molecule ChEMBL ID>  (477) 
CHEMBL3085819

>  <Standard Type>  (477) 
Ki

>  <Standard Value>  (477) 
23.44

>  <label>  (477) 
1

$$$$
CHEMBL4516927
     RDKit          3D

 72 76  0  0  1  0  0  0  0  0999 V2000
   11.6337   11.0062   -5.8864 C   0  0  0  0  0  0  0  0  0  0  0  0
   10.9242    9.8014   -5.7981 O   0  0  0  0  0  0  0  0  0  0  0  0
   11.3633    8.9117   -4.8515 C   0  0  0  0  0  0  0  0  0  0  0  0
   11.9591    9.3052   -3.6267 C   0  0  0  0  0  0  0  0  0  0  0  0
   12.4104    8.3380   -2.7103 C   0  0  0  0  0  0  0  0  0  0  0  0
   12.2795    6.9724   -3.0163 C   0  0  0  0  0  0  0  0  0  0  0  0
   11.6859    6.5821   -4.2307 C   0  0  0  0  0  0  0  0  0  0  0  0
   11.2023    7.5413   -5.1397 C   0  0  0  0  0  0  0  0  0  0  0  0
   10.5483    7.1315   -6.3125 N   0  0  0  0  0  0  0  0  0  0  0  0
   11.2859    6.3967   -7.3304 C   0  0  0  0  0  0  0  0  0  0  0  0
   11.1144    7.0742   -8.7083 C   0  0  0  0  0  0  0  0  0  0  0  0
    9.6227    7.2735   -9.0824 C   0  0  0  0  0  0  0  0  0  0  0  0
    8.7775    5.9629   -9.0949 C   0  0  0  0  0  0  0  0  0  0  0  0
    9.1095    5.0081  -10.2413 C   0  0  0  0  0  0  0  0  0  0  0  0
    9.0397    5.6582  -11.5736 N   0  0  0  0  0  0  0  0  0  0  0  0
    9.4476    4.6970  -12.6390 C   0  0  0  0  0  0  0  0  0  0  0  0
    8.8048    4.9593  -14.0171 C   0  0  0  0  0  0  0  0  0  0  0  0
    9.7374    4.5819  -15.1886 C   0  0  0  0  0  0  0  0  0  0  0  0
   10.2196    2.8222  -15.2017 S   0  0  0  0  0  0  0  0  0  0  0  0
    8.8205    2.1234  -16.0237 C   0  0  0  0  0  0  0  0  0  0  0  0
    8.3571    2.5422  -17.2006 N   0  0  0  0  0  0  0  0  0  0  0  0
    7.2425    1.7722  -17.4471 N   0  0  0  0  0  0  0  0  0  0  0  0
    7.1148    0.9441  -16.4026 C   0  0  0  0  0  0  0  0  0  0  0  0
    5.9784    0.0254  -16.2828 C   0  0  0  0  0  0  0  0  0  0  0  0
    5.4345   -0.6028  -17.4237 C   0  0  0  0  0  0  0  0  0  0  0  0
    4.3028   -1.4271  -17.2763 C   0  0  0  0  0  0  0  0  0  0  0  0
    3.7562   -1.5984  -15.9905 C   0  0  0  0  0  0  0  0  0  0  0  0
    4.2649   -1.0123  -14.8868 N   0  0  0  0  0  0  0  0  0  0  0  0
    5.3508   -0.2271  -15.0406 C   0  0  0  0  0  0  0  0  0  0  0  0
    8.1195    1.0956  -15.5076 N   0  0  0  0  0  0  0  0  0  0  0  0
    8.3867    0.3604  -14.2889 C   0  0  0  0  0  0  0  0  0  0  0  0
    9.8275    6.9238  -11.6310 C   0  0  0  0  0  0  0  0  0  0  0  0
    9.4955    7.9072  -10.4865 C   0  0  0  0  0  0  0  0  0  0  0  0
    9.1021    8.2364   -7.9927 C   0  0  0  0  0  0  0  0  0  0  0  0
    9.1924    7.6029   -6.5920 C   0  0  0  0  0  0  0  0  0  0  0  0
   11.4299   11.4683   -6.8460 H   0  0  0  0  0  0  0  0  0  0  0  0
   11.2860   11.6731   -5.0952 H   0  0  0  0  0  0  0  0  0  0  0  0
   12.7121   10.8510   -5.8469 H   0  0  0  0  0  0  0  0  0  0  0  0
   12.0635   10.3441   -3.3596 H   0  0  0  0  0  0  0  0  0  0  0  0
   12.8562    8.6477   -1.7760 H   0  0  0  0  0  0  0  0  0  0  0  0
   12.6228    6.2215   -2.3193 H   0  0  0  0  0  0  0  0  0  0  0  0
   11.5640    5.5404   -4.4570 H   0  0  0  0  0  0  0  0  0  0  0  0
   10.9273    5.3725   -7.3689 H   0  0  0  0  0  0  0  0  0  0  0  0
   12.3380    6.3438   -7.0504 H   0  0  0  0  0  0  0  0  0  0  0  0
   11.6497    6.5600   -9.4958 H   0  0  0  0  0  0  0  0  0  0  0  0
   11.6052    8.0482   -8.6635 H   0  0  0  0  0  0  0  0  0  0  0  0
    7.7141    6.1860   -9.1637 H   0  0  0  0  0  0  0  0  0  0  0  0
    8.8738    5.4100   -8.1625 H   0  0  0  0  0  0  0  0  0  0  0  0
    8.3942    4.1849  -10.2143 H   0  0  0  0  0  0  0  0  0  0  0  0
   10.0880    4.5664  -10.0825 H   0  0  0  0  0  0  0  0  0  0  0  0
    9.1885    3.6775  -12.3468 H   0  0  0  0  0  0  0  0  0  0  0  0
   10.5362    4.6999  -12.7156 H   0  0  0  0  0  0  0  0  0  0  0  0
    8.5346    6.0094  -14.1154 H   0  0  0  0  0  0  0  0  0  0  0  0
    7.8644    4.4119  -14.0945 H   0  0  0  0  0  0  0  0  0  0  0  0
   10.6518    5.1721  -15.1209 H   0  0  0  0  0  0  0  0  0  0  0  0
    9.2860    4.8488  -16.1440 H   0  0  0  0  0  0  0  0  0  0  0  0
    5.8669   -0.4476  -18.4016 H   0  0  0  0  0  0  0  0  0  0  0  0
    3.8571   -1.9217  -18.1269 H   0  0  0  0  0  0  0  0  0  0  0  0
    2.8863   -2.2245  -15.8465 H   0  0  0  0  0  0  0  0  0  0  0  0
    5.6982    0.2506  -14.1374 H   0  0  0  0  0  0  0  0  0  0  0  0
    9.4608    0.2425  -14.1411 H   0  0  0  0  0  0  0  0  0  0  0  0
    7.9557    0.8930  -13.4472 H   0  0  0  0  0  0  0  0  0  0  0  0
    7.9400   -0.6276  -14.3498 H   0  0  0  0  0  0  0  0  0  0  0  0
   10.8921    6.6926  -11.6162 H   0  0  0  0  0  0  0  0  0  0  0  0
    9.6415    7.4187  -12.5834 H   0  0  0  0  0  0  0  0  0  0  0  0
    8.4861    8.2861  -10.6333 H   0  0  0  0  0  0  0  0  0  0  0  0
   10.1428    8.7820  -10.5601 H   0  0  0  0  0  0  0  0  0  0  0  0
    9.6767    9.1630   -8.0084 H   0  0  0  0  0  0  0  0  0  0  0  0
    8.0861    8.5444   -8.1927 H   0  0  0  0  0  0  0  0  0  0  0  0
    8.4977    6.7689   -6.4984 H   0  0  0  0  0  0  0  0  0  0  0  0
    8.8745    8.3271   -5.8471 H   0  0  0  0  0  0  0  0  0  0  0  0
    8.0671    5.9052  -11.7072 H   0  0  0  0  0  0  0  0  0  0  0  0
  2  1  1  0
  3  2  1  0
  4  3  2  0
  5  4  1  0
  6  5  2  0
  7  6  1  0
  8  3  1  0
  8  7  2  0
  9  8  1  0
 10  9  1  0
 11 10  1  0
 12 11  1  0
 13 12  1  0
 14 13  1  0
 15 14  1  0
 16 15  1  0
 17 16  1  0
 18 17  1  0
 19 18  1  0
 20 19  1  0
 21 20  2  0
 22 21  1  0
 23 22  2  0
 24 23  1  0
 25 24  1  0
 26 25  2  0
 27 26  1  0
 28 27  2  0
 29 24  2  0
 29 28  1  0
 30 20  1  0
 30 23  1  0
 31 30  1  0
 32 15  1  0
 33 12  1  0
 33 32  1  0
 34 12  1  0
 35  9  1  0
 35 34  1  0
 36  1  1  0
 37  1  1  0
 38  1  1  0
 39  4  1  0
 40  5  1  0
 41  6  1  0
 42  7  1  0
 43 10  1  0
 44 10  1  0
 45 11  1  0
 46 11  1  0
 47 13  1  0
 48 13  1  0
 49 14  1  0
 50 14  1  0
 51 16  1  0
 52 16  1  0
 53 17  1  0
 54 17  1  0
 55 18  1  0
 56 18  1  0
 57 25  1  0
 58 26  1  0
 59 27  1  0
 60 29  1  0
 61 31  1  0
 62 31  1  0
 63 31  1  0
 64 32  1  0
 65 32  1  0
 66 33  1  0
 67 33  1  0
 68 34  1  0
 69 34  1  0
 70 35  1  0
 71 35  1  0
 72 15  1  0
M  CHG  1  15   1
M  END
>  <b_m_subgroup_collapsed>  (478) 
0

>  <r_i_docking_score>  (478) 
-7.9386264636630104

>  <s_m_subgroup_title>  (478) 
glide-dock_SP_D22_pv

>  <s_m_subgroupid>  (478) 
glide-dock_SP_D22_pv

>  <Molecule ChEMBL ID>  (478) 
CHEMBL4516927

>  <Standard Type>  (478) 
Ki

>  <Standard Value>  (478) 
48584.0

>  <label>  (478) 
0

$$$$
CHEMBL5557169
     RDKit          3D

 59 63  0  0  1  0  0  0  0  0999 V2000
   11.3335    2.1929  -15.4473 C   0  0  0  0  0  0  0  0  0  0  0  0
    9.9972    2.9539  -15.5259 C   0  0  0  0  0  0  0  0  0  0  0  0
   10.1368    4.0937  -16.5629 C   0  0  0  0  0  0  0  0  0  0  0  0
    8.9204    1.9788  -16.1001 C   0  0  0  0  0  0  0  0  0  0  0  0
    9.1748    1.2516  -17.0594 O   0  0  0  0  0  0  0  0  0  0  0  0
    7.7002    1.9768  -15.5454 N   0  0  0  0  0  0  0  0  0  0  0  0
    7.3854    2.7625  -14.4218 C   0  0  0  0  0  0  0  0  0  0  0  0
    6.1032    2.8299  -13.8259 C   0  0  0  0  0  0  0  0  0  0  0  0
    5.8644    3.5976  -12.6573 C   0  0  0  0  0  0  0  0  0  0  0  0
    6.9153    4.2769  -12.0016 C   0  0  0  0  0  0  0  0  0  0  0  0
    8.2003    4.2064  -12.5611 C   0  0  0  0  0  0  0  0  0  0  0  0
    8.3618    3.4941  -13.7407 C   0  0  0  0  0  0  0  0  0  0  0  0
    9.7032    3.4943  -14.1759 N   0  0  0  0  0  0  0  0  0  0  0  0
   10.4807    4.3498  -13.2707 C   0  0  1  0  0  0  0  0  0  0  0  0
   10.8106    5.7241  -13.8816 C   0  0  0  0  0  0  0  0  0  0  0  0
   11.0589    6.8219  -12.8340 C   0  0  0  0  0  0  0  0  0  0  0  0
    9.8711    6.9617  -11.9532 N   0  0  2  0  0  0  0  0  0  0  0  0
    9.7881    8.2376  -11.1891 C   0  0  0  0  0  0  0  0  0  0  0  0
   10.9973    8.5610  -10.2748 C   0  0  0  0  0  0  0  0  0  0  0  0
   10.9316    7.9451   -8.8657 C   0  0  0  0  0  0  0  0  0  0  0  0
   10.8437    8.9736   -7.8849 O   0  0  0  0  0  0  0  0  0  0  0  0
   11.0724    8.6193   -6.5726 C   0  0  0  0  0  0  0  0  0  0  0  0
   11.3831    9.6555   -5.6664 C   0  0  0  0  0  0  0  0  0  0  0  0
   11.6896    9.3667   -4.3218 C   0  0  0  0  0  0  0  0  0  0  0  0
   11.6861    8.0339   -3.8704 C   0  0  0  0  0  0  0  0  0  0  0  0
   12.0046    7.7531   -2.5845 F   0  0  0  0  0  0  0  0  0  0  0  0
   11.3335    6.9960   -4.7524 C   0  0  0  0  0  0  0  0  0  0  0  0
   11.0229    7.2846   -6.0954 C   0  0  0  0  0  0  0  0  0  0  0  0
    9.6729    5.7488  -11.1406 C   0  0  0  0  0  0  0  0  0  0  0  0
    9.5722    4.4817  -12.0180 C   0  0  1  0  0  0  0  0  0  0  0  0
   11.6283    1.7683  -16.4071 H   0  0  0  0  0  0  0  0  0  0  0  0
   11.2844    1.3785  -14.7230 H   0  0  0  0  0  0  0  0  0  0  0  0
   12.1386    2.8585  -15.1385 H   0  0  0  0  0  0  0  0  0  0  0  0
   10.2028    3.7116  -17.5827 H   0  0  0  0  0  0  0  0  0  0  0  0
   11.0415    4.6791  -16.4078 H   0  0  0  0  0  0  0  0  0  0  0  0
    9.2862    4.7749  -16.5282 H   0  0  0  0  0  0  0  0  0  0  0  0
    6.9897    1.3713  -15.9281 H   0  0  0  0  0  0  0  0  0  0  0  0
    5.2874    2.2674  -14.2468 H   0  0  0  0  0  0  0  0  0  0  0  0
    4.8805    3.6167  -12.2230 H   0  0  0  0  0  0  0  0  0  0  0  0
    6.7475    4.7789  -11.0601 H   0  0  0  0  0  0  0  0  0  0  0  0
   11.4194    3.8535  -13.0469 H   0  0  0  0  0  0  0  0  0  0  0  0
   11.6923    5.6409  -14.5175 H   0  0  0  0  0  0  0  0  0  0  0  0
    9.9937    6.0157  -14.5321 H   0  0  0  0  0  0  0  0  0  0  0  0
   11.9431    6.5732  -12.2456 H   0  0  0  0  0  0  0  0  0  0  0  0
   11.2677    7.7659  -13.3404 H   0  0  0  0  0  0  0  0  0  0  0  0
    9.6855    9.0183  -11.9391 H   0  0  0  0  0  0  0  0  0  0  0  0
    8.8637    8.2718  -10.6132 H   0  0  0  0  0  0  0  0  0  0  0  0
   11.9400    8.2981  -10.7538 H   0  0  0  0  0  0  0  0  0  0  0  0
   11.0588    9.6428  -10.1521 H   0  0  0  0  0  0  0  0  0  0  0  0
   10.0797    7.2704   -8.7677 H   0  0  0  0  0  0  0  0  0  0  0  0
   11.8425    7.3689   -8.7012 H   0  0  0  0  0  0  0  0  0  0  0  0
   11.4097   10.6794   -6.0110 H   0  0  0  0  0  0  0  0  0  0  0  0
   11.9393   10.1647   -3.6373 H   0  0  0  0  0  0  0  0  0  0  0  0
   11.3067    5.9752   -4.3984 H   0  0  0  0  0  0  0  0  0  0  0  0
   10.7631    6.4613   -6.7426 H   0  0  0  0  0  0  0  0  0  0  0  0
   10.4859    5.6550  -10.4285 H   0  0  0  0  0  0  0  0  0  0  0  0
    8.7758    5.8544  -10.5300 H   0  0  0  0  0  0  0  0  0  0  0  0
    9.7787    3.6285  -11.3703 H   0  0  0  0  0  0  0  0  0  0  0  0
    9.0685    6.9900  -12.5684 H   0  0  0  0  0  0  0  0  0  0  0  0
  2  1  1  0
  3  2  1  0
  4  2  1  0
  5  4  2  0
  6  4  1  0
  7  6  1  0
  8  7  1  0
  9  8  2  0
 10  9  1  0
 11 10  2  0
 12  7  2  0
 12 11  1  0
 13  2  1  0
 13 12  1  0
 14 13  1  0
 15 14  1  0
 16 15  1  0
 17 16  1  0
 18 17  1  0
 19 18  1  0
 20 19  1  0
 21 20  1  0
 22 21  1  0
 23 22  1  0
 24 23  2  0
 25 24  1  0
 26 25  1  0
 27 25  2  0
 28 22  2  0
 28 27  1  0
 29 17  1  0
 30 11  1  0
 30 14  1  0
 30 29  1  0
 31  1  1  0
 32  1  1  0
 33  1  1  0
 34  3  1  0
 35  3  1  0
 36  3  1  0
 37  6  1  0
 38  8  1  0
 39  9  1  0
 40 10  1  0
 14 41  1  1
 42 15  1  0
 43 15  1  0
 44 16  1  0
 45 16  1  0
 46 18  1  0
 47 18  1  0
 48 19  1  0
 49 19  1  0
 50 20  1  0
 51 20  1  0
 52 23  1  0
 53 24  1  0
 54 27  1  0
 55 28  1  0
 56 29  1  0
 57 29  1  0
 30 58  1  1
 17 59  1  6
M  CHG  1  17   1
M  END
>  <b_m_subgroup_collapsed>  (479) 
0

>  <r_i_docking_score>  (479) 
-7.9372690899898304

>  <s_m_subgroup_title>  (479) 
glide-dock_SP_D22_pv

>  <s_m_subgroupid>  (479) 
glide-dock_SP_D22_pv

>  <Molecule ChEMBL ID>  (479) 
CHEMBL5557169

>  <Standard Type>  (479) 
Ki

>  <Standard Value>  (479) 
53.0

>  <label>  (479) 
1

$$$$
CHEMBL4645292
     RDKit          3D

 70 74  0  0  1  0  0  0  0  0999 V2000
   11.9137   10.6598   -6.1772 C   0  0  0  0  0  0  0  0  0  0  0  0
   11.1089   10.4351   -5.0342 O   0  0  0  0  0  0  0  0  0  0  0  0
   11.4853    9.3412   -4.2988 C   0  0  0  0  0  0  0  0  0  0  0  0
   12.0663    9.5651   -3.0346 C   0  0  0  0  0  0  0  0  0  0  0  0
   12.4817    8.4902   -2.2313 C   0  0  0  0  0  0  0  0  0  0  0  0
   12.2867    7.1729   -2.6783 C   0  0  0  0  0  0  0  0  0  0  0  0
   11.6921    6.9399   -3.9311 C   0  0  0  0  0  0  0  0  0  0  0  0
   11.2862    8.0119   -4.7622 C   0  0  0  0  0  0  0  0  0  0  0  0
   10.6693    7.7519   -6.0060 N   0  0  0  0  0  0  0  0  0  0  0  0
    9.4116    8.4073   -6.3569 C   0  0  0  0  0  0  0  0  0  0  0  0
    9.3294    8.6276   -7.8716 C   0  0  0  0  0  0  0  0  0  0  0  0
    9.5708    7.3713   -8.6249 N   0  0  0  0  0  0  0  0  0  0  0  0
    9.5409    7.6146  -10.0859 C   0  0  0  0  0  0  0  0  0  0  0  0
    9.5586    6.3141  -10.8977 C   0  0  0  0  0  0  0  0  0  0  0  0
    9.4828    6.5808  -12.3961 C   0  0  0  0  0  0  0  0  0  0  0  0
    9.7069    5.3269  -13.2518 C   0  0  0  0  0  0  0  0  0  0  0  0
    8.6882    4.2028  -12.9816 C   0  0  0  0  0  0  0  0  0  0  0  0
    8.1900    3.4998  -14.2535 C   0  0  0  0  0  0  0  0  0  0  0  0
    9.0467    2.4194  -14.7542 N   0  0  0  0  0  0  0  0  0  0  0  0
   10.1759    2.6177  -15.4531 C   0  0  0  0  0  0  0  0  0  0  0  0
   10.7287    3.6953  -15.6638 O   0  0  0  0  0  0  0  0  0  0  0  0
   10.6906    1.3120  -16.0507 C   0  0  2  0  0  0  0  0  0  0  0  0
   10.6014    1.2510  -17.5965 C   0  0  1  0  0  0  0  0  0  0  0  0
   11.1825   -0.0938  -18.0704 C   0  0  0  0  0  0  0  0  0  0  0  0
   10.1022   -1.1006  -17.6211 C   0  0  0  0  0  0  0  0  0  0  0  0
    9.0527   -0.2009  -16.9510 C   0  0  2  0  0  0  0  0  0  0  0  0
    9.1112    1.0293  -17.8564 C   0  0  0  0  0  0  0  0  0  0  0  0
    9.6380    0.2910  -15.6021 C   0  0  2  0  0  0  0  0  0  0  0  0
    8.6699    1.1314  -14.7756 C   0  0  0  0  0  0  0  0  0  0  0  0
    7.6673    0.6535  -14.2470 O   0  0  0  0  0  0  0  0  0  0  0  0
   10.8157    6.6729   -8.1926 C   0  0  0  0  0  0  0  0  0  0  0  0
   10.9014    6.4869   -6.6772 C   0  0  0  0  0  0  0  0  0  0  0  0
   11.5034   11.4694   -6.7696 H   0  0  0  0  0  0  0  0  0  0  0  0
   12.8921   10.9721   -5.8476 H   0  0  0  0  0  0  0  0  0  0  0  0
   12.0343    9.7921   -6.8251 H   0  0  0  0  0  0  0  0  0  0  0  0
   12.1833   10.5734   -2.6668 H   0  0  0  0  0  0  0  0  0  0  0  0
   12.9272    8.6797   -1.2658 H   0  0  0  0  0  0  0  0  0  0  0  0
   12.5813    6.3366   -2.0596 H   0  0  0  0  0  0  0  0  0  0  0  0
   11.5338    5.9140   -4.2285 H   0  0  0  0  0  0  0  0  0  0  0  0
    8.5842    7.7696   -6.0493 H   0  0  0  0  0  0  0  0  0  0  0  0
    9.2737    9.3591   -5.8478 H   0  0  0  0  0  0  0  0  0  0  0  0
    8.3506    9.0330   -8.1299 H   0  0  0  0  0  0  0  0  0  0  0  0
   10.0684    9.3717   -8.1712 H   0  0  0  0  0  0  0  0  0  0  0  0
    8.6523    8.1882  -10.3467 H   0  0  0  0  0  0  0  0  0  0  0  0
   10.3927    8.2365  -10.3669 H   0  0  0  0  0  0  0  0  0  0  0  0
   10.4851    5.7739  -10.7208 H   0  0  0  0  0  0  0  0  0  0  0  0
    8.7399    5.6664  -10.5821 H   0  0  0  0  0  0  0  0  0  0  0  0
    8.5194    7.0309  -12.6475 H   0  0  0  0  0  0  0  0  0  0  0  0
   10.2438    7.3196  -12.6468 H   0  0  0  0  0  0  0  0  0  0  0  0
    9.6520    5.6438  -14.2926 H   0  0  0  0  0  0  0  0  0  0  0  0
   10.7194    4.9487  -13.1104 H   0  0  0  0  0  0  0  0  0  0  0  0
    9.0917    3.4841  -12.2680 H   0  0  0  0  0  0  0  0  0  0  0  0
    7.8098    4.6375  -12.5039 H   0  0  0  0  0  0  0  0  0  0  0  0
    7.1803    3.1291  -14.0710 H   0  0  0  0  0  0  0  0  0  0  0  0
    8.0862    4.2355  -15.0462 H   0  0  0  0  0  0  0  0  0  0  0  0
   11.6863    1.0913  -15.6734 H   0  0  0  0  0  0  0  0  0  0  0  0
   11.0318    2.1151  -18.1012 H   0  0  0  0  0  0  0  0  0  0  0  0
   12.1620   -0.2962  -17.6337 H   0  0  0  0  0  0  0  0  0  0  0  0
   11.2938   -0.1092  -19.1553 H   0  0  0  0  0  0  0  0  0  0  0  0
   10.4860   -1.8303  -16.9161 H   0  0  0  0  0  0  0  0  0  0  0  0
    9.6826   -1.6355  -18.4748 H   0  0  0  0  0  0  0  0  0  0  0  0
    8.0642   -0.6532  -16.8655 H   0  0  0  0  0  0  0  0  0  0  0  0
    8.8836    0.8071  -18.9000 H   0  0  0  0  0  0  0  0  0  0  0  0
    8.4685    1.8491  -17.5344 H   0  0  0  0  0  0  0  0  0  0  0  0
   10.0560   -0.5140  -14.9959 H   0  0  0  0  0  0  0  0  0  0  0  0
   10.8833    5.6839   -8.6412 H   0  0  0  0  0  0  0  0  0  0  0  0
   11.6821    7.2431   -8.5327 H   0  0  0  0  0  0  0  0  0  0  0  0
   11.8787    6.0739   -6.4251 H   0  0  0  0  0  0  0  0  0  0  0  0
   10.1484    5.7727   -6.3489 H   0  0  0  0  0  0  0  0  0  0  0  0
    8.7849    6.7712   -8.4094 H   0  0  0  0  0  0  0  0  0  0  0  0
  2  1  1  0
  3  2  1  0
  4  3  2  0
  5  4  1  0
  6  5  2  0
  7  6  1  0
  8  3  1  0
  8  7  2  0
  9  8  1  0
 10  9  1  0
 11 10  1  0
 12 11  1  0
 13 12  1  0
 14 13  1  0
 15 14  1  0
 16 15  1  0
 17 16  1  0
 18 17  1  0
 19 18  1  0
 20 19  1  0
 21 20  2  0
 22 20  1  0
 23 22  1  0
 24 23  1  0
 25 24  1  0
 26 25  1  0
 27 23  1  0
 27 26  1  0
 28 22  1  0
 28 26  1  0
 29 19  1  0
 29 28  1  0
 30 29  2  0
 31 12  1  0
 32  9  1  0
 32 31  1  0
 33  1  1  0
 34  1  1  0
 35  1  1  0
 36  4  1  0
 37  5  1  0
 38  6  1  0
 39  7  1  0
 40 10  1  0
 41 10  1  0
 42 11  1  0
 43 11  1  0
 44 13  1  0
 45 13  1  0
 46 14  1  0
 47 14  1  0
 48 15  1  0
 49 15  1  0
 50 16  1  0
 51 16  1  0
 52 17  1  0
 53 17  1  0
 54 18  1  0
 55 18  1  0
 22 56  1  6
 23 57  1  6
 58 24  1  0
 59 24  1  0
 60 25  1  0
 61 25  1  0
 26 62  1  1
 63 27  1  0
 64 27  1  0
 28 65  1  1
 66 31  1  0
 67 31  1  0
 68 32  1  0
 69 32  1  0
 70 12  1  0
M  CHG  1  12   1
M  END
>  <b_m_subgroup_collapsed>  (480) 
0

>  <r_i_docking_score>  (480) 
-7.93605804906543

>  <s_m_subgroup_title>  (480) 
glide-dock_SP_D22_pv

>  <s_m_subgroupid>  (480) 
glide-dock_SP_D22_pv

>  <Molecule ChEMBL ID>  (480) 
CHEMBL4645292

>  <Standard Type>  (480) 
Ki

>  <Standard Value>  (480) 
41.0

>  <label>  (480) 
1

$$$$
CHEMBL372453
     RDKit          3D

 62 65  0  0  1  0  0  0  0  0999 V2000
    6.2041    0.7154  -14.3283 C   0  0  0  0  0  0  0  0  0  0  0  0
    7.0206    1.7079  -14.9387 O   0  0  0  0  0  0  0  0  0  0  0  0
    7.3210    2.8144  -14.1737 C   0  0  0  0  0  0  0  0  0  0  0  0
    6.3646    3.4133  -13.3193 C   0  0  0  0  0  0  0  0  0  0  0  0
    6.7044    4.5322  -12.5348 C   0  0  0  0  0  0  0  0  0  0  0  0
    8.0035    5.0745  -12.5844 C   0  0  0  0  0  0  0  0  0  0  0  0
    8.2839    6.1723  -11.7218 N   0  0  0  0  0  0  0  0  0  0  0  0
    9.4576    6.7809  -11.4616 C   0  0  0  0  0  0  0  0  0  0  0  0
   10.4056    6.8170  -12.2471 O   0  0  0  0  0  0  0  0  0  0  0  0
    9.4554    7.4768  -10.3042 N   0  0  0  0  0  0  0  0  0  0  0  0
   10.4585    8.5090  -10.0182 C   0  0  0  0  0  0  0  0  0  0  0  0
   11.6164    7.8737   -9.2260 C   0  0  0  0  0  0  0  0  0  0  0  0
   11.1124    7.1578   -8.0508 N   0  0  0  0  0  0  0  0  0  0  0  0
   11.2436    7.7132   -6.7679 C   0  0  0  0  0  0  0  0  0  0  0  0
   11.3613    9.1072   -6.5642 C   0  0  0  0  0  0  0  0  0  0  0  0
   11.5945    9.6187   -5.2746 C   0  0  0  0  0  0  0  0  0  0  0  0
   11.7363    8.7402   -4.1847 C   0  0  0  0  0  0  0  0  0  0  0  0
   12.0859    9.3497   -2.6172 Cl  0  0  0  0  0  0  0  0  0  0  0  0
   11.5965    7.3548   -4.3716 C   0  0  0  0  0  0  0  0  0  0  0  0
   11.3095    6.8514   -5.6513 C   0  0  0  0  0  0  0  0  0  0  0  0
   10.0021    6.2326   -8.2692 C   0  0  0  0  0  0  0  0  0  0  0  0
    8.8896    6.9399   -9.0560 C   0  0  0  0  0  0  0  0  0  0  0  0
    8.9534    4.4908  -13.4556 C   0  0  0  0  0  0  0  0  0  0  0  0
    8.6245    3.3683  -14.2510 C   0  0  0  0  0  0  0  0  0  0  0  0
    9.5852    2.7835  -15.0997 N   0  0  0  0  0  0  0  0  0  0  0  0
   10.0383    1.4442  -14.7451 C   0  0  0  0  0  0  0  0  0  0  0  0
   10.6072    0.7405  -15.9877 C   0  0  0  0  0  0  0  0  0  0  0  0
   11.6572    1.5624  -16.6469 N   0  0  0  0  0  0  0  0  0  0  0  0
   12.2242    0.8950  -17.8396 C   0  0  0  0  0  0  0  0  0  0  0  0
   11.2021    2.9470  -16.9443 C   0  0  0  0  0  0  0  0  0  0  0  0
   10.6053    3.6334  -15.7025 C   0  0  0  0  0  0  0  0  0  0  0  0
    6.3230   -0.2239  -14.8687 H   0  0  0  0  0  0  0  0  0  0  0  0
    6.4946    0.5343  -13.2921 H   0  0  0  0  0  0  0  0  0  0  0  0
    5.1466    0.9727  -14.3557 H   0  0  0  0  0  0  0  0  0  0  0  0
    5.3612    3.0208  -13.2549 H   0  0  0  0  0  0  0  0  0  0  0  0
    5.9636    4.9636  -11.8756 H   0  0  0  0  0  0  0  0  0  0  0  0
    7.5320    6.4449  -11.0935 H   0  0  0  0  0  0  0  0  0  0  0  0
    9.9938    9.3116   -9.4439 H   0  0  0  0  0  0  0  0  0  0  0  0
   10.8342    8.9708  -10.9319 H   0  0  0  0  0  0  0  0  0  0  0  0
   12.3643    8.6206   -8.9582 H   0  0  0  0  0  0  0  0  0  0  0  0
   12.1306    7.1549   -9.8639 H   0  0  0  0  0  0  0  0  0  0  0  0
   11.2835    9.7962   -7.3911 H   0  0  0  0  0  0  0  0  0  0  0  0
   11.6842   10.6834   -5.1306 H   0  0  0  0  0  0  0  0  0  0  0  0
   11.6962    6.6782   -3.5354 H   0  0  0  0  0  0  0  0  0  0  0  0
   11.2317    5.7832   -5.7811 H   0  0  0  0  0  0  0  0  0  0  0  0
   10.3659    5.3662   -8.8223 H   0  0  0  0  0  0  0  0  0  0  0  0
    9.5923    5.8542   -7.3325 H   0  0  0  0  0  0  0  0  0  0  0  0
    8.4860    7.7601   -8.4620 H   0  0  0  0  0  0  0  0  0  0  0  0
    8.0682    6.2424   -9.2156 H   0  0  0  0  0  0  0  0  0  0  0  0
    9.9567    4.8777  -13.5048 H   0  0  0  0  0  0  0  0  0  0  0  0
   10.8074    1.5271  -13.9757 H   0  0  0  0  0  0  0  0  0  0  0  0
    9.2361    0.8468  -14.3122 H   0  0  0  0  0  0  0  0  0  0  0  0
   11.0157   -0.2285  -15.7016 H   0  0  0  0  0  0  0  0  0  0  0  0
    9.8009    0.5460  -16.6962 H   0  0  0  0  0  0  0  0  0  0  0  0
   11.4858    0.8295  -18.6395 H   0  0  0  0  0  0  0  0  0  0  0  0
   13.0883    1.4442  -18.2145 H   0  0  0  0  0  0  0  0  0  0  0  0
   12.5491   -0.1175  -17.6011 H   0  0  0  0  0  0  0  0  0  0  0  0
   12.0354    3.5368  -17.3285 H   0  0  0  0  0  0  0  0  0  0  0  0
   10.4484    2.9134  -17.7328 H   0  0  0  0  0  0  0  0  0  0  0  0
   10.1772    4.5973  -15.9824 H   0  0  0  0  0  0  0  0  0  0  0  0
   11.3912    3.8288  -14.9711 H   0  0  0  0  0  0  0  0  0  0  0  0
   12.4066    1.6455  -15.9733 H   0  0  0  0  0  0  0  0  0  0  0  0
  2  1  1  0
  3  2  1  0
  4  3  1  0
  5  4  2  0
  6  5  1  0
  7  6  1  0
  8  7  1  0
  9  8  2  0
 10  8  1  0
 11 10  1  0
 12 11  1  0
 13 12  1  0
 14 13  1  0
 15 14  1  0
 16 15  2  0
 17 16  1  0
 18 17  1  0
 19 17  2  0
 20 14  2  0
 20 19  1  0
 21 13  1  0
 22 10  1  0
 22 21  1  0
 23  6  2  0
 24  3  2  0
 24 23  1  0
 25 24  1  0
 26 25  1  0
 27 26  1  0
 28 27  1  0
 29 28  1  0
 30 28  1  0
 31 25  1  0
 31 30  1  0
 32  1  1  0
 33  1  1  0
 34  1  1  0
 35  4  1  0
 36  5  1  0
 37  7  1  0
 38 11  1  0
 39 11  1  0
 40 12  1  0
 41 12  1  0
 42 15  1  0
 43 16  1  0
 44 19  1  0
 45 20  1  0
 46 21  1  0
 47 21  1  0
 48 22  1  0
 49 22  1  0
 50 23  1  0
 51 26  1  0
 52 26  1  0
 53 27  1  0
 54 27  1  0
 55 29  1  0
 56 29  1  0
 57 29  1  0
 58 30  1  0
 59 30  1  0
 60 31  1  0
 61 31  1  0
 62 28  1  0
M  CHG  1  28   1
M  END
>  <b_m_subgroup_collapsed>  (481) 
0

>  <r_i_docking_score>  (481) 
-7.9359332629573602

>  <s_m_subgroup_title>  (481) 
glide-dock_SP_D22_pv

>  <s_m_subgroupid>  (481) 
glide-dock_SP_D22_pv

>  <Molecule ChEMBL ID>  (481) 
CHEMBL372453

>  <Standard Type>  (481) 
Ki

>  <Standard Value>  (481) 
10000.0

>  <label>  (481) 
0

$$$$
CHEMBL5817080
     RDKit          3D

 54 55  0  0  1  0  0  0  0  0999 V2000
    7.4795    0.7829  -15.8526 C   0  0  0  0  0  0  0  0  0  0  0  0
    8.4911    1.7772  -15.8632 O   0  0  0  0  0  0  0  0  0  0  0  0
    8.3969    2.6776  -14.7677 C   0  0  0  0  0  0  0  0  0  0  0  0
    9.6353    3.6108  -14.7177 C   0  0  0  0  0  0  0  0  0  0  0  0
   10.9060    2.7428  -14.5620 C   0  0  0  0  0  0  0  0  0  0  0  0
    9.7399    4.4326  -16.0171 C   0  0  0  0  0  0  0  0  0  0  0  0
    9.5692    4.6158  -13.5391 C   0  0  0  0  0  0  0  0  0  0  0  0
   10.6046    5.1471  -13.1364 O   0  0  0  0  0  0  0  0  0  0  0  0
    8.3757    4.9118  -12.9862 N   0  0  0  0  0  0  0  0  0  0  0  0
    8.2248    5.8866  -11.9059 C   0  0  0  0  0  0  0  0  0  0  0  0
    8.5518    5.2504  -10.5396 C   0  0  0  0  0  0  0  0  0  0  0  0
    8.8491    6.2510   -9.4808 N   0  0  2  0  0  0  0  0  0  0  0  0
   10.1603    6.9260   -9.7118 C   0  0  0  0  0  0  0  0  0  0  0  0
   10.7659    7.5680   -8.4753 C   0  0  0  0  0  0  0  0  0  0  0  0
   10.2745    7.4403   -7.2301 C   0  0  0  0  0  0  0  0  0  0  0  0
   10.8668    8.1840   -6.1129 C   0  0  0  0  0  0  0  0  0  0  0  0
   10.8857    9.5846   -6.1796 C   0  0  0  0  0  0  0  0  0  0  0  0
   11.2855   10.2951   -5.0444 C   0  0  0  0  0  0  0  0  0  0  0  0
   11.6869    9.5892   -3.8994 C   0  0  0  0  0  0  0  0  0  0  0  0
   11.6860    8.1797   -3.9363 C   0  0  0  0  0  0  0  0  0  0  0  0
   12.0088    7.3720   -2.6850 C   0  0  0  0  0  0  0  0  0  0  0  0
   10.9374    6.7497   -2.1976 F   0  0  0  0  0  0  0  0  0  0  0  0
   12.8861    6.4336   -2.9758 F   0  0  0  0  0  0  0  0  0  0  0  0
   12.5116    8.1628   -1.7352 F   0  0  0  0  0  0  0  0  0  0  0  0
   11.2771    7.4871   -5.0278 N   0  0  0  0  0  0  0  0  0  0  0  0
    8.9812    6.6821   -7.0166 C   0  0  0  0  0  0  0  0  0  0  0  0
    8.7237    5.6543   -8.1255 C   0  0  0  0  0  0  0  0  0  0  0  0
    7.6129    0.1153  -16.7038 H   0  0  0  0  0  0  0  0  0  0  0  0
    7.5295    0.1767  -14.9459 H   0  0  0  0  0  0  0  0  0  0  0  0
    6.4857    1.2253  -15.9237 H   0  0  0  0  0  0  0  0  0  0  0  0
    8.3308    2.1024  -13.8442 H   0  0  0  0  0  0  0  0  0  0  0  0
    7.4703    3.2444  -14.8596 H   0  0  0  0  0  0  0  0  0  0  0  0
   11.0085    2.0304  -15.3799 H   0  0  0  0  0  0  0  0  0  0  0  0
   11.8159    3.3431  -14.5552 H   0  0  0  0  0  0  0  0  0  0  0  0
   10.8866    2.1716  -13.6340 H   0  0  0  0  0  0  0  0  0  0  0  0
    9.7838    3.7889  -16.8955 H   0  0  0  0  0  0  0  0  0  0  0  0
    8.8871    5.1006  -16.1369 H   0  0  0  0  0  0  0  0  0  0  0  0
   10.6389    5.0530  -16.0253 H   0  0  0  0  0  0  0  0  0  0  0  0
    7.5438    4.4651  -13.3380 H   0  0  0  0  0  0  0  0  0  0  0  0
    7.1974    6.2514  -11.9010 H   0  0  0  0  0  0  0  0  0  0  0  0
    8.8491    6.7537  -12.1159 H   0  0  0  0  0  0  0  0  0  0  0  0
    9.3934    4.5590  -10.6131 H   0  0  0  0  0  0  0  0  0  0  0  0
    7.6882    4.6476  -10.2471 H   0  0  0  0  0  0  0  0  0  0  0  0
   10.0432    7.6960  -10.4731 H   0  0  0  0  0  0  0  0  0  0  0  0
   10.8862    6.2103  -10.0898 H   0  0  0  0  0  0  0  0  0  0  0  0
   11.6599    8.1544   -8.6384 H   0  0  0  0  0  0  0  0  0  0  0  0
   10.5368   10.1160   -7.0472 H   0  0  0  0  0  0  0  0  0  0  0  0
   11.2696   11.3736   -5.0470 H   0  0  0  0  0  0  0  0  0  0  0  0
   11.9781   10.1315   -3.0114 H   0  0  0  0  0  0  0  0  0  0  0  0
    9.0287    6.1719   -6.0557 H   0  0  0  0  0  0  0  0  0  0  0  0
    8.1627    7.4012   -6.9475 H   0  0  0  0  0  0  0  0  0  0  0  0
    9.4329    4.8303   -8.0394 H   0  0  0  0  0  0  0  0  0  0  0  0
    7.7257    5.2367   -7.9940 H   0  0  0  0  0  0  0  0  0  0  0  0
    8.1225    6.9616   -9.5372 H   0  0  0  0  0  0  0  0  0  0  0  0
  2  1  1  0
  3  2  1  0
  4  3  1  0
  5  4  1  0
  6  4  1  0
  7  4  1  0
  8  7  2  0
  9  7  1  0
 10  9  1  0
 11 10  1  0
 12 11  1  0
 13 12  1  0
 14 13  1  0
 15 14  2  0
 16 15  1  0
 17 16  1  0
 18 17  2  0
 19 18  1  0
 20 19  2  0
 21 20  1  0
 22 21  1  0
 23 21  1  0
 24 21  1  0
 25 16  2  0
 25 20  1  0
 26 15  1  0
 27 12  1  0
 27 26  1  0
 28  1  1  0
 29  1  1  0
 30  1  1  0
 31  3  1  0
 32  3  1  0
 33  5  1  0
 34  5  1  0
 35  5  1  0
 36  6  1  0
 37  6  1  0
 38  6  1  0
 39  9  1  0
 40 10  1  0
 41 10  1  0
 42 11  1  0
 43 11  1  0
 44 13  1  0
 45 13  1  0
 46 14  1  0
 47 17  1  0
 48 18  1  0
 49 19  1  0
 50 26  1  0
 51 26  1  0
 52 27  1  0
 53 27  1  0
 12 54  1  1
M  CHG  1  12   1
M  END
>  <b_m_subgroup_collapsed>  (482) 
0

>  <r_i_docking_score>  (482) 
-7.9341064395097698

>  <s_m_subgroup_title>  (482) 
glide-dock_SP_D22_pv

>  <s_m_subgroupid>  (482) 
glide-dock_SP_D22_pv

>  <Molecule ChEMBL ID>  (482) 
CHEMBL5817080

>  <Standard Type>  (482) 
Ki

>  <Standard Value>  (482) 
21.0

>  <label>  (482) 
1

$$$$
CHEMBL3780812
     RDKit          3D

 50 51  0  0  1  0  0  0  0  0999 V2000
    9.8685    3.9816   -9.0819 C   0  0  0  0  0  0  0  0  0  0  0  0
    8.5269    4.6958   -8.8550 C   0  0  0  0  0  0  0  0  0  0  0  0
    8.5298    6.1726   -9.0833 N   0  0  1  0  0  0  0  0  0  0  0  0
    8.8838    6.9818   -7.8776 C   0  0  0  0  0  0  0  0  0  0  0  0
   10.3332    6.7867   -7.3653 C   0  0  0  0  0  0  0  0  0  0  0  0
   10.7337    7.6897   -6.2154 C   0  0  0  0  0  0  0  0  0  0  0  0
   10.6031    9.0861   -6.3443 C   0  0  0  0  0  0  0  0  0  0  0  0
   10.9765    9.9277   -5.2842 C   0  0  0  0  0  0  0  0  0  0  0  0
   11.4991    9.3721   -4.1032 C   0  0  0  0  0  0  0  0  0  0  0  0
   11.7966   10.1723   -3.0467 O   0  0  0  0  0  0  0  0  0  0  0  0
   11.6861    7.9842   -3.9686 C   0  0  0  0  0  0  0  0  0  0  0  0
   12.2317    7.5530   -2.7762 O   0  0  0  0  0  0  0  0  0  0  0  0
   12.2078    6.1723   -2.4739 C   0  0  0  0  0  0  0  0  0  0  0  0
   11.2861    7.1396   -5.0338 C   0  0  0  0  0  0  0  0  0  0  0  0
    9.1628    6.6885  -10.3348 C   0  0  0  0  0  0  0  0  0  0  0  0
    8.8504    5.9313  -11.6279 C   0  0  0  0  0  0  0  0  0  0  0  0
    7.5710    5.3719  -11.8373 C   0  0  0  0  0  0  0  0  0  0  0  0
    7.3186    4.5713  -12.9595 C   0  0  0  0  0  0  0  0  0  0  0  0
    8.3427    4.3437  -13.8906 C   0  0  0  0  0  0  0  0  0  0  0  0
    9.5961    4.9716  -13.7522 C   0  0  0  0  0  0  0  0  0  0  0  0
   10.5169    4.7220  -14.7291 O   0  0  0  0  0  0  0  0  0  0  0  0
    9.8519    5.8135  -12.6277 C   0  0  0  0  0  0  0  0  0  0  0  0
   10.9924    6.5723  -12.4136 O   0  0  0  0  0  0  0  0  0  0  0  0
   12.0394    6.6248  -13.3704 C   0  0  0  0  0  0  0  0  0  0  0  0
    9.8382    2.9813   -8.6471 H   0  0  0  0  0  0  0  0  0  0  0  0
   10.0843    3.8666  -10.1444 H   0  0  0  0  0  0  0  0  0  0  0  0
   10.7166    4.4949   -8.6472 H   0  0  0  0  0  0  0  0  0  0  0  0
    8.1678    4.5005   -7.8469 H   0  0  0  0  0  0  0  0  0  0  0  0
    7.7952    4.2183   -9.5036 H   0  0  0  0  0  0  0  0  0  0  0  0
    8.1820    6.7435   -7.0758 H   0  0  0  0  0  0  0  0  0  0  0  0
    8.7021    8.0292   -8.1200 H   0  0  0  0  0  0  0  0  0  0  0  0
   11.0653    6.9316   -8.1587 H   0  0  0  0  0  0  0  0  0  0  0  0
   10.4458    5.7719   -7.0020 H   0  0  0  0  0  0  0  0  0  0  0  0
   10.2093    9.5204   -7.2508 H   0  0  0  0  0  0  0  0  0  0  0  0
   10.8506   10.9954   -5.3777 H   0  0  0  0  0  0  0  0  0  0  0  0
   11.5885   11.0899   -3.1536 H   0  0  0  0  0  0  0  0  0  0  0  0
   12.5423    6.0200   -1.4481 H   0  0  0  0  0  0  0  0  0  0  0  0
   11.1997    5.7724   -2.5582 H   0  0  0  0  0  0  0  0  0  0  0  0
   12.8858    5.6137   -3.1114 H   0  0  0  0  0  0  0  0  0  0  0  0
   11.4049    6.0698   -4.9554 H   0  0  0  0  0  0  0  0  0  0  0  0
    8.8858    7.7333  -10.4795 H   0  0  0  0  0  0  0  0  0  0  0  0
   10.2399    6.6792  -10.1788 H   0  0  0  0  0  0  0  0  0  0  0  0
    6.7804    5.5307  -11.1185 H   0  0  0  0  0  0  0  0  0  0  0  0
    6.3478    4.1167  -13.0951 H   0  0  0  0  0  0  0  0  0  0  0  0
    8.1468    3.7007  -14.7351 H   0  0  0  0  0  0  0  0  0  0  0  0
   10.2129    4.1236  -15.3932 H   0  0  0  0  0  0  0  0  0  0  0  0
   12.7998    7.3260  -13.0268 H   0  0  0  0  0  0  0  0  0  0  0  0
   12.5228    5.6543  -13.4840 H   0  0  0  0  0  0  0  0  0  0  0  0
   11.6854    6.9805  -14.3381 H   0  0  0  0  0  0  0  0  0  0  0  0
    7.5520    6.4200   -9.2204 H   0  0  0  0  0  0  0  0  0  0  0  0
  2  1  1  0
  3  2  1  0
  4  3  1  0
  5  4  1  0
  6  5  1  0
  7  6  1  0
  8  7  2  0
  9  8  1  0
 10  9  1  0
 11  9  2  0
 12 11  1  0
 13 12  1  0
 14  6  2  0
 14 11  1  0
 15  3  1  0
 16 15  1  0
 17 16  2  0
 18 17  1  0
 19 18  2  0
 20 19  1  0
 21 20  1  0
 22 16  1  0
 22 20  2  0
 23 22  1  0
 24 23  1  0
 25  1  1  0
 26  1  1  0
 27  1  1  0
 28  2  1  0
 29  2  1  0
 30  4  1  0
 31  4  1  0
 32  5  1  0
 33  5  1  0
 34  7  1  0
 35  8  1  0
 36 10  1  0
 37 13  1  0
 38 13  1  0
 39 13  1  0
 40 14  1  0
 41 15  1  0
 42 15  1  0
 43 17  1  0
 44 18  1  0
 45 19  1  0
 46 21  1  0
 47 24  1  0
 48 24  1  0
 49 24  1  0
  3 50  1  6
M  CHG  1   3   1
M  END
>  <b_m_subgroup_collapsed>  (483) 
0

>  <r_i_docking_score>  (483) 
-7.9288295423715196

>  <s_m_subgroup_title>  (483) 
glide-dock_SP_D22_pv

>  <s_m_subgroupid>  (483) 
glide-dock_SP_D22_pv

>  <Molecule ChEMBL ID>  (483) 
CHEMBL3780812

>  <Standard Type>  (483) 
Ki

>  <Standard Value>  (483) 
10000.0

>  <label>  (483) 
0

$$$$
CHEMBL4788140
     RDKit          3D

 69 74  0  0  1  0  0  0  0  0999 V2000
   11.8529    7.8969  -10.3759 C   0  0  0  0  0  0  0  0  0  0  0  0
   10.6144    8.4006   -9.6233 C   0  0  1  0  0  0  0  0  0  0  0  0
    9.2722    8.0800  -10.3282 C   0  0  0  0  0  0  0  0  0  0  0  0
    8.8866    6.6470  -10.5265 N   0  0  1  0  0  0  0  0  0  0  0  0
    9.1771    6.1053  -11.8834 C   0  0  0  0  0  0  0  0  0  0  0  0
    8.2305    4.9431  -12.2687 C   0  0  0  0  0  0  0  0  0  0  0  0
    8.5866    4.2247  -13.5853 C   0  0  1  0  0  0  0  0  0  0  0  0
    9.8382    3.3244  -13.4558 C   0  0  0  0  0  0  0  0  0  0  0  0
   10.1507    2.5308  -14.7420 C   0  0  0  0  0  0  0  0  0  0  0  0
    8.9374    1.6939  -15.2252 C   0  0  2  0  0  0  0  0  0  0  0  0
    9.2424    0.9746  -16.4889 N   0  0  0  0  0  0  0  0  0  0  0  0
    8.8689    1.2729  -17.7575 C   0  0  0  0  0  0  0  0  0  0  0  0
    8.1184    2.1721  -18.1407 O   0  0  0  0  0  0  0  0  0  0  0  0
    9.5201    0.3288  -18.7646 C   0  0  2  0  0  0  0  0  0  0  0  0
   10.3609   -0.6089  -17.8741 C   0  0  2  0  0  0  0  0  0  0  0  0
   10.0480   -0.0962  -16.4669 C   0  0  0  0  0  0  0  0  0  0  0  0
   10.4859   -0.6262  -15.4505 O   0  0  0  0  0  0  0  0  0  0  0  0
   11.8059   -0.3767  -18.4131 C   0  0  2  0  0  0  0  0  0  0  0  0
   12.2571    1.0496  -18.1453 C   0  0  0  0  0  0  0  0  0  0  0  0
   11.5303    1.8549  -18.9217 C   0  0  0  0  0  0  0  0  0  0  0  0
   10.5757    0.9781  -19.7112 C   0  0  1  0  0  0  0  0  0  0  0  0
   11.4807   -0.2405  -19.9091 C   0  0  0  0  0  0  0  0  0  0  0  0
    7.7392    2.6286  -15.3489 C   0  0  0  0  0  0  0  0  0  0  0  0
    7.3917    3.3775  -14.0634 C   0  0  0  0  0  0  0  0  0  0  0  0
    9.3115    5.7099   -9.4579 C   0  0  0  0  0  0  0  0  0  0  0  0
    8.9720    6.2184   -8.0729 C   0  0  0  0  0  0  0  0  0  0  0  0
    9.9786    7.1239   -7.4245 C   0  0  0  0  0  0  0  0  0  0  0  0
   10.1263    6.9684   -6.0340 C   0  0  0  0  0  0  0  0  0  0  0  0
   10.9945    7.7794   -5.3047 C   0  0  0  0  0  0  0  0  0  0  0  0
   11.6857    8.7948   -5.9626 C   0  0  0  0  0  0  0  0  0  0  0  0
   12.7472    9.7723   -5.0465 Cl  0  0  0  0  0  0  0  0  0  0  0  0
   11.5401    8.9719   -7.3499 C   0  0  0  0  0  0  0  0  0  0  0  0
   10.6972    8.1350   -8.1130 C   0  0  0  0  0  0  0  0  0  0  0  0
   12.7582    8.3789  -10.0053 H   0  0  0  0  0  0  0  0  0  0  0  0
   11.9839    6.8292  -10.2469 H   0  0  0  0  0  0  0  0  0  0  0  0
   11.7857    8.1065  -11.4431 H   0  0  0  0  0  0  0  0  0  0  0  0
   10.6754    9.4876   -9.6985 H   0  0  0  0  0  0  0  0  0  0  0  0
    9.2370    8.5995  -11.2860 H   0  0  0  0  0  0  0  0  0  0  0  0
    8.4869    8.5538   -9.7401 H   0  0  0  0  0  0  0  0  0  0  0  0
   10.2215    5.7971  -11.9295 H   0  0  0  0  0  0  0  0  0  0  0  0
    9.0570    6.8877  -12.6332 H   0  0  0  0  0  0  0  0  0  0  0  0
    7.2208    5.3509  -12.3415 H   0  0  0  0  0  0  0  0  0  0  0  0
    8.1789    4.1787  -11.4954 H   0  0  0  0  0  0  0  0  0  0  0  0
    8.7832    4.9821  -14.3462 H   0  0  0  0  0  0  0  0  0  0  0  0
   10.7099    3.9179  -13.1816 H   0  0  0  0  0  0  0  0  0  0  0  0
    9.6861    2.6139  -12.6459 H   0  0  0  0  0  0  0  0  0  0  0  0
   11.0110    1.8865  -14.5562 H   0  0  0  0  0  0  0  0  0  0  0  0
   10.4560    3.2231  -15.5280 H   0  0  0  0  0  0  0  0  0  0  0  0
    8.6933    0.9553  -14.4583 H   0  0  0  0  0  0  0  0  0  0  0  0
    8.7599   -0.2241  -19.3186 H   0  0  0  0  0  0  0  0  0  0  0  0
   10.0508   -1.6497  -17.9813 H   0  0  0  0  0  0  0  0  0  0  0  0
   12.5415   -1.1451  -18.1776 H   0  0  0  0  0  0  0  0  0  0  0  0
   13.0047    1.3355  -17.4205 H   0  0  0  0  0  0  0  0  0  0  0  0
   11.5571    2.9344  -18.9661 H   0  0  0  0  0  0  0  0  0  0  0  0
   10.1930    1.4199  -20.6314 H   0  0  0  0  0  0  0  0  0  0  0  0
   12.3602   -0.0276  -20.5209 H   0  0  0  0  0  0  0  0  0  0  0  0
   10.9529   -1.0902  -20.3413 H   0  0  0  0  0  0  0  0  0  0  0  0
    8.0860    3.3721  -16.0555 H   0  0  0  0  0  0  0  0  0  0  0  0
    6.8618    2.1206  -15.7514 H   0  0  0  0  0  0  0  0  0  0  0  0
    6.5341    4.0256  -14.2470 H   0  0  0  0  0  0  0  0  0  0  0  0
    7.0689    2.6685  -13.3044 H   0  0  0  0  0  0  0  0  0  0  0  0
    8.7645    4.7769   -9.5763 H   0  0  0  0  0  0  0  0  0  0  0  0
   10.3662    5.4461   -9.5254 H   0  0  0  0  0  0  0  0  0  0  0  0
    8.0860    6.8175   -8.1068 H   0  0  0  0  0  0  0  0  0  0  0  0
    8.7524    5.3737   -7.4276 H   0  0  0  0  0  0  0  0  0  0  0  0
    9.5698    6.2072   -5.5069 H   0  0  0  0  0  0  0  0  0  0  0  0
   11.1206    7.6290   -4.2437 H   0  0  0  0  0  0  0  0  0  0  0  0
   12.0856    9.7589   -7.8332 H   0  0  0  0  0  0  0  0  0  0  0  0
    7.8706    6.7164  -10.4671 H   0  0  0  0  0  0  0  0  0  0  0  0
  2  1  1  0
  3  2  1  0
  4  3  1  0
  5  4  1  0
  6  5  1  0
  7  6  1  0
  8  7  1  0
  9  8  1  0
 10  9  1  0
 11 10  1  0
 12 11  1  0
 13 12  2  0
 14 12  1  0
 15 14  1  0
 16 11  1  0
 16 15  1  0
 17 16  2  0
 18 15  1  0
 19 18  1  0
 20 19  2  0
 21 14  1  0
 21 20  1  0
 22 18  1  0
 22 21  1  0
 23 10  1  0
 24  7  1  0
 24 23  1  0
 25  4  1  0
 26 25  1  0
 27 26  1  0
 28 27  1  0
 29 28  2  0
 30 29  1  0
 31 30  1  0
 32 30  2  0
 33  2  1  0
 33 27  2  0
 33 32  1  0
 34  1  1  0
 35  1  1  0
 36  1  1  0
  2 37  1  1
 38  3  1  0
 39  3  1  0
 40  5  1  0
 41  5  1  0
 42  6  1  0
 43  6  1  0
  7 44  1  6
 45  8  1  0
 46  8  1  0
 47  9  1  0
 48  9  1  0
 10 49  1  1
 14 50  1  6
 15 51  1  1
 18 52  1  6
 53 19  1  0
 54 20  1  0
 21 55  1  6
 56 22  1  0
 57 22  1  0
 58 23  1  0
 59 23  1  0
 60 24  1  0
 61 24  1  0
 62 25  1  0
 63 25  1  0
 64 26  1  0
 65 26  1  0
 66 28  1  0
 67 29  1  0
 68 32  1  0
  4 69  1  6
M  CHG  1   4   1
M  END
>  <b_m_subgroup_collapsed>  (484) 
0

>  <r_i_docking_score>  (484) 
-7.9270130752257604

>  <s_m_subgroup_title>  (484) 
glide-dock_SP_D22_pv

>  <s_m_subgroupid>  (484) 
glide-dock_SP_D22_pv

>  <Molecule ChEMBL ID>  (484) 
CHEMBL4788140

>  <Standard Type>  (484) 
Ki

>  <Standard Value>  (484) 
43.7

>  <label>  (484) 
1

$$$$
CHEMBL1202208
     RDKit          3D

 53 56  0  0  1  0  0  0  0  0999 V2000
    7.9490    0.6106  -15.8872 C   0  0  0  0  0  0  0  0  0  0  0  0
    7.8761    1.8446  -15.0117 C   0  0  0  0  0  0  0  0  0  0  0  0
    8.9703    2.7280  -14.9410 C   0  0  0  0  0  0  0  0  0  0  0  0
    8.9169    3.8537  -14.0975 C   0  0  0  0  0  0  0  0  0  0  0  0
    7.7667    4.1111  -13.3215 C   0  0  0  0  0  0  0  0  0  0  0  0
    7.7967    5.1623  -12.3939 N   0  0  0  0  0  0  0  0  0  0  0  0
    7.9084    6.5461  -12.7990 C   0  0  0  0  0  0  0  0  0  0  0  0
    9.0128    7.2586  -11.9854 C   0  0  0  0  0  0  0  0  0  0  0  0
    8.8862    7.0091  -10.5176 N   0  0  0  0  0  0  0  0  0  0  0  0
    9.9083    7.7528   -9.7338 C   0  0  0  0  0  0  0  0  0  0  0  0
    9.6259    7.8156   -8.2377 C   0  0  2  0  0  0  0  0  0  0  0  0
    8.8863    8.9722   -7.6054 C   0  0  0  0  0  0  0  0  0  0  0  0
   10.3724    8.8274   -7.3857 C   0  0  1  0  0  0  0  0  0  0  0  0
   10.9337    8.5312   -6.0206 C   0  0  0  0  0  0  0  0  0  0  0  0
   11.1374    7.2108   -5.5588 C   0  0  0  0  0  0  0  0  0  0  0  0
   11.6860    6.9722   -4.2829 C   0  0  0  0  0  0  0  0  0  0  0  0
   12.0505    8.0499   -3.4558 C   0  0  0  0  0  0  0  0  0  0  0  0
   11.8387    9.3688   -3.8981 C   0  0  0  0  0  0  0  0  0  0  0  0
   11.2857    9.6057   -5.1731 C   0  0  0  0  0  0  0  0  0  0  0  0
    8.8386    5.5528  -10.2135 C   0  0  0  0  0  0  0  0  0  0  0  0
    7.6862    4.8992  -10.9772 C   0  0  0  0  0  0  0  0  0  0  0  0
    6.6375    3.2592  -13.4432 C   0  0  0  0  0  0  0  0  0  0  0  0
    5.3595    3.5185  -12.6618 C   0  0  0  0  0  0  0  0  0  0  0  0
    6.7120    2.1168  -14.2653 C   0  0  0  0  0  0  0  0  0  0  0  0
    7.3038   -0.1826  -15.5039 H   0  0  0  0  0  0  0  0  0  0  0  0
    7.6344    0.8472  -16.9046 H   0  0  0  0  0  0  0  0  0  0  0  0
    8.9667    0.2205  -15.9231 H   0  0  0  0  0  0  0  0  0  0  0  0
    9.8637    2.5310  -15.5148 H   0  0  0  0  0  0  0  0  0  0  0  0
    9.7800    4.4986  -14.0192 H   0  0  0  0  0  0  0  0  0  0  0  0
    6.9463    7.0305  -12.6270 H   0  0  0  0  0  0  0  0  0  0  0  0
    8.0876    6.5737  -13.8694 H   0  0  0  0  0  0  0  0  0  0  0  0
    8.9702    8.3295  -12.1864 H   0  0  0  0  0  0  0  0  0  0  0  0
    9.9917    6.9106  -12.3195 H   0  0  0  0  0  0  0  0  0  0  0  0
    9.9786    8.7753  -10.1106 H   0  0  0  0  0  0  0  0  0  0  0  0
   10.8861    7.2956   -9.8886 H   0  0  0  0  0  0  0  0  0  0  0  0
    9.4454    6.8514   -7.7735 H   0  0  0  0  0  0  0  0  0  0  0  0
    8.2196    8.7129   -6.7861 H   0  0  0  0  0  0  0  0  0  0  0  0
    8.5383    9.7703   -8.2575 H   0  0  0  0  0  0  0  0  0  0  0  0
   11.0232    9.5266   -7.9080 H   0  0  0  0  0  0  0  0  0  0  0  0
   10.8850    6.3639   -6.1773 H   0  0  0  0  0  0  0  0  0  0  0  0
   11.8330    5.9579   -3.9420 H   0  0  0  0  0  0  0  0  0  0  0  0
   12.4712    7.8684   -2.4779 H   0  0  0  0  0  0  0  0  0  0  0  0
   12.1031   10.1941   -3.2548 H   0  0  0  0  0  0  0  0  0  0  0  0
   11.1322   10.6221   -5.5031 H   0  0  0  0  0  0  0  0  0  0  0  0
    9.7855    5.0819  -10.4776 H   0  0  0  0  0  0  0  0  0  0  0  0
    8.6781    5.3788   -9.1512 H   0  0  0  0  0  0  0  0  0  0  0  0
    6.7758    5.3887  -10.6599 H   0  0  0  0  0  0  0  0  0  0  0  0
    7.6036    3.8348  -10.7600 H   0  0  0  0  0  0  0  0  0  0  0  0
    4.5227    2.9370  -13.0476 H   0  0  0  0  0  0  0  0  0  0  0  0
    5.4902    3.2511  -11.6129 H   0  0  0  0  0  0  0  0  0  0  0  0
    5.0889    4.5724  -12.7154 H   0  0  0  0  0  0  0  0  0  0  0  0
    5.8688    1.4430  -14.3273 H   0  0  0  0  0  0  0  0  0  0  0  0
    7.9573    7.3723  -10.2591 H   0  0  0  0  0  0  0  0  0  0  0  0
  2  1  1  0
  3  2  1  0
  4  3  2  0
  5  4  1  0
  6  5  1  0
  7  6  1  0
  8  7  1  0
  9  8  1  0
 10  9  1  0
 11 10  1  0
 12 11  1  0
 13 11  1  0
 13 12  1  0
 14 13  1  0
 15 14  2  0
 16 15  1  0
 17 16  2  0
 18 17  1  0
 19 14  1  0
 19 18  2  0
 20  9  1  0
 21  6  1  0
 21 20  1  0
 22  5  2  0
 23 22  1  0
 24  2  2  0
 24 22  1  0
 25  1  1  0
 26  1  1  0
 27  1  1  0
 28  3  1  0
 29  4  1  0
 30  7  1  0
 31  7  1  0
 32  8  1  0
 33  8  1  0
 34 10  1  0
 35 10  1  0
 11 36  1  1
 37 12  1  0
 38 12  1  0
 13 39  1  6
 40 15  1  0
 41 16  1  0
 42 17  1  0
 43 18  1  0
 44 19  1  0
 45 20  1  0
 46 20  1  0
 47 21  1  0
 48 21  1  0
 49 23  1  0
 50 23  1  0
 51 23  1  0
 52 24  1  0
 53  9  1  0
M  CHG  1   9   1
M  END
>  <b_m_subgroup_collapsed>  (485) 
0

>  <r_i_docking_score>  (485) 
-7.9267458516511704

>  <s_m_subgroup_title>  (485) 
glide-dock_SP_D22_pv

>  <s_m_subgroupid>  (485) 
glide-dock_SP_D22_pv

>  <Molecule ChEMBL ID>  (485) 
CHEMBL1202208

>  <Standard Type>  (485) 
Ki

>  <Standard Value>  (485) 
61.0

>  <label>  (485) 
1

$$$$
CHEMBL1087872
     RDKit          3D

 62 65  0  0  1  0  0  0  0  0999 V2000
    5.2856   -2.7142  -15.9257 C   0  0  0  0  0  0  0  0  0  0  0  0
    5.1607   -0.9654  -15.4127 S   0  0  0  0  0  0  0  0  0  0  0  0
    4.2722   -0.8413  -14.2468 O   0  0  0  0  0  0  0  0  0  0  0  0
    4.9748   -0.1368  -16.6113 O   0  0  0  0  0  0  0  0  0  0  0  0
    6.7559   -0.6275  -14.8405 N   0  0  0  0  0  0  0  0  0  0  0  0
    7.3500    0.6307  -14.7074 C   0  0  0  0  0  0  0  0  0  0  0  0
    6.6062    1.7379  -14.2472 C   0  0  0  0  0  0  0  0  0  0  0  0
    7.2040    3.0094  -14.1159 C   0  0  0  0  0  0  0  0  0  0  0  0
    6.4184    4.0314  -13.6232 O   0  0  0  0  0  0  0  0  0  0  0  0
    7.0497    5.1739  -13.0459 C   0  0  0  0  0  0  0  0  0  0  0  0
    7.8234    4.7706  -11.7818 C   0  0  0  0  0  0  0  0  0  0  0  0
    8.1815    5.8992  -10.8910 N   0  0  2  0  0  0  0  0  0  0  0  0
    9.0725    6.9403  -11.4858 C   0  0  0  0  0  0  0  0  0  0  0  0
    9.3959    8.0844  -10.4821 C   0  0  0  0  0  0  0  0  0  0  0  0
    9.9838    7.5296   -9.1706 C   0  0  1  0  0  0  0  0  0  0  0  0
   10.2319    8.5581   -8.1886 O   0  0  0  0  0  0  0  0  0  0  0  0
   10.7945    8.1528   -6.9857 C   0  0  0  0  0  0  0  0  0  0  0  0
   11.2860    6.8385   -6.8229 C   0  0  0  0  0  0  0  0  0  0  0  0
   11.6860    6.3657   -5.5870 C   0  0  0  0  0  0  0  0  0  0  0  0
   11.8191    7.2325   -4.5149 C   0  0  0  0  0  0  0  0  0  0  0  0
   11.4423    8.5826   -4.6443 C   0  0  0  0  0  0  0  0  0  0  0  0
   10.8861    9.0371   -5.8738 C   0  0  0  0  0  0  0  0  0  0  0  0
   11.6856    9.4355   -3.5314 N   0  0  0  0  0  0  0  0  0  0  0  0
   12.0867    8.9845   -2.3207 C   0  0  0  0  0  0  0  0  0  0  0  0
   12.3965    9.7127   -1.3986 O   0  0  0  0  0  0  0  0  0  0  0  0
   12.1298    7.4914   -2.0555 C   0  0  0  0  0  0  0  0  0  0  0  0
   12.5636    6.7570   -3.2925 C   0  0  0  0  0  0  0  0  0  0  0  0
    8.9742    6.4934   -8.6342 C   0  0  0  0  0  0  0  0  0  0  0  0
    8.7425    5.3707   -9.6309 C   0  0  0  0  0  0  0  0  0  0  0  0
    8.5627    3.1688  -14.4846 C   0  0  0  0  0  0  0  0  0  0  0  0
    9.3102    2.0680  -14.9370 C   0  0  0  0  0  0  0  0  0  0  0  0
    8.7092    0.8022  -15.0434 C   0  0  0  0  0  0  0  0  0  0  0  0
    9.4469   -0.2399  -15.4883 F   0  0  0  0  0  0  0  0  0  0  0  0
    4.3307   -3.0276  -16.3410 H   0  0  0  0  0  0  0  0  0  0  0  0
    6.0540   -2.8162  -16.6905 H   0  0  0  0  0  0  0  0  0  0  0  0
    5.5352   -3.3350  -15.0693 H   0  0  0  0  0  0  0  0  0  0  0  0
    7.4211   -1.3568  -15.0900 H   0  0  0  0  0  0  0  0  0  0  0  0
    5.5690    1.6126  -13.9721 H   0  0  0  0  0  0  0  0  0  0  0  0
    7.6921    5.6867  -13.7620 H   0  0  0  0  0  0  0  0  0  0  0  0
    6.2578    5.8754  -12.7810 H   0  0  0  0  0  0  0  0  0  0  0  0
    7.1886    4.0885  -11.2141 H   0  0  0  0  0  0  0  0  0  0  0  0
    8.7270    4.2139  -12.0288 H   0  0  0  0  0  0  0  0  0  0  0  0
    9.9981    6.4730  -11.8248 H   0  0  0  0  0  0  0  0  0  0  0  0
    8.5963    7.3743  -12.3645 H   0  0  0  0  0  0  0  0  0  0  0  0
   10.0986    8.7836  -10.9335 H   0  0  0  0  0  0  0  0  0  0  0  0
    8.4904    8.6574  -10.2708 H   0  0  0  0  0  0  0  0  0  0  0  0
   10.9279    7.0560   -9.4434 H   0  0  0  0  0  0  0  0  0  0  0  0
   11.3408    6.1168   -7.6204 H   0  0  0  0  0  0  0  0  0  0  0  0
   12.0856    5.3725   -5.5164 H   0  0  0  0  0  0  0  0  0  0  0  0
   10.5590   10.0609   -5.9770 H   0  0  0  0  0  0  0  0  0  0  0  0
   11.5911   10.4317   -3.6605 H   0  0  0  0  0  0  0  0  0  0  0  0
   12.8588    7.2912   -1.2666 H   0  0  0  0  0  0  0  0  0  0  0  0
   11.1405    7.1613   -1.7376 H   0  0  0  0  0  0  0  0  0  0  0  0
   12.4566    5.6848   -3.1544 H   0  0  0  0  0  0  0  0  0  0  0  0
   13.6216    6.9725   -3.4389 H   0  0  0  0  0  0  0  0  0  0  0  0
    9.2037    6.0185   -7.6865 H   0  0  0  0  0  0  0  0  0  0  0  0
    8.0860    7.0465   -8.4155 H   0  0  0  0  0  0  0  0  0  0  0  0
    8.0785    4.6317   -9.1859 H   0  0  0  0  0  0  0  0  0  0  0  0
    9.6820    4.8524   -9.8319 H   0  0  0  0  0  0  0  0  0  0  0  0
    9.0594    4.1241  -14.4232 H   0  0  0  0  0  0  0  0  0  0  0  0
   10.3488    2.1918  -15.2062 H   0  0  0  0  0  0  0  0  0  0  0  0
    7.3253    6.4003  -10.6405 H   0  0  0  0  0  0  0  0  0  0  0  0
  2  1  1  0
  3  2  2  0
  4  2  2  0
  5  2  1  0
  6  5  1  0
  7  6  1  0
  8  7  2  0
  9  8  1  0
 10  9  1  0
 11 10  1  0
 12 11  1  0
 13 12  1  0
 14 13  1  0
 15 14  1  0
 16 15  1  0
 17 16  1  0
 18 17  1  0
 19 18  2  0
 20 19  1  0
 21 20  2  0
 22 17  2  0
 22 21  1  0
 23 21  1  0
 24 23  1  0
 25 24  2  0
 26 24  1  0
 27 20  1  0
 27 26  1  0
 28 15  1  0
 29 12  1  0
 29 28  1  0
 30  8  1  0
 31 30  2  0
 32  6  2  0
 32 31  1  0
 33 32  1  0
 34  1  1  0
 35  1  1  0
 36  1  1  0
 37  5  1  0
 38  7  1  0
 39 10  1  0
 40 10  1  0
 41 11  1  0
 42 11  1  0
 43 13  1  0
 44 13  1  0
 45 14  1  0
 46 14  1  0
 15 47  1  6
 48 18  1  0
 49 19  1  0
 50 22  1  0
 51 23  1  0
 52 26  1  0
 53 26  1  0
 54 27  1  0
 55 27  1  0
 56 28  1  0
 57 28  1  0
 58 29  1  0
 59 29  1  0
 60 30  1  0
 61 31  1  0
 12 62  1  1
M  CHG  1  12   1
M  END
>  <b_m_subgroup_collapsed>  (486) 
0

>  <r_i_docking_score>  (486) 
-7.9262507362684902

>  <s_m_subgroup_title>  (486) 
glide-dock_SP_D22_pv

>  <s_m_subgroupid>  (486) 
glide-dock_SP_D22_pv

>  <Molecule ChEMBL ID>  (486) 
CHEMBL1087872

>  <Standard Type>  (486) 
Ki

>  <Standard Value>  (486) 
9.0

>  <label>  (486) 
1

$$$$
CHEMBL5410217
     RDKit          3D

 54 58  0  0  1  0  0  0  0  0999 V2000
    5.4056   -0.7712  -15.5771 C   0  0  0  0  0  0  0  0  0  0  0  0
    5.9578    0.3785  -14.9504 O   0  0  0  0  0  0  0  0  0  0  0  0
    7.1079    0.9203  -15.4851 C   0  0  0  0  0  0  0  0  0  0  0  0
    7.8331    0.3643  -16.5668 C   0  0  0  0  0  0  0  0  0  0  0  0
    9.0156    0.9872  -17.0228 C   0  0  0  0  0  0  0  0  0  0  0  0
    9.4972    2.1625  -16.4085 C   0  0  0  0  0  0  0  0  0  0  0  0
    8.8019    2.7432  -15.3244 C   0  0  0  0  0  0  0  0  0  0  0  0
    8.9662    3.8669  -14.4448 C   0  0  0  0  0  0  0  0  0  0  0  0
    7.9231    3.8161  -13.5652 C   0  0  0  0  0  0  0  0  0  0  0  0
    7.0521    2.8010  -13.8465 O   0  0  0  0  0  0  0  0  0  0  0  0
    7.6050    2.0999  -14.9025 C   0  0  0  0  0  0  0  0  0  0  0  0
    7.7404    4.6649  -12.3454 C   0  0  0  0  0  0  0  0  0  0  0  0
    8.7771    5.7433  -12.2736 N   0  0  1  0  0  0  0  0  0  0  0  0
    8.9015    6.3353  -10.9182 C   0  0  0  0  0  0  0  0  0  0  0  0
    9.1924    7.8456  -10.9926 C   0  0  0  0  0  0  0  0  0  0  0  0
    9.4395    8.4925   -9.6196 C   0  0  0  0  0  0  0  0  0  0  0  0
   10.9315    8.6016   -9.2671 C   0  0  0  0  0  0  0  0  0  0  0  0
   11.1041    9.3716   -8.0838 O   0  0  0  0  0  0  0  0  0  0  0  0
   11.2233    8.7565   -6.8591 C   0  0  0  0  0  0  0  0  0  0  0  0
   11.0477    7.3702   -6.6402 C   0  0  0  0  0  0  0  0  0  0  0  0
   11.2862    6.8267   -5.3662 C   0  0  0  0  0  0  0  0  0  0  0  0
   11.6859    7.6521   -4.3057 C   0  0  0  0  0  0  0  0  0  0  0  0
   12.0861    7.2080   -2.6474 S   0  0  0  0  0  0  0  0  0  0  0  0
   12.2937    8.9243   -2.3089 C   0  0  0  0  0  0  0  0  0  0  0  0
   12.0869    9.7722   -3.3193 N   0  0  0  0  0  0  0  0  0  0  0  0
   11.7786    9.0612   -4.4731 C   0  0  0  0  0  0  0  0  0  0  0  0
   11.5516    9.5857   -5.7657 C   0  0  0  0  0  0  0  0  0  0  0  0
   10.1084    5.3456  -12.8326 C   0  0  0  0  0  0  0  0  0  0  0  0
   10.0271    4.9074  -14.3106 C   0  0  0  0  0  0  0  0  0  0  0  0
    4.4871   -1.0551  -15.0625 H   0  0  0  0  0  0  0  0  0  0  0  0
    6.0847   -1.6236  -15.5290 H   0  0  0  0  0  0  0  0  0  0  0  0
    5.1482   -0.5721  -16.6193 H   0  0  0  0  0  0  0  0  0  0  0  0
    7.5111   -0.5446  -17.0522 H   0  0  0  0  0  0  0  0  0  0  0  0
    9.5659    0.5511  -17.8442 H   0  0  0  0  0  0  0  0  0  0  0  0
   10.4120    2.6177  -16.7595 H   0  0  0  0  0  0  0  0  0  0  0  0
    6.7456    5.1116  -12.3308 H   0  0  0  0  0  0  0  0  0  0  0  0
    7.8160    4.0301  -11.4615 H   0  0  0  0  0  0  0  0  0  0  0  0
    7.9802    6.1726  -10.3568 H   0  0  0  0  0  0  0  0  0  0  0  0
    9.6800    5.8165  -10.3561 H   0  0  0  0  0  0  0  0  0  0  0  0
   10.0348    8.0557  -11.6536 H   0  0  0  0  0  0  0  0  0  0  0  0
    8.3338    8.3356  -11.4538 H   0  0  0  0  0  0  0  0  0  0  0  0
    9.0277    9.5008   -9.6388 H   0  0  0  0  0  0  0  0  0  0  0  0
    8.8892    7.9677   -8.8372 H   0  0  0  0  0  0  0  0  0  0  0  0
   11.4239    7.6292   -9.2356 H   0  0  0  0  0  0  0  0  0  0  0  0
   11.4421    9.1478  -10.0616 H   0  0  0  0  0  0  0  0  0  0  0  0
   10.7453    6.7011   -7.4307 H   0  0  0  0  0  0  0  0  0  0  0  0
   11.1756    5.7719   -5.1952 H   0  0  0  0  0  0  0  0  0  0  0  0
   12.5615    9.3199   -1.3402 H   0  0  0  0  0  0  0  0  0  0  0  0
   11.6512   10.6491   -5.9200 H   0  0  0  0  0  0  0  0  0  0  0  0
   10.8297    6.1566  -12.7332 H   0  0  0  0  0  0  0  0  0  0  0  0
   10.4870    4.5090  -12.2450 H   0  0  0  0  0  0  0  0  0  0  0  0
   10.9924    4.5207  -14.6410 H   0  0  0  0  0  0  0  0  0  0  0  0
    9.8010    5.7707  -14.9405 H   0  0  0  0  0  0  0  0  0  0  0  0
    8.4260    6.4790  -12.8686 H   0  0  0  0  0  0  0  0  0  0  0  0
  2  1  1  0
  3  2  1  0
  4  3  1  0
  5  4  2  0
  6  5  1  0
  7  6  2  0
  8  7  1  0
  9  8  2  0
 10  9  1  0
 11  3  2  0
 11  7  1  0
 11 10  1  0
 12  9  1  0
 13 12  1  0
 14 13  1  0
 15 14  1  0
 16 15  1  0
 17 16  1  0
 18 17  1  0
 19 18  1  0
 20 19  2  0
 21 20  1  0
 22 21  2  0
 23 22  1  0
 24 23  1  0
 25 24  2  0
 26 22  1  0
 26 25  1  0
 27 19  1  0
 27 26  2  0
 28 13  1  0
 29  8  1  0
 29 28  1  0
 30  1  1  0
 31  1  1  0
 32  1  1  0
 33  4  1  0
 34  5  1  0
 35  6  1  0
 36 12  1  0
 37 12  1  0
 38 14  1  0
 39 14  1  0
 40 15  1  0
 41 15  1  0
 42 16  1  0
 43 16  1  0
 44 17  1  0
 45 17  1  0
 46 20  1  0
 47 21  1  0
 48 24  1  0
 49 27  1  0
 50 28  1  0
 51 28  1  0
 52 29  1  0
 53 29  1  0
 13 54  1  6
M  CHG  1  13   1
M  END
>  <b_m_subgroup_collapsed>  (487) 
0

>  <r_i_docking_score>  (487) 
-7.9202913784048903

>  <s_m_subgroup_title>  (487) 
glide-dock_SP_D22_pv

>  <s_m_subgroupid>  (487) 
glide-dock_SP_D22_pv

>  <Molecule ChEMBL ID>  (487) 
CHEMBL5410217

>  <Standard Type>  (487) 
Ki

>  <Standard Value>  (487) 
25852.0

>  <label>  (487) 
0

$$$$
CHEMBL597503
     RDKit          3D

 57 62  0  0  1  0  0  0  0  0999 V2000
   12.4935    6.9333  -17.5210 C   0  0  0  0  0  0  0  0  0  0  0  0
   13.0519    5.7367  -16.8358 N   0  0  2  0  0  0  0  0  0  0  0  0
   13.1636    4.5522  -17.7249 C   0  0  0  0  0  0  0  0  0  0  0  0
   11.8160    3.9292  -18.1384 C   0  0  0  0  0  0  0  0  0  0  0  0
   11.2393    3.0019  -17.0813 C   0  0  0  0  0  0  0  0  0  0  0  0
   10.9891    1.6615  -17.4369 C   0  0  0  0  0  0  0  0  0  0  0  0
   10.4610    0.7526  -16.5068 C   0  0  0  0  0  0  0  0  0  0  0  0
   10.0862   -0.8451  -17.0449 Cl  0  0  0  0  0  0  0  0  0  0  0  0
   10.2429    1.1611  -15.1733 C   0  0  0  0  0  0  0  0  0  0  0  0
    9.7389    0.2859  -14.2471 O   0  0  0  0  0  0  0  0  0  0  0  0
   10.5199    2.4935  -14.8067 C   0  0  0  0  0  0  0  0  0  0  0  0
   10.9574    3.4459  -15.7668 C   0  0  0  0  0  0  0  0  0  0  0  0
   11.0616    4.9409  -15.4204 C   0  0  1  0  0  0  0  0  0  0  0  0
   10.2588    5.3299  -14.1669 C   0  0  0  0  0  0  0  0  0  0  0  0
    8.8817    5.0427  -14.1870 C   0  0  0  0  0  0  0  0  0  0  0  0
    8.0607    5.4054  -13.1155 C   0  0  0  0  0  0  0  0  0  0  0  0
    8.6185    6.0652  -12.0146 C   0  0  0  0  0  0  0  0  0  0  0  0
   10.0025    6.3531  -11.9277 C   0  0  0  0  0  0  0  0  0  0  0  0
   10.4453    6.9723  -10.6451 C   0  0  0  0  0  0  0  0  0  0  0  0
   11.3482    8.0577  -10.5678 C   0  0  0  0  0  0  0  0  0  0  0  0
   11.7535    8.5865   -9.3361 C   0  0  0  0  0  0  0  0  0  0  0  0
   11.1756    8.1133   -8.1544 C   0  0  0  0  0  0  0  0  0  0  0  0
   11.3338    8.4764   -6.8335 N   0  0  0  0  0  0  0  0  0  0  0  0
   10.5081    7.7172   -6.0252 C   0  0  0  0  0  0  0  0  0  0  0  0
    9.7909    6.8543   -6.8102 C   0  0  0  0  0  0  0  0  0  0  0  0
   10.2166    7.0673   -8.1646 C   0  0  0  0  0  0  0  0  0  0  0  0
    9.8985    6.4989   -9.4200 C   0  0  0  0  0  0  0  0  0  0  0  0
   10.8328    5.9878  -13.0453 C   0  0  0  0  0  0  0  0  0  0  0  0
   12.3367    6.2492  -13.1059 C   0  0  0  0  0  0  0  0  0  0  0  0
   12.7423    6.6591  -14.5210 C   0  0  0  0  0  0  0  0  0  0  0  0
   12.5234    5.4683  -15.4660 C   0  0  2  0  0  0  0  0  0  0  0  0
   11.4186    6.8596  -17.6792 H   0  0  0  0  0  0  0  0  0  0  0  0
   12.9564    7.0692  -18.4986 H   0  0  0  0  0  0  0  0  0  0  0  0
   12.6856    7.8487  -16.9618 H   0  0  0  0  0  0  0  0  0  0  0  0
   13.6942    4.8630  -18.6258 H   0  0  0  0  0  0  0  0  0  0  0  0
   13.8019    3.7961  -17.2635 H   0  0  0  0  0  0  0  0  0  0  0  0
   11.0793    4.6840  -18.4106 H   0  0  0  0  0  0  0  0  0  0  0  0
   11.9818    3.3525  -19.0494 H   0  0  0  0  0  0  0  0  0  0  0  0
   11.1758    1.3208  -18.4451 H   0  0  0  0  0  0  0  0  0  0  0  0
    9.7220    0.5757  -13.3314 H   0  0  0  0  0  0  0  0  0  0  0  0
   10.3312    2.7843  -13.7838 H   0  0  0  0  0  0  0  0  0  0  0  0
   10.5070    5.4584  -16.2035 H   0  0  0  0  0  0  0  0  0  0  0  0
    8.4656    4.5361  -15.0422 H   0  0  0  0  0  0  0  0  0  0  0  0
    7.0017    5.1880  -13.1376 H   0  0  0  0  0  0  0  0  0  0  0  0
    7.9511    6.3455  -11.2109 H   0  0  0  0  0  0  0  0  0  0  0  0
   11.7505    8.5248  -11.4469 H   0  0  0  0  0  0  0  0  0  0  0  0
   12.4853    9.3721   -9.3073 H   0  0  0  0  0  0  0  0  0  0  0  0
   11.9513    9.1936   -6.4839 H   0  0  0  0  0  0  0  0  0  0  0  0
   10.4865    7.8583   -4.9559 H   0  0  0  0  0  0  0  0  0  0  0  0
    9.0482    6.1449   -6.4780 H   0  0  0  0  0  0  0  0  0  0  0  0
    9.1836    5.6894   -9.4303 H   0  0  0  0  0  0  0  0  0  0  0  0
   12.6919    6.9982  -12.4137 H   0  0  0  0  0  0  0  0  0  0  0  0
   12.8777    5.3373  -12.8457 H   0  0  0  0  0  0  0  0  0  0  0  0
   12.1538    7.5271  -14.8203 H   0  0  0  0  0  0  0  0  0  0  0  0
   13.7838    6.9727  -14.5493 H   0  0  0  0  0  0  0  0  0  0  0  0
   13.1547    4.6739  -15.0604 H   0  0  0  0  0  0  0  0  0  0  0  0
   14.0149    5.9904  -16.6685 H   0  0  0  0  0  0  0  0  0  0  0  0
  2  1  1  0
  3  2  1  0
  4  3  1  0
  5  4  1  0
  6  5  1  0
  7  6  2  0
  8  7  1  0
  9  7  1  0
 10  9  1  0
 11  9  2  0
 12  5  2  0
 12 11  1  0
 13 12  1  0
 14 13  1  0
 15 14  2  0
 16 15  1  0
 17 16  2  0
 18 17  1  0
 19 18  1  0
 20 19  2  0
 21 20  1  0
 22 21  2  0
 23 22  1  0
 24 23  1  0
 25 24  2  0
 26 22  1  0
 26 25  1  0
 27 19  1  0
 27 26  2  0
 28 14  1  0
 28 18  2  0
 29 28  1  0
 30 29  1  0
 31  2  1  0
 31 13  1  0
 31 30  1  0
 32  1  1  0
 33  1  1  0
 34  1  1  0
 35  3  1  0
 36  3  1  0
 37  4  1  0
 38  4  1  0
 39  6  1  0
 40 10  1  0
 41 11  1  0
 13 42  1  6
 43 15  1  0
 44 16  1  0
 45 17  1  0
 46 20  1  0
 47 21  1  0
 48 23  1  0
 49 24  1  0
 50 25  1  0
 51 27  1  0
 52 29  1  0
 53 29  1  0
 54 30  1  0
 55 30  1  0
 31 56  1  1
  2 57  1  1
M  CHG  1   2   1
M  END
>  <b_m_subgroup_collapsed>  (488) 
0

>  <r_i_docking_score>  (488) 
-7.9181037745007199

>  <s_m_subgroup_title>  (488) 
glide-dock_SP_D22_pv

>  <s_m_subgroupid>  (488) 
glide-dock_SP_D22_pv

>  <Molecule ChEMBL ID>  (488) 
CHEMBL597503

>  <Standard Type>  (488) 
Ki

>  <Standard Value>  (488) 
51.0

>  <label>  (488) 
1

$$$$
CHEMBL4436479
     RDKit          3D

 48 50  0  0  1  0  0  0  0  0999 V2000
    8.0265    1.8446  -15.3155 C   0  0  0  0  0  0  0  0  0  0  0  0
    7.3136    2.6447  -14.2475 C   0  0  0  0  0  0  0  0  0  0  0  0
    6.0867    2.1911  -13.7263 C   0  0  0  0  0  0  0  0  0  0  0  0
    5.4213    2.9355  -12.7358 C   0  0  0  0  0  0  0  0  0  0  0  0
    5.9778    4.1397  -12.2617 C   0  0  0  0  0  0  0  0  0  0  0  0
    7.2165    4.5948  -12.7604 C   0  0  0  0  0  0  0  0  0  0  0  0
    7.7408    5.8110  -12.2434 N   0  0  0  0  0  0  0  0  0  0  0  0
    9.0366    6.0957  -12.0212 C   0  0  0  0  0  0  0  0  0  0  0  0
    9.9679    5.3233  -12.2464 O   0  0  0  0  0  0  0  0  0  0  0  0
    9.3674    7.4679  -11.4427 C   0  0  0  0  0  0  0  0  0  0  0  0
    9.9588    7.3361  -10.0862 N   0  0  2  0  0  0  0  0  0  0  0  0
    8.9049    7.3662   -9.0422 C   0  0  0  0  0  0  0  0  0  0  0  0
    9.4503    7.1923   -7.6273 C   0  0  0  0  0  0  0  0  0  0  0  0
   10.4627    8.3109   -7.3496 C   0  0  1  0  0  0  0  0  0  0  0  0
   10.9732    8.3356   -5.9205 C   0  0  0  0  0  0  0  0  0  0  0  0
   11.2861    7.1467   -5.2214 C   0  0  0  0  0  0  0  0  0  0  0  0
   11.7719    7.2089   -3.8999 C   0  0  0  0  0  0  0  0  0  0  0  0
   11.9253    8.4597   -3.2708 C   0  0  0  0  0  0  0  0  0  0  0  0
   12.4867    8.5716   -1.6527 Cl  0  0  0  0  0  0  0  0  0  0  0  0
   11.5931    9.6388   -3.9526 C   0  0  0  0  0  0  0  0  0  0  0  0
   11.1314    9.5821   -5.2781 C   0  0  0  0  0  0  0  0  0  0  0  0
   11.5898    8.2064   -8.3879 C   0  0  0  0  0  0  0  0  0  0  0  0
   11.0314    8.3358   -9.8200 C   0  0  0  0  0  0  0  0  0  0  0  0
    7.8747    3.8502  -13.7690 C   0  0  0  0  0  0  0  0  0  0  0  0
    7.8033    0.7816  -15.2190 H   0  0  0  0  0  0  0  0  0  0  0  0
    7.7129    2.1729  -16.3079 H   0  0  0  0  0  0  0  0  0  0  0  0
    9.1069    1.9699  -15.2388 H   0  0  0  0  0  0  0  0  0  0  0  0
    5.6513    1.2668  -14.0828 H   0  0  0  0  0  0  0  0  0  0  0  0
    4.4866    2.5719  -12.3394 H   0  0  0  0  0  0  0  0  0  0  0  0
    5.4626    4.7005  -11.4960 H   0  0  0  0  0  0  0  0  0  0  0  0
    7.0635    6.4658  -11.8659 H   0  0  0  0  0  0  0  0  0  0  0  0
   10.0828    7.9279  -12.1233 H   0  0  0  0  0  0  0  0  0  0  0  0
    8.4901    8.1201  -11.4401 H   0  0  0  0  0  0  0  0  0  0  0  0
    8.4683    8.3601   -9.0992 H   0  0  0  0  0  0  0  0  0  0  0  0
    8.1368    6.6140   -9.2390 H   0  0  0  0  0  0  0  0  0  0  0  0
    8.6251    7.2494   -6.9138 H   0  0  0  0  0  0  0  0  0  0  0  0
    9.8947    6.2017   -7.5218 H   0  0  0  0  0  0  0  0  0  0  0  0
    9.9481    9.2624   -7.5047 H   0  0  0  0  0  0  0  0  0  0  0  0
   11.1767    6.1808   -5.6901 H   0  0  0  0  0  0  0  0  0  0  0  0
   12.0165    6.2988   -3.3699 H   0  0  0  0  0  0  0  0  0  0  0  0
   11.6855   10.5844   -3.4422 H   0  0  0  0  0  0  0  0  0  0  0  0
   10.8866   10.5013   -5.7878 H   0  0  0  0  0  0  0  0  0  0  0  0
   12.3432    8.9761   -8.2166 H   0  0  0  0  0  0  0  0  0  0  0  0
   12.0855    7.2466   -8.2682 H   0  0  0  0  0  0  0  0  0  0  0  0
   11.8400    8.2083  -10.5423 H   0  0  0  0  0  0  0  0  0  0  0  0
   10.6340    9.3415   -9.9682 H   0  0  0  0  0  0  0  0  0  0  0  0
    8.8112    4.1923  -14.1828 H   0  0  0  0  0  0  0  0  0  0  0  0
   10.3877    6.4207  -10.0564 H   0  0  0  0  0  0  0  0  0  0  0  0
  2  1  1  0
  3  2  2  0
  4  3  1  0
  5  4  2  0
  6  5  1  0
  7  6  1  0
  8  7  1  0
  9  8  2  0
 10  8  1  0
 11 10  1  0
 12 11  1  0
 13 12  1  0
 14 13  1  0
 15 14  1  0
 16 15  2  0
 17 16  1  0
 18 17  2  0
 19 18  1  0
 20 18  1  0
 21 15  1  0
 21 20  2  0
 22 14  1  0
 23 11  1  0
 23 22  1  0
 24  2  1  0
 24  6  2  0
 25  1  1  0
 26  1  1  0
 27  1  1  0
 28  3  1  0
 29  4  1  0
 30  5  1  0
 31  7  1  0
 32 10  1  0
 33 10  1  0
 34 12  1  0
 35 12  1  0
 36 13  1  0
 37 13  1  0
 14 38  1  6
 39 16  1  0
 40 17  1  0
 41 20  1  0
 42 21  1  0
 43 22  1  0
 44 22  1  0
 45 23  1  0
 46 23  1  0
 47 24  1  0
 11 48  1  6
M  CHG  1  11   1
M  END
>  <b_m_subgroup_collapsed>  (489) 
0

>  <r_i_docking_score>  (489) 
-7.9168911634655004

>  <s_m_subgroup_title>  (489) 
glide-dock_SP_D22_pv

>  <s_m_subgroupid>  (489) 
glide-dock_SP_D22_pv

>  <Molecule ChEMBL ID>  (489) 
CHEMBL4436479

>  <Standard Type>  (489) 
Ki

>  <Standard Value>  (489) 
50000.0

>  <label>  (489) 
0

$$$$
CHEMBL425064
     RDKit          3D

 42 45  0  0  1  0  0  0  0  0999 V2000
   12.6000    8.5631   -1.4461 F   0  0  0  0  0  0  0  0  0  0  0  0
   12.1441    8.4352   -2.7120 C   0  0  0  0  0  0  0  0  0  0  0  0
   11.7387    9.5744   -3.4275 C   0  0  0  0  0  0  0  0  0  0  0  0
   11.2857    9.4535   -4.7533 C   0  0  0  0  0  0  0  0  0  0  0  0
   11.2322    8.1877   -5.3885 C   0  0  0  0  0  0  0  0  0  0  0  0
   10.8106    8.0595   -6.7281 N   0  0  0  0  0  0  0  0  0  0  0  0
    9.9044    6.9824   -7.1095 C   0  0  0  0  0  0  0  0  0  0  0  0
   10.2140    6.5358   -8.5481 C   0  0  0  0  0  0  0  0  0  0  0  0
   10.1384    7.6695   -9.5129 N   0  0  0  0  0  0  0  0  0  0  0  0
   10.4916    7.2952  -10.9128 C   0  0  0  0  0  0  0  0  0  0  0  0
    9.6331    6.2295  -11.5400 C   0  0  0  0  0  0  0  0  0  0  0  0
    8.3651    5.8427  -11.2196 C   0  0  0  0  0  0  0  0  0  0  0  0
    7.9744    4.9165  -12.1680 N   0  0  0  0  0  0  0  0  0  0  0  0
    6.8049    4.2469  -12.3772 C   0  0  0  0  0  0  0  0  0  0  0  0
    6.7375    3.3821  -13.4462 C   0  0  0  0  0  0  0  0  0  0  0  0
    7.8935    3.2173  -14.2469 C   0  0  0  0  0  0  0  0  0  0  0  0
    9.0350    3.8697  -14.0583 N   0  0  0  0  0  0  0  0  0  0  0  0
    9.0851    4.7274  -13.0246 C   0  0  0  0  0  0  0  0  0  0  0  0
   10.0855    5.5233  -12.6471 N   0  0  0  0  0  0  0  0  0  0  0  0
   10.9721    8.8267   -9.0756 C   0  0  0  0  0  0  0  0  0  0  0  0
   10.7763    9.2251   -7.5995 C   0  0  0  0  0  0  0  0  0  0  0  0
   11.6333    7.0493   -4.6468 C   0  0  0  0  0  0  0  0  0  0  0  0
   12.0857    7.1691   -3.3185 C   0  0  0  0  0  0  0  0  0  0  0  0
   11.7786   10.5446   -2.9550 H   0  0  0  0  0  0  0  0  0  0  0  0
   10.9750   10.3518   -5.2624 H   0  0  0  0  0  0  0  0  0  0  0  0
    8.8751    7.3413   -7.0441 H   0  0  0  0  0  0  0  0  0  0  0  0
    9.9726    6.1331   -6.4335 H   0  0  0  0  0  0  0  0  0  0  0  0
    9.5389    5.7274   -8.8259 H   0  0  0  0  0  0  0  0  0  0  0  0
   11.2247    6.1329   -8.5721 H   0  0  0  0  0  0  0  0  0  0  0  0
   11.5375    6.9847  -10.9387 H   0  0  0  0  0  0  0  0  0  0  0  0
   10.4302    8.1922  -11.5310 H   0  0  0  0  0  0  0  0  0  0  0  0
    7.6838    6.1720  -10.4504 H   0  0  0  0  0  0  0  0  0  0  0  0
    5.9863    4.4409  -11.6906 H   0  0  0  0  0  0  0  0  0  0  0  0
    5.8276    2.8306  -13.6569 H   0  0  0  0  0  0  0  0  0  0  0  0
    7.8719    2.5279  -15.0846 H   0  0  0  0  0  0  0  0  0  0  0  0
   12.0244    8.5691   -9.2166 H   0  0  0  0  0  0  0  0  0  0  0  0
   10.7838    9.6916   -9.7109 H   0  0  0  0  0  0  0  0  0  0  0  0
    9.8325    9.7566   -7.4553 H   0  0  0  0  0  0  0  0  0  0  0  0
   11.5725    9.9217   -7.3331 H   0  0  0  0  0  0  0  0  0  0  0  0
   11.6291    6.0672   -5.0974 H   0  0  0  0  0  0  0  0  0  0  0  0
   12.3976    6.2894   -2.7744 H   0  0  0  0  0  0  0  0  0  0  0  0
    9.1730    7.9714   -9.5219 H   0  0  0  0  0  0  0  0  0  0  0  0
  2  1  1  0
  3  2  1  0
  4  3  2  0
  5  4  1  0
  6  5  1  0
  7  6  1  0
  8  7  1  0
  9  8  1  0
 10  9  1  0
 11 10  1  0
 12 11  2  0
 13 12  1  0
 14 13  1  0
 15 14  2  0
 16 15  1  0
 17 16  2  0
 18 13  1  0
 18 17  1  0
 19 11  1  0
 19 18  2  0
 20  9  1  0
 21  6  1  0
 21 20  1  0
 22  5  2  0
 23  2  2  0
 23 22  1  0
 24  3  1  0
 25  4  1  0
 26  7  1  0
 27  7  1  0
 28  8  1  0
 29  8  1  0
 30 10  1  0
 31 10  1  0
 32 12  1  0
 33 14  1  0
 34 15  1  0
 35 16  1  0
 36 20  1  0
 37 20  1  0
 38 21  1  0
 39 21  1  0
 40 22  1  0
 41 23  1  0
 42  9  1  0
M  CHG  1   9   1
M  END
>  <b_m_subgroup_collapsed>  (490) 
0

>  <r_i_docking_score>  (490) 
-7.9131284152851196

>  <s_m_subgroup_title>  (490) 
glide-dock_SP_D22_pv

>  <s_m_subgroupid>  (490) 
glide-dock_SP_D22_pv

>  <Molecule ChEMBL ID>  (490) 
CHEMBL425064

>  <Standard Type>  (490) 
Ki

>  <Standard Value>  (490) 
49000.0

>  <label>  (490) 
0

$$$$
CHEMBL542942
     RDKit          3D

 52 55  0  0  1  0  0  0  0  0999 V2000
   12.3050    9.3723   -7.0816 O   0  0  0  0  0  0  0  0  0  0  0  0
   11.0738    8.9463   -6.5619 C   0  0  2  0  0  0  0  0  0  0  0  0
   11.3537    8.6690   -5.0974 C   0  0  0  0  0  0  0  0  0  0  0  0
   11.4797    9.7561   -4.2115 C   0  0  0  0  0  0  0  0  0  0  0  0
   11.9445    9.5481   -2.9012 C   0  0  0  0  0  0  0  0  0  0  0  0
   12.2300    8.2495   -2.4450 C   0  0  0  0  0  0  0  0  0  0  0  0
   12.0860    7.1577   -3.3185 C   0  0  0  0  0  0  0  0  0  0  0  0
   11.6804    7.3733   -4.6514 C   0  0  0  0  0  0  0  0  0  0  0  0
   11.5712    6.2027   -5.5942 C   0  0  0  0  0  0  0  0  0  0  0  0
   11.5457    6.5498   -7.0918 C   0  0  0  0  0  0  0  0  0  0  0  0
   10.6211    7.7340   -7.4372 C   0  0  2  0  0  0  0  0  0  0  0  0
   10.7105    8.1124   -8.9464 C   0  0  0  0  0  0  0  0  0  0  0  0
   10.2462    7.0015   -9.8944 C   0  0  0  0  0  0  0  0  0  0  0  0
    8.8860    6.5023   -9.5811 N   0  0  1  0  0  0  0  0  0  0  0  0
    8.5114    5.3674  -10.4622 C   0  0  0  0  0  0  0  0  0  0  0  0
    8.1055    5.8167  -11.8788 C   0  0  0  0  0  0  0  0  0  0  0  0
    7.6781    4.6386  -12.7282 C   0  0  0  0  0  0  0  0  0  0  0  0
    8.6120    3.9869  -13.5608 C   0  0  0  0  0  0  0  0  0  0  0  0
    8.2158    2.8752  -14.3289 C   0  0  0  0  0  0  0  0  0  0  0  0
    6.8860    2.4150  -14.2686 C   0  0  0  0  0  0  0  0  0  0  0  0
    5.9518    3.0675  -13.4415 C   0  0  0  0  0  0  0  0  0  0  0  0
    6.3466    4.1770  -12.6702 C   0  0  0  0  0  0  0  0  0  0  0  0
    8.7169    6.1723   -8.1392 C   0  0  0  0  0  0  0  0  0  0  0  0
    9.1403    7.3412   -7.2156 C   0  0  0  0  0  0  0  0  0  0  0  0
   12.2109    9.5303   -8.0075 H   0  0  0  0  0  0  0  0  0  0  0  0
   10.3583    9.7648   -6.6497 H   0  0  0  0  0  0  0  0  0  0  0  0
   11.2818   10.7596   -4.5573 H   0  0  0  0  0  0  0  0  0  0  0  0
   12.0860   10.3941   -2.2469 H   0  0  0  0  0  0  0  0  0  0  0  0
   12.5698    8.0958   -1.4322 H   0  0  0  0  0  0  0  0  0  0  0  0
   12.3121    6.1594   -2.9721 H   0  0  0  0  0  0  0  0  0  0  0  0
   12.3618    5.4812   -5.3984 H   0  0  0  0  0  0  0  0  0  0  0  0
   10.6182    5.7723   -5.3152 H   0  0  0  0  0  0  0  0  0  0  0  0
   12.5376    6.8072   -7.4469 H   0  0  0  0  0  0  0  0  0  0  0  0
   11.2907    5.6489   -7.6420 H   0  0  0  0  0  0  0  0  0  0  0  0
   10.1154    9.0083   -9.1328 H   0  0  0  0  0  0  0  0  0  0  0  0
   11.7300    8.3624   -9.2414 H   0  0  0  0  0  0  0  0  0  0  0  0
   10.9483    6.1723   -9.8468 H   0  0  0  0  0  0  0  0  0  0  0  0
   10.2792    7.3762  -10.9172 H   0  0  0  0  0  0  0  0  0  0  0  0
    9.3317    4.6490  -10.5137 H   0  0  0  0  0  0  0  0  0  0  0  0
    7.6860    4.8208  -10.0174 H   0  0  0  0  0  0  0  0  0  0  0  0
    7.2859    6.5358  -11.8468 H   0  0  0  0  0  0  0  0  0  0  0  0
    8.9298    6.3222  -12.3812 H   0  0  0  0  0  0  0  0  0  0  0  0
    9.6357    4.3289  -13.6070 H   0  0  0  0  0  0  0  0  0  0  0  0
    8.9330    2.3722  -14.9608 H   0  0  0  0  0  0  0  0  0  0  0  0
    6.5831    1.5604  -14.8560 H   0  0  0  0  0  0  0  0  0  0  0  0
    4.9329    2.7124  -13.3928 H   0  0  0  0  0  0  0  0  0  0  0  0
    5.6295    4.6671  -12.0265 H   0  0  0  0  0  0  0  0  0  0  0  0
    9.2570    5.2576   -7.9027 H   0  0  0  0  0  0  0  0  0  0  0  0
    7.6860    5.9108   -7.9416 H   0  0  0  0  0  0  0  0  0  0  0  0
    8.9588    7.0699   -6.1770 H   0  0  0  0  0  0  0  0  0  0  0  0
    8.4919    8.1989   -7.4048 H   0  0  0  0  0  0  0  0  0  0  0  0
    8.2073    7.2367   -9.7748 H   0  0  0  0  0  0  0  0  0  0  0  0
  2  1  1  0
  3  2  1  0
  4  3  2  0
  5  4  1  0
  6  5  2  0
  7  6  1  0
  8  3  1  0
  8  7  2  0
  9  8  1  0
 10  9  1  0
 11  2  1  0
 11 10  1  6
 12 11  1  0
 13 12  1  0
 14 13  1  0
 15 14  1  0
 16 15  1  0
 17 16  1  0
 18 17  2  0
 19 18  1  0
 20 19  2  0
 21 20  1  0
 22 17  1  0
 22 21  2  0
 23 14  1  0
 24 11  1  0
 24 23  1  0
 25  1  1  0
  2 26  1  1
 27  4  1  0
 28  5  1  0
 29  6  1  0
 30  7  1  0
 31  9  1  0
 32  9  1  0
 33 10  1  0
 34 10  1  0
 35 12  1  0
 36 12  1  0
 37 13  1  0
 38 13  1  0
 39 15  1  0
 40 15  1  0
 41 16  1  0
 42 16  1  0
 43 18  1  0
 44 19  1  0
 45 20  1  0
 46 21  1  0
 47 22  1  0
 48 23  1  0
 49 23  1  0
 50 24  1  0
 51 24  1  0
 14 52  1  6
M  CHG  1  14   1
M  END
>  <b_m_subgroup_collapsed>  (491) 
0

>  <r_i_docking_score>  (491) 
-7.9114018194287796

>  <s_m_subgroup_title>  (491) 
glide-dock_SP_D22_pv

>  <s_m_subgroupid>  (491) 
glide-dock_SP_D22_pv

>  <Molecule ChEMBL ID>  (491) 
CHEMBL542942

>  <Standard Type>  (491) 
Ki

>  <Standard Value>  (491) 
10000.0

>  <label>  (491) 
0

$$$$
CHEMBL1923416
     RDKit          3D

 45 48  0  0  1  0  0  0  0  0999 V2000
    5.7678    2.4325  -13.7259 F   0  0  0  0  0  0  0  0  0  0  0  0
    6.4942    3.5202  -13.3804 C   0  0  0  0  0  0  0  0  0  0  0  0
    7.8636    3.5564  -13.7093 C   0  0  0  0  0  0  0  0  0  0  0  0
    8.6297    4.6664  -13.3101 C   0  0  0  0  0  0  0  0  0  0  0  0
    7.9957    5.7147  -12.6141 C   0  0  0  0  0  0  0  0  0  0  0  0
    8.7676    6.9650  -12.2180 C   0  0  0  0  0  0  0  0  0  0  0  0
    8.8861    7.1694  -10.7567 N   0  0  0  0  0  0  0  0  0  0  0  0
    9.6700    6.1288  -10.0476 C   0  0  0  0  0  0  0  0  0  0  0  0
    9.6983    6.3641   -8.5264 C   0  0  0  0  0  0  0  0  0  0  0  0
   10.0864    7.7405   -8.2293 N   0  0  0  0  0  0  0  0  0  0  0  0
   10.6789    8.0707   -6.9927 C   0  0  0  0  0  0  0  0  0  0  0  0
   11.2777    9.3392   -6.8186 C   0  0  0  0  0  0  0  0  0  0  0  0
   11.8865    9.6954   -5.6063 C   0  0  0  0  0  0  0  0  0  0  0  0
   11.9163    8.7905   -4.5354 C   0  0  0  0  0  0  0  0  0  0  0  0
   11.3544    7.5017   -4.7016 C   0  0  0  0  0  0  0  0  0  0  0  0
   10.7260    7.1560   -5.9131 C   0  0  0  0  0  0  0  0  0  0  0  0
   11.4039    6.5724   -3.6933 O   0  0  0  0  0  0  0  0  0  0  0  0
   12.3607    6.8464   -2.6821 C   0  0  0  0  0  0  0  0  0  0  0  0
   12.2680    8.3165   -2.2523 C   0  0  0  0  0  0  0  0  0  0  0  0
   12.5095    9.1757   -3.3574 O   0  0  0  0  0  0  0  0  0  0  0  0
    9.2860    8.7572   -8.9039 C   0  0  0  0  0  0  0  0  0  0  0  0
    9.3271    8.5418  -10.4194 C   0  0  0  0  0  0  0  0  0  0  0  0
    6.6135    5.5909  -12.3494 C   0  0  0  0  0  0  0  0  0  0  0  0
    5.8792    4.5217  -12.7202 N   0  0  0  0  0  0  0  0  0  0  0  0
    8.3194    2.7331  -14.2389 H   0  0  0  0  0  0  0  0  0  0  0  0
    9.6827    4.7133  -13.5474 H   0  0  0  0  0  0  0  0  0  0  0  0
    9.7698    6.9468  -12.6468 H   0  0  0  0  0  0  0  0  0  0  0  0
    8.2468    7.8184  -12.6541 H   0  0  0  0  0  0  0  0  0  0  0  0
    9.2789    5.1334  -10.2611 H   0  0  0  0  0  0  0  0  0  0  0  0
   10.6894    6.1726  -10.4275 H   0  0  0  0  0  0  0  0  0  0  0  0
    8.7152    6.1693   -8.0935 H   0  0  0  0  0  0  0  0  0  0  0  0
   10.3984    5.6558   -8.0830 H   0  0  0  0  0  0  0  0  0  0  0  0
   11.2935   10.0608   -7.6173 H   0  0  0  0  0  0  0  0  0  0  0  0
   12.3405   10.6653   -5.5075 H   0  0  0  0  0  0  0  0  0  0  0  0
   10.2873    6.1725   -5.9882 H   0  0  0  0  0  0  0  0  0  0  0  0
   12.1699    6.1781   -1.8453 H   0  0  0  0  0  0  0  0  0  0  0  0
   13.3583    6.6148   -3.0468 H   0  0  0  0  0  0  0  0  0  0  0  0
   11.2862    8.5309   -1.8469 H   0  0  0  0  0  0  0  0  0  0  0  0
   12.9929    8.5358   -1.4683 H   0  0  0  0  0  0  0  0  0  0  0  0
    8.2638    8.6876   -8.5337 H   0  0  0  0  0  0  0  0  0  0  0  0
    9.6008    9.7722   -8.6935 H   0  0  0  0  0  0  0  0  0  0  0  0
   10.3360    8.7118  -10.7987 H   0  0  0  0  0  0  0  0  0  0  0  0
    8.6715    9.2695  -10.9000 H   0  0  0  0  0  0  0  0  0  0  0  0
    6.0718    6.3767  -11.8473 H   0  0  0  0  0  0  0  0  0  0  0  0
    7.9264    7.1509  -10.3981 H   0  0  0  0  0  0  0  0  0  0  0  0
  2  1  1  0
  3  2  2  0
  4  3  1  0
  5  4  2  0
  6  5  1  0
  7  6  1  0
  8  7  1  0
  9  8  1  0
 10  9  1  0
 11 10  1  0
 12 11  1  0
 13 12  2  0
 14 13  1  0
 15 14  2  0
 16 11  2  0
 16 15  1  0
 17 15  1  0
 18 17  1  0
 19 18  1  0
 20 14  1  0
 20 19  1  0
 21 10  1  0
 22  7  1  0
 22 21  1  0
 23  5  1  0
 24  2  1  0
 24 23  2  0
 25  3  1  0
 26  4  1  0
 27  6  1  0
 28  6  1  0
 29  8  1  0
 30  8  1  0
 31  9  1  0
 32  9  1  0
 33 12  1  0
 34 13  1  0
 35 16  1  0
 36 18  1  0
 37 18  1  0
 38 19  1  0
 39 19  1  0
 40 21  1  0
 41 21  1  0
 42 22  1  0
 43 22  1  0
 44 23  1  0
 45  7  1  0
M  CHG  1   7   1
M  END
>  <b_m_subgroup_collapsed>  (492) 
0

>  <r_i_docking_score>  (492) 
-7.9109229400964898

>  <s_m_subgroup_title>  (492) 
glide-dock_SP_D22_pv

>  <s_m_subgroupid>  (492) 
glide-dock_SP_D22_pv

>  <Molecule ChEMBL ID>  (492) 
CHEMBL1923416

>  <Standard Type>  (492) 
Ki

>  <Standard Value>  (492) 
29000.0

>  <label>  (492) 
0

$$$$
CHEMBL540039
     RDKit          3D

 49 52  0  0  1  0  0  0  0  0999 V2000
    6.0860    2.5281  -13.8039 C   0  0  0  0  0  0  0  0  0  0  0  0
    5.6081    3.5522  -12.9655 C   0  0  0  0  0  0  0  0  0  0  0  0
    6.4729    4.5771  -12.5357 C   0  0  0  0  0  0  0  0  0  0  0  0
    7.8250    4.5827  -12.9485 C   0  0  0  0  0  0  0  0  0  0  0  0
    8.7454    5.6155  -12.4638 C   0  0  0  0  0  0  0  0  0  0  0  0
   10.0080    5.7783  -12.8834 N   0  0  0  0  0  0  0  0  0  0  0  0
   10.6710    6.9154  -12.2427 C   0  0  0  0  0  0  0  0  0  0  0  0
    9.6188    7.4169  -11.2468 C   0  0  2  0  0  0  0  0  0  0  0  0
   10.0254    7.2731   -9.7672 C   0  0  0  0  0  0  0  0  0  0  0  0
   10.0165    8.6004   -9.1677 N   0  0  0  0  0  0  0  0  0  0  0  0
    9.0695    8.7174   -8.0515 C   0  0  0  0  0  0  0  0  0  0  0  0
    9.6099    8.0480   -6.7760 C   0  0  0  0  0  0  0  0  0  0  0  0
   10.8847    8.6581   -6.4297 N   0  0  0  0  0  0  0  0  0  0  0  0
   11.3658    8.4098   -5.1406 C   0  0  0  0  0  0  0  0  0  0  0  0
   11.6822    9.5132   -4.3257 C   0  0  0  0  0  0  0  0  0  0  0  0
   12.1875    9.3210   -3.0273 C   0  0  0  0  0  0  0  0  0  0  0  0
   12.3828    8.0179   -2.5360 C   0  0  0  0  0  0  0  0  0  0  0  0
   12.0627    6.9094   -3.3438 C   0  0  0  0  0  0  0  0  0  0  0  0
   11.5564    7.1006   -4.6459 C   0  0  0  0  0  0  0  0  0  0  0  0
   11.8707    8.4857   -7.4883 C   0  0  0  0  0  0  0  0  0  0  0  0
   11.3489    9.0938   -8.8079 C   0  0  0  0  0  0  0  0  0  0  0  0
    8.4860    6.5459  -11.5340 N   0  0  0  0  0  0  0  0  0  0  0  0
    8.2885    3.5688  -13.8218 C   0  0  0  0  0  0  0  0  0  0  0  0
    7.4202    2.5460  -14.2480 C   0  0  0  0  0  0  0  0  0  0  0  0
    5.4258    1.7312  -14.1136 H   0  0  0  0  0  0  0  0  0  0  0  0
    4.5766    3.5453  -12.6474 H   0  0  0  0  0  0  0  0  0  0  0  0
    6.0901    5.3411  -11.8724 H   0  0  0  0  0  0  0  0  0  0  0  0
   11.6029    6.6098  -11.7725 H   0  0  0  0  0  0  0  0  0  0  0  0
   10.9033    7.6800  -12.9843 H   0  0  0  0  0  0  0  0  0  0  0  0
    9.3308    8.4421  -11.4869 H   0  0  0  0  0  0  0  0  0  0  0  0
    9.3331    6.6099   -9.2449 H   0  0  0  0  0  0  0  0  0  0  0  0
   11.0071    6.8091   -9.6683 H   0  0  0  0  0  0  0  0  0  0  0  0
    8.8897    9.7715   -7.8533 H   0  0  0  0  0  0  0  0  0  0  0  0
    8.1027    8.2943   -8.3197 H   0  0  0  0  0  0  0  0  0  0  0  0
    8.8949    8.1740   -5.9639 H   0  0  0  0  0  0  0  0  0  0  0  0
    9.7308    6.9746   -6.9260 H   0  0  0  0  0  0  0  0  0  0  0  0
   11.5353   10.5153   -4.7016 H   0  0  0  0  0  0  0  0  0  0  0  0
   12.4400   10.1739   -2.4123 H   0  0  0  0  0  0  0  0  0  0  0  0
   12.7758    7.8713   -1.5408 H   0  0  0  0  0  0  0  0  0  0  0  0
   12.2066    5.9076   -2.9656 H   0  0  0  0  0  0  0  0  0  0  0  0
   11.3197    6.2414   -5.2568 H   0  0  0  0  0  0  0  0  0  0  0  0
   12.8067    8.9720   -7.2083 H   0  0  0  0  0  0  0  0  0  0  0  0
   12.0849    7.4242   -7.6165 H   0  0  0  0  0  0  0  0  0  0  0  0
   12.0532    8.9177   -9.6219 H   0  0  0  0  0  0  0  0  0  0  0  0
   11.2845   10.1720   -8.6984 H   0  0  0  0  0  0  0  0  0  0  0  0
    7.5774    6.7500  -11.1026 H   0  0  0  0  0  0  0  0  0  0  0  0
    9.3154    3.5450  -14.1553 H   0  0  0  0  0  0  0  0  0  0  0  0
    7.7833    1.7627  -14.8979 H   0  0  0  0  0  0  0  0  0  0  0  0
   10.4472    5.2203  -13.6000 H   0  0  0  0  0  0  0  0  0  0  0  0
  2  1  2  0
  3  2  1  0
  4  3  2  0
  5  4  1  0
  6  5  2  0
  7  6  1  0
  8  7  1  0
  9  8  1  0
 10  9  1  0
 11 10  1  0
 12 11  1  0
 13 12  1  0
 14 13  1  0
 15 14  2  0
 16 15  1  0
 17 16  2  0
 18 17  1  0
 19 14  1  0
 19 18  2  0
 20 13  1  0
 21 10  1  0
 21 20  1  0
 22  5  1  0
 22  8  1  0
 23  4  1  0
 24  1  1  0
 24 23  2  0
 25  1  1  0
 26  2  1  0
 27  3  1  0
 28  7  1  0
 29  7  1  0
  8 30  1  6
 31  9  1  0
 32  9  1  0
 33 11  1  0
 34 11  1  0
 35 12  1  0
 36 12  1  0
 37 15  1  0
 38 16  1  0
 39 17  1  0
 40 18  1  0
 41 19  1  0
 42 20  1  0
 43 20  1  0
 44 21  1  0
 45 21  1  0
 46 22  1  0
 47 23  1  0
 48 24  1  0
 49  6  1  0
M  CHG  1   6   1
M  END
>  <b_m_subgroup_collapsed>  (493) 
0

>  <r_i_docking_score>  (493) 
-7.9066110384934403

>  <s_m_subgroup_title>  (493) 
glide-dock_SP_D22_pv

>  <s_m_subgroupid>  (493) 
glide-dock_SP_D22_pv

>  <Molecule ChEMBL ID>  (493) 
CHEMBL540039

>  <Standard Type>  (493) 
Ki

>  <Standard Value>  (493) 
10000.0

>  <label>  (493) 
0

$$$$
CHEMBL282927
     RDKit          3D

 57 60  0  0  1  0  0  0  0  0999 V2000
   11.6851    6.9762   -4.2471 N   0  0  0  0  0  0  0  0  0  0  0  0
   11.6860    8.2740   -4.5550 C   0  0  0  0  0  0  0  0  0  0  0  0
   12.3765    9.0825   -3.9410 O   0  0  0  0  0  0  0  0  0  0  0  0
   10.7918    8.7387   -5.7168 C   0  0  1  0  0  0  0  0  0  0  0  0
   11.6019    9.2794   -6.8981 C   0  0  0  0  0  0  0  0  0  0  0  0
   11.2380    8.3385   -8.0309 C   0  0  0  0  0  0  0  0  0  0  0  0
    9.8416    7.8246   -7.6431 C   0  0  1  0  0  0  0  0  0  0  0  0
    9.4126    6.4569   -8.2376 C   0  0  0  0  0  0  0  0  0  0  0  0
    8.8861    6.4564   -9.6399 N   0  0  0  0  0  0  0  0  0  0  0  0
    9.7950    7.1367  -10.5982 C   0  0  0  0  0  0  0  0  0  0  0  0
    9.3671    7.0055  -12.0617 C   0  0  0  0  0  0  0  0  0  0  0  0
    9.1458    5.5561  -12.4769 C   0  0  0  0  0  0  0  0  0  0  0  0
    9.7403    4.9144  -13.5311 C   0  0  0  0  0  0  0  0  0  0  0  0
    9.3293    3.5554  -13.9556 C   0  0  0  0  0  0  0  0  0  0  0  0
    7.9802    3.2485  -14.2461 C   0  0  0  0  0  0  0  0  0  0  0  0
    7.6155    1.9681  -14.7054 C   0  0  0  0  0  0  0  0  0  0  0  0
    8.6013    0.9833  -14.9025 C   0  0  0  0  0  0  0  0  0  0  0  0
    9.9514    1.2864  -14.6477 C   0  0  0  0  0  0  0  0  0  0  0  0
   10.3111    2.5646  -14.1778 C   0  0  0  0  0  0  0  0  0  0  0  0
   10.8136    5.5125  -14.3722 C   0  0  0  0  0  0  0  0  0  0  0  0
   11.9124    6.2115  -13.8186 C   0  0  0  0  0  0  0  0  0  0  0  0
   12.8835    6.8070  -14.6471 C   0  0  0  0  0  0  0  0  0  0  0  0
   12.8024    6.6729  -16.0430 C   0  0  0  0  0  0  0  0  0  0  0  0
   13.7401    7.2425  -16.8352 F   0  0  0  0  0  0  0  0  0  0  0  0
   11.7408    5.9448  -16.6103 C   0  0  0  0  0  0  0  0  0  0  0  0
   10.7564    5.3725  -15.7817 C   0  0  0  0  0  0  0  0  0  0  0  0
    8.1145    4.9424  -11.5346 C   0  0  0  0  0  0  0  0  0  0  0  0
    8.5563    5.0649  -10.0626 C   0  0  0  0  0  0  0  0  0  0  0  0
   10.0329    7.6471   -6.2432 O   0  0  0  0  0  0  0  0  0  0  0  0
   12.2459    6.6405   -3.4795 H   0  0  0  0  0  0  0  0  0  0  0  0
   11.0883    6.3531   -4.7728 H   0  0  0  0  0  0  0  0  0  0  0  0
   10.0980    9.5056   -5.3652 H   0  0  0  0  0  0  0  0  0  0  0  0
   11.2861   10.2978   -7.1193 H   0  0  0  0  0  0  0  0  0  0  0  0
   12.6802    9.3078   -6.7290 H   0  0  0  0  0  0  0  0  0  0  0  0
   11.9494    7.5126   -8.0552 H   0  0  0  0  0  0  0  0  0  0  0  0
   11.2904    8.8554   -8.9870 H   0  0  0  0  0  0  0  0  0  0  0  0
    9.0759    8.5863   -7.8037 H   0  0  0  0  0  0  0  0  0  0  0  0
    8.6169    6.0567   -7.6076 H   0  0  0  0  0  0  0  0  0  0  0  0
   10.2449    5.7561   -8.1513 H   0  0  0  0  0  0  0  0  0  0  0  0
   10.8112    6.7531  -10.4801 H   0  0  0  0  0  0  0  0  0  0  0  0
    9.8048    8.2025  -10.3765 H   0  0  0  0  0  0  0  0  0  0  0  0
   10.0949    7.5424  -12.6540 H   0  0  0  0  0  0  0  0  0  0  0  0
    8.4258    7.5379  -12.2113 H   0  0  0  0  0  0  0  0  0  0  0  0
    7.2137    3.9994  -14.1208 H   0  0  0  0  0  0  0  0  0  0  0  0
    6.5798    1.7435  -14.9130 H   0  0  0  0  0  0  0  0  0  0  0  0
    8.3242   -0.0004  -15.2569 H   0  0  0  0  0  0  0  0  0  0  0  0
   10.7135    0.5367  -14.8043 H   0  0  0  0  0  0  0  0  0  0  0  0
   11.3531    2.7774  -13.9868 H   0  0  0  0  0  0  0  0  0  0  0  0
   12.0133    6.3099  -12.7487 H   0  0  0  0  0  0  0  0  0  0  0  0
   13.6875    7.3711  -14.2076 H   0  0  0  0  0  0  0  0  0  0  0  0
   11.6754    5.8387  -17.6829 H   0  0  0  0  0  0  0  0  0  0  0  0
    9.9376    4.8375  -16.2401 H   0  0  0  0  0  0  0  0  0  0  0  0
    7.1619    5.4569  -11.6772 H   0  0  0  0  0  0  0  0  0  0  0  0
    7.9316    3.8910  -11.7428 H   0  0  0  0  0  0  0  0  0  0  0  0
    9.4293    4.4284   -9.9086 H   0  0  0  0  0  0  0  0  0  0  0  0
    7.7675    4.6759   -9.4182 H   0  0  0  0  0  0  0  0  0  0  0  0
    8.0026    6.9713   -9.6587 H   0  0  0  0  0  0  0  0  0  0  0  0
  2  1  1  0
  3  2  2  0
  4  2  1  0
  5  4  1  0
  6  5  1  0
  7  6  1  0
  8  7  1  0
  9  8  1  0
 10  9  1  0
 11 10  1  0
 12 11  1  0
 13 12  2  0
 14 13  1  0
 15 14  2  0
 16 15  1  0
 17 16  2  0
 18 17  1  0
 19 14  1  0
 19 18  2  0
 20 13  1  0
 21 20  1  0
 22 21  2  0
 23 22  1  0
 24 23  1  0
 25 23  2  0
 26 20  2  0
 26 25  1  0
 27 12  1  0
 28  9  1  0
 28 27  1  0
 29  4  1  0
 29  7  1  0
 30  1  1  0
 31  1  1  0
  4 32  1  1
 33  5  1  0
 34  5  1  0
 35  6  1  0
 36  6  1  0
  7 37  1  1
 38  8  1  0
 39  8  1  0
 40 10  1  0
 41 10  1  0
 42 11  1  0
 43 11  1  0
 44 15  1  0
 45 16  1  0
 46 17  1  0
 47 18  1  0
 48 19  1  0
 49 21  1  0
 50 22  1  0
 51 25  1  0
 52 26  1  0
 53 27  1  0
 54 27  1  0
 55 28  1  0
 56 28  1  0
 57  9  1  0
M  CHG  1   9   1
M  END
>  <b_m_subgroup_collapsed>  (494) 
0

>  <r_i_docking_score>  (494) 
-7.9034623473878796

>  <s_m_subgroup_title>  (494) 
glide-dock_SP_D22_pv

>  <s_m_subgroupid>  (494) 
glide-dock_SP_D22_pv

>  <Molecule ChEMBL ID>  (494) 
CHEMBL282927

>  <Standard Type>  (494) 
Ki

>  <Standard Value>  (494) 
100.0

>  <label>  (494) 
1

$$$$
CHEMBL283142
     RDKit          3D

 55 56  0  0  1  0  0  0  0  0999 V2000
    8.6736    1.3294  -16.8309 C   0  0  0  0  0  0  0  0  0  0  0  0
    9.1965    1.3275  -15.3754 C   0  0  0  0  0  0  0  0  0  0  0  0
   10.4867    0.4861  -15.3071 C   0  0  0  0  0  0  0  0  0  0  0  0
    8.1157    0.6977  -14.4700 C   0  0  0  0  0  0  0  0  0  0  0  0
    9.5059    2.7745  -14.9188 C   0  0  0  0  0  0  0  0  0  0  0  0
    9.5592    3.6969  -15.7341 O   0  0  0  0  0  0  0  0  0  0  0  0
    9.7052    2.9705  -13.6077 N   0  0  0  0  0  0  0  0  0  0  0  0
    9.9748    4.2498  -12.9673 C   0  0  0  0  0  0  0  0  0  0  0  0
    8.6901    5.0907  -12.7986 C   0  0  0  0  0  0  0  0  0  0  0  0
    8.8359    6.2259  -11.7672 C   0  0  0  0  0  0  0  0  0  0  0  0
    8.8143    5.6838  -10.3227 C   0  0  0  0  0  0  0  0  0  0  0  0
    8.9922    6.7143   -9.2677 N   0  0  0  0  0  0  0  0  0  0  0  0
   10.3298    7.3812   -9.3232 C   0  0  0  0  0  0  0  0  0  0  0  0
   10.5973    8.3319   -8.1379 C   0  0  0  0  0  0  0  0  0  0  0  0
   10.2979    7.6703   -6.8755 N   0  0  0  0  0  0  0  0  0  0  0  0
   11.0408    7.8630   -5.6863 C   0  0  0  0  0  0  0  0  0  0  0  0
   11.2854    6.7362   -4.8707 C   0  0  0  0  0  0  0  0  0  0  0  0
   11.9529    6.8375   -3.6361 C   0  0  0  0  0  0  0  0  0  0  0  0
   12.4051    8.0869   -3.1924 C   0  0  0  0  0  0  0  0  0  0  0  0
   12.1938    9.2179   -3.9954 C   0  0  0  0  0  0  0  0  0  0  0  0
   11.5253    9.1188   -5.2339 C   0  0  0  0  0  0  0  0  0  0  0  0
   11.2881   10.5722   -6.1224 Cl  0  0  0  0  0  0  0  0  0  0  0  0
    8.9684    7.0890   -6.7767 C   0  0  0  0  0  0  0  0  0  0  0  0
    8.7175    6.1173   -7.9329 C   0  0  0  0  0  0  0  0  0  0  0  0
    7.7691    1.9328  -16.9285 H   0  0  0  0  0  0  0  0  0  0  0  0
    9.4151    1.7310  -17.5243 H   0  0  0  0  0  0  0  0  0  0  0  0
    8.4310    0.3199  -17.1660 H   0  0  0  0  0  0  0  0  0  0  0  0
   10.8809    0.4289  -14.2919 H   0  0  0  0  0  0  0  0  0  0  0  0
   10.3077   -0.5366  -15.6432 H   0  0  0  0  0  0  0  0  0  0  0  0
   11.2723    0.9059  -15.9373 H   0  0  0  0  0  0  0  0  0  0  0  0
    7.2256    1.3257  -14.4104 H   0  0  0  0  0  0  0  0  0  0  0  0
    7.8014   -0.2746  -14.8511 H   0  0  0  0  0  0  0  0  0  0  0  0
    8.4787    0.5366  -13.4550 H   0  0  0  0  0  0  0  0  0  0  0  0
    9.6856    2.1547  -13.0047 H   0  0  0  0  0  0  0  0  0  0  0  0
   10.7282    4.8028  -13.5266 H   0  0  0  0  0  0  0  0  0  0  0  0
   10.4165    4.0135  -12.0030 H   0  0  0  0  0  0  0  0  0  0  0  0
    7.8527    4.4522  -12.5102 H   0  0  0  0  0  0  0  0  0  0  0  0
    8.4236    5.5175  -13.7660 H   0  0  0  0  0  0  0  0  0  0  0  0
    8.0118    6.9312  -11.8907 H   0  0  0  0  0  0  0  0  0  0  0  0
    9.7505    6.7782  -11.9861 H   0  0  0  0  0  0  0  0  0  0  0  0
    9.5775    4.9199  -10.1818 H   0  0  0  0  0  0  0  0  0  0  0  0
    7.8535    5.1863  -10.1678 H   0  0  0  0  0  0  0  0  0  0  0  0
   10.4327    7.9452  -10.2481 H   0  0  0  0  0  0  0  0  0  0  0  0
   11.1027    6.6114   -9.3350 H   0  0  0  0  0  0  0  0  0  0  0  0
    9.9652    9.2161   -8.2297 H   0  0  0  0  0  0  0  0  0  0  0  0
   11.6358    8.6679   -8.1610 H   0  0  0  0  0  0  0  0  0  0  0  0
   10.9306    5.7723   -5.1904 H   0  0  0  0  0  0  0  0  0  0  0  0
   12.1098    5.9579   -3.0311 H   0  0  0  0  0  0  0  0  0  0  0  0
   12.9098    8.1817   -2.2438 H   0  0  0  0  0  0  0  0  0  0  0  0
   12.5449   10.1721   -3.6421 H   0  0  0  0  0  0  0  0  0  0  0  0
    8.8594    6.5429   -5.8465 H   0  0  0  0  0  0  0  0  0  0  0  0
    8.2225    7.8872   -6.7778 H   0  0  0  0  0  0  0  0  0  0  0  0
    7.6869    5.7703   -7.8894 H   0  0  0  0  0  0  0  0  0  0  0  0
    9.3508    5.2377   -7.8013 H   0  0  0  0  0  0  0  0  0  0  0  0
    8.2655    7.4103   -9.4222 H   0  0  0  0  0  0  0  0  0  0  0  0
  2  1  1  0
  3  2  1  0
  4  2  1  0
  5  2  1  0
  6  5  2  0
  7  5  1  0
  8  7  1  0
  9  8  1  0
 10  9  1  0
 11 10  1  0
 12 11  1  0
 13 12  1  0
 14 13  1  0
 15 14  1  0
 16 15  1  0
 17 16  2  0
 18 17  1  0
 19 18  2  0
 20 19  1  0
 21 16  1  0
 21 20  2  0
 22 21  1  0
 23 15  1  0
 24 12  1  0
 24 23  1  0
 25  1  1  0
 26  1  1  0
 27  1  1  0
 28  3  1  0
 29  3  1  0
 30  3  1  0
 31  4  1  0
 32  4  1  0
 33  4  1  0
 34  7  1  0
 35  8  1  0
 36  8  1  0
 37  9  1  0
 38  9  1  0
 39 10  1  0
 40 10  1  0
 41 11  1  0
 42 11  1  0
 43 13  1  0
 44 13  1  0
 45 14  1  0
 46 14  1  0
 47 17  1  0
 48 18  1  0
 49 19  1  0
 50 20  1  0
 51 23  1  0
 52 23  1  0
 53 24  1  0
 54 24  1  0
 55 12  1  0
M  CHG  1  12   1
M  END
>  <b_m_subgroup_collapsed>  (495) 
0

>  <r_i_docking_score>  (495) 
-7.8996972234811702

>  <s_m_subgroup_title>  (495) 
glide-dock_SP_D22_pv

>  <s_m_subgroupid>  (495) 
glide-dock_SP_D22_pv

>  <Molecule ChEMBL ID>  (495) 
CHEMBL283142

>  <Standard Type>  (495) 
Ki

>  <Standard Value>  (495) 
63.1

>  <label>  (495) 
1

$$$$
CHEMBL4072821
     RDKit          3D

 66 69  0  0  1  0  0  0  0  0999 V2000
   15.7818   -0.5459  -20.1077 C   0  0  0  0  0  0  0  0  0  0  0  0
   14.2695   -0.7811  -20.0422 C   0  0  0  0  0  0  0  0  0  0  0  0
   13.6670    0.2429  -19.2631 O   0  0  0  0  0  0  0  0  0  0  0  0
   12.4850    0.0230  -18.6471 C   0  0  0  0  0  0  0  0  0  0  0  0
   11.8513   -1.0272  -18.7642 O   0  0  0  0  0  0  0  0  0  0  0  0
   12.0705    1.1225  -17.7788 C   0  0  0  0  0  0  0  0  0  0  0  0
   11.0536    0.9710  -16.7953 C   0  0  0  0  0  0  0  0  0  0  0  0
   11.0021    2.1679  -16.1400 C   0  0  0  0  0  0  0  0  0  0  0  0
   10.2634    2.6955  -15.0516 C   0  0  0  0  0  0  0  0  0  0  0  0
   10.4699    4.0066  -14.6495 C   0  0  0  0  0  0  0  0  0  0  0  0
    9.7892    4.6082  -13.6101 O   0  0  0  0  0  0  0  0  0  0  0  0
    8.9243    3.7901  -12.8318 C   0  0  0  0  0  0  0  0  0  0  0  0
    8.2620    4.5886  -11.7048 C   0  0  0  0  0  0  0  0  0  0  0  0
    9.2654    5.0979  -10.6615 C   0  0  0  0  0  0  0  0  0  0  0  0
    8.5699    5.6607   -9.4095 C   0  0  0  0  0  0  0  0  0  0  0  0
    9.4554    6.5762   -8.6458 N   0  0  0  0  0  0  0  0  0  0  0  0
   10.4420    5.8271   -7.8493 C   0  0  0  0  0  0  0  0  0  0  0  0
   11.4917    6.7606   -7.2454 C   0  0  0  0  0  0  0  0  0  0  0  0
   10.8221    7.7564   -6.4207 N   0  0  0  0  0  0  0  0  0  0  0  0
   11.2857    8.0412   -5.1173 C   0  0  0  0  0  0  0  0  0  0  0  0
   11.6860    6.9715   -4.2796 C   0  0  0  0  0  0  0  0  0  0  0  0
   12.0869    7.1925   -2.9500 C   0  0  0  0  0  0  0  0  0  0  0  0
   12.1059    8.4985   -2.4362 C   0  0  0  0  0  0  0  0  0  0  0  0
   11.7156    9.5726   -3.2525 C   0  0  0  0  0  0  0  0  0  0  0  0
   11.3131    9.3621   -4.5862 C   0  0  0  0  0  0  0  0  0  0  0  0
   10.9583   10.4679   -5.3158 O   0  0  0  0  0  0  0  0  0  0  0  0
   11.9300   10.8287   -6.2816 C   0  0  0  0  0  0  0  0  0  0  0  0
    9.6963    8.4783   -7.0141 C   0  0  0  0  0  0  0  0  0  0  0  0
    8.7363    7.5480   -7.7802 C   0  0  0  0  0  0  0  0  0  0  0  0
   11.4298    4.7973  -15.3350 C   0  0  0  0  0  0  0  0  0  0  0  0
   12.1606    4.2840  -16.3839 C   0  0  0  0  0  0  0  0  0  0  0  0
   11.9442    2.9975  -16.7685 N   0  0  0  0  0  0  0  0  0  0  0  0
   12.5859    2.3389  -17.7864 N   0  0  0  0  0  0  0  0  0  0  0  0
   16.2656   -1.3201  -20.7039 H   0  0  0  0  0  0  0  0  0  0  0  0
   16.0132    0.4195  -20.5575 H   0  0  0  0  0  0  0  0  0  0  0  0
   16.2249   -0.5703  -19.1120 H   0  0  0  0  0  0  0  0  0  0  0  0
   14.0803   -1.7643  -19.6081 H   0  0  0  0  0  0  0  0  0  0  0  0
   13.8374   -0.7760  -21.0432 H   0  0  0  0  0  0  0  0  0  0  0  0
   10.4777    0.0800  -16.5915 H   0  0  0  0  0  0  0  0  0  0  0  0
    9.5497    2.0386  -14.5683 H   0  0  0  0  0  0  0  0  0  0  0  0
    9.5011    2.9722  -12.4019 H   0  0  0  0  0  0  0  0  0  0  0  0
    8.1410    3.3676  -13.4625 H   0  0  0  0  0  0  0  0  0  0  0  0
    7.5247    3.9528  -11.2138 H   0  0  0  0  0  0  0  0  0  0  0  0
    7.7040    5.4277  -12.1239 H   0  0  0  0  0  0  0  0  0  0  0  0
    9.8852    5.8658  -11.1262 H   0  0  0  0  0  0  0  0  0  0  0  0
    9.9367    4.2877  -10.3760 H   0  0  0  0  0  0  0  0  0  0  0  0
    8.2083    4.8534   -8.7705 H   0  0  0  0  0  0  0  0  0  0  0  0
    7.6802    6.1724   -9.7372 H   0  0  0  0  0  0  0  0  0  0  0  0
   10.8860    5.0252   -8.4301 H   0  0  0  0  0  0  0  0  0  0  0  0
    9.8794    5.3723   -7.0464 H   0  0  0  0  0  0  0  0  0  0  0  0
   12.0458    7.2766   -8.0304 H   0  0  0  0  0  0  0  0  0  0  0  0
   12.2186    6.1718   -6.6876 H   0  0  0  0  0  0  0  0  0  0  0  0
   11.6448    5.9523   -4.6326 H   0  0  0  0  0  0  0  0  0  0  0  0
   12.3695    6.3568   -2.3257 H   0  0  0  0  0  0  0  0  0  0  0  0
   12.4071    8.6788   -1.4152 H   0  0  0  0  0  0  0  0  0  0  0  0
   11.7266   10.5724   -2.8477 H   0  0  0  0  0  0  0  0  0  0  0  0
   11.6860   11.7713   -6.7660 H   0  0  0  0  0  0  0  0  0  0  0  0
   12.9067   10.9679   -5.8469 H   0  0  0  0  0  0  0  0  0  0  0  0
   12.0366   10.0654   -7.0468 H   0  0  0  0  0  0  0  0  0  0  0  0
    9.1206    8.9869   -6.2456 H   0  0  0  0  0  0  0  0  0  0  0  0
   10.0775    9.2396   -7.6938 H   0  0  0  0  0  0  0  0  0  0  0  0
    8.0913    8.1790   -8.3836 H   0  0  0  0  0  0  0  0  0  0  0  0
    8.0966    7.0122   -7.0751 H   0  0  0  0  0  0  0  0  0  0  0  0
   11.5971    5.8241  -15.0256 H   0  0  0  0  0  0  0  0  0  0  0  0
   12.9097    4.8466  -16.9315 H   0  0  0  0  0  0  0  0  0  0  0  0
    9.9563    7.1272   -9.3267 H   0  0  0  0  0  0  0  0  0  0  0  0
  2  1  1  0
  3  2  1  0
  4  3  1  0
  5  4  2  0
  6  4  1  0
  7  6  1  0
  8  7  2  0
  9  8  1  0
 10  9  2  0
 11 10  1  0
 12 11  1  0
 13 12  1  0
 14 13  1  0
 15 14  1  0
 16 15  1  0
 17 16  1  0
 18 17  1  0
 19 18  1  0
 20 19  1  0
 21 20  2  0
 22 21  1  0
 23 22  2  0
 24 23  1  0
 25 20  1  0
 25 24  2  0
 26 25  1  0
 27 26  1  0
 28 19  1  0
 29 16  1  0
 29 28  1  0
 30 10  1  0
 31 30  2  0
 32  8  1  0
 32 31  1  0
 33  6  2  0
 33 32  1  0
 34  1  1  0
 35  1  1  0
 36  1  1  0
 37  2  1  0
 38  2  1  0
 39  7  1  0
 40  9  1  0
 41 12  1  0
 42 12  1  0
 43 13  1  0
 44 13  1  0
 45 14  1  0
 46 14  1  0
 47 15  1  0
 48 15  1  0
 49 17  1  0
 50 17  1  0
 51 18  1  0
 52 18  1  0
 53 21  1  0
 54 22  1  0
 55 23  1  0
 56 24  1  0
 57 27  1  0
 58 27  1  0
 59 27  1  0
 60 28  1  0
 61 28  1  0
 62 29  1  0
 63 29  1  0
 64 30  1  0
 65 31  1  0
 66 16  1  0
M  CHG  1  16   1
M  END
>  <b_m_subgroup_collapsed>  (496) 
0

>  <r_i_docking_score>  (496) 
-7.8992203401374796

>  <s_m_subgroup_title>  (496) 
glide-dock_SP_D22_pv

>  <s_m_subgroupid>  (496) 
glide-dock_SP_D22_pv

>  <Molecule ChEMBL ID>  (496) 
CHEMBL4072821

>  <Standard Type>  (496) 
Ki

>  <Standard Value>  (496) 
7.4

>  <label>  (496) 
1

$$$$
CHEMBL5982641
     RDKit          3D

 51 55  0  0  1  0  0  0  0  0999 V2000
   12.0864    2.4681  -16.6564 C   0  0  0  0  0  0  0  0  0  0  0  0
   11.7520    3.4591  -15.5977 C   0  0  0  0  0  0  0  0  0  0  0  0
   12.5033    4.4859  -15.1897 N   0  0  0  0  0  0  0  0  0  0  0  0
   11.7433    5.0660  -14.1899 C   0  0  0  0  0  0  0  0  0  0  0  0
   10.5823    4.3849  -14.0537 C   0  0  0  0  0  0  0  0  0  0  0  0
   10.5632    3.3399  -14.9371 O   0  0  0  0  0  0  0  0  0  0  0  0
    9.4955    4.7031  -13.1298 C   0  0  0  0  0  0  0  0  0  0  0  0
    8.5024    3.9804  -13.0484 O   0  0  0  0  0  0  0  0  0  0  0  0
    9.6683    5.8598  -12.4375 N   0  0  0  0  0  0  0  0  0  0  0  0
    8.5737    6.3979  -11.6151 C   0  0  0  0  0  0  0  0  0  0  0  0
    8.6128    5.8970  -10.1545 C   0  0  0  0  0  0  0  0  0  0  0  0
    9.7440    6.3948   -9.3677 N   0  0  0  0  0  0  0  0  0  0  0  0
    9.7711    7.8602   -9.2700 C   0  0  0  0  0  0  0  0  0  0  0  0
   11.0551    8.2754   -8.5383 C   0  0  0  0  0  0  0  0  0  0  0  0
   11.0727    7.7031   -7.1969 N   0  0  0  0  0  0  0  0  0  0  0  0
   11.1907    8.5303   -6.0669 C   0  0  0  0  0  0  0  0  0  0  0  0
   10.9231    9.8331   -6.1078 N   0  0  0  0  0  0  0  0  0  0  0  0
   11.1992   10.3560   -4.8187 O   0  0  0  0  0  0  0  0  0  0  0  0
   11.6666    9.3489   -3.9913 C   0  0  0  0  0  0  0  0  0  0  0  0
   12.0857    9.3749   -2.6561 C   0  0  0  0  0  0  0  0  0  0  0  0
   12.4804    8.1663   -2.0611 C   0  0  0  0  0  0  0  0  0  0  0  0
   12.4663    6.9711   -2.8113 C   0  0  0  0  0  0  0  0  0  0  0  0
   12.0625    6.9726   -4.1662 C   0  0  0  0  0  0  0  0  0  0  0  0
   11.6450    8.1858   -4.7638 C   0  0  0  0  0  0  0  0  0  0  0  0
   10.7896    6.2760   -7.1136 C   0  0  0  0  0  0  0  0  0  0  0  0
    9.5888    5.8871   -8.0005 C   0  0  0  0  0  0  0  0  0  0  0  0
   10.8489    6.7642  -12.5638 C   0  0  0  0  0  0  0  0  0  0  0  0
   12.0871    6.2504  -13.3610 C   0  0  0  0  0  0  0  0  0  0  0  0
   13.0829    2.6651  -17.0536 H   0  0  0  0  0  0  0  0  0  0  0  0
   12.0674    1.4593  -16.2447 H   0  0  0  0  0  0  0  0  0  0  0  0
   11.3631    2.5359  -17.4690 H   0  0  0  0  0  0  0  0  0  0  0  0
    7.6118    6.1005  -12.0377 H   0  0  0  0  0  0  0  0  0  0  0  0
    8.5361    7.4835  -11.6758 H   0  0  0  0  0  0  0  0  0  0  0  0
    8.6318    4.8055  -10.1600 H   0  0  0  0  0  0  0  0  0  0  0  0
    7.6864    6.1720   -9.6552 H   0  0  0  0  0  0  0  0  0  0  0  0
    8.8832    8.2351   -8.7582 H   0  0  0  0  0  0  0  0  0  0  0  0
    9.7898    8.3274  -10.2509 H   0  0  0  0  0  0  0  0  0  0  0  0
   11.1374    9.3613   -8.5251 H   0  0  0  0  0  0  0  0  0  0  0  0
   11.9290    7.9140   -9.0804 H   0  0  0  0  0  0  0  0  0  0  0  0
   12.0868   10.2990   -2.1025 H   0  0  0  0  0  0  0  0  0  0  0  0
   12.8055    8.1607   -1.0333 H   0  0  0  0  0  0  0  0  0  0  0  0
   12.7784    6.0435   -2.3507 H   0  0  0  0  0  0  0  0  0  0  0  0
   12.0856    6.0459   -4.7173 H   0  0  0  0  0  0  0  0  0  0  0  0
   11.6763    5.7181   -7.4114 H   0  0  0  0  0  0  0  0  0  0  0  0
   10.5391    5.9965   -6.0944 H   0  0  0  0  0  0  0  0  0  0  0  0
    8.6644    6.2744   -7.5642 H   0  0  0  0  0  0  0  0  0  0  0  0
    9.4942    4.8013   -8.0245 H   0  0  0  0  0  0  0  0  0  0  0  0
   10.4965    7.6763  -13.0428 H   0  0  0  0  0  0  0  0  0  0  0  0
   11.1873    7.0738  -11.5763 H   0  0  0  0  0  0  0  0  0  0  0  0
   12.8842    5.9907  -12.6604 H   0  0  0  0  0  0  0  0  0  0  0  0
   12.4895    7.0508  -13.9831 H   0  0  0  0  0  0  0  0  0  0  0  0
  2  1  1  0
  3  2  2  0
  4  3  1  0
  5  4  2  0
  6  2  1  0
  6  5  1  0
  7  5  1  0
  8  7  2  0
  9  7  1  0
 10  9  1  0
 11 10  1  0
 12 11  1  0
 13 12  1  0
 14 13  1  0
 15 14  1  0
 16 15  1  0
 17 16  2  0
 18 17  1  0
 19 18  1  0
 20 19  2  0
 21 20  1  0
 22 21  2  0
 23 22  1  0
 24 16  1  0
 24 19  1  0
 24 23  2  0
 25 15  1  0
 26 12  1  0
 26 25  1  0
 27  9  1  0
 28  4  1  0
 28 27  1  0
 29  1  1  0
 30  1  1  0
 31  1  1  0
 32 10  1  0
 33 10  1  0
 34 11  1  0
 35 11  1  0
 36 13  1  0
 37 13  1  0
 38 14  1  0
 39 14  1  0
 40 20  1  0
 41 21  1  0
 42 22  1  0
 43 23  1  0
 44 25  1  0
 45 25  1  0
 46 26  1  0
 47 26  1  0
 48 27  1  0
 49 27  1  0
 50 28  1  0
 51 28  1  0
M  END
>  <b_m_subgroup_collapsed>  (497) 
0

>  <r_i_docking_score>  (497) 
-7.8924848095835696

>  <s_m_subgroup_title>  (497) 
glide-dock_SP_D22_pv

>  <s_m_subgroupid>  (497) 
glide-dock_SP_D22_pv

>  <Molecule ChEMBL ID>  (497) 
CHEMBL5982641

>  <Standard Type>  (497) 
Ki

>  <Standard Value>  (497) 
10000.0

>  <label>  (497) 
0

$$$$
CHEMBL6025845
     RDKit          3D

 70 73  0  0  1  0  0  0  0  0999 V2000
   12.5006   -0.2596  -20.5327 C   0  0  0  0  0  0  0  0  0  0  0  0
   11.4016   -0.3201  -19.5296 C   0  0  0  0  0  0  0  0  0  0  0  0
   11.5964   -0.6278  -18.2469 N   0  0  0  0  0  0  0  0  0  0  0  0
   10.4106   -0.6207  -17.5095 C   0  0  0  0  0  0  0  0  0  0  0  0
    9.2993   -0.2921  -18.2469 C   0  0  0  0  0  0  0  0  0  0  0  0
    7.8897   -0.1458  -17.7664 C   0  0  0  0  0  0  0  0  0  0  0  0
    7.7012    1.2282  -17.1255 C   0  0  0  0  0  0  0  0  0  0  0  0
    7.2887    2.1717  -17.7988 O   0  0  0  0  0  0  0  0  0  0  0  0
    8.0508    1.3360  -15.8360 N   0  0  0  0  0  0  0  0  0  0  0  0
    8.1395    2.5804  -15.0779 C   0  0  1  0  0  0  0  0  0  0  0  0
    6.7747    2.9777  -14.4970 C   0  0  0  0  0  0  0  0  0  0  0  0
    6.8782    4.2608  -13.6529 C   0  0  0  0  0  0  0  0  0  0  0  0
    7.8189    4.0884  -12.4630 C   0  0  2  0  0  0  0  0  0  0  0  0
    7.9267    5.3647  -11.6112 C   0  0  0  0  0  0  0  0  0  0  0  0
    8.5331    5.0922  -10.2206 C   0  0  0  0  0  0  0  0  0  0  0  0
    8.6834    6.3263   -9.4130 N   0  0  1  0  0  0  0  0  0  0  0  0
    8.6557    6.0494   -7.9531 C   0  0  0  0  0  0  0  0  0  0  0  0
    8.9112    7.3195   -7.1268 C   0  0  0  0  0  0  0  0  0  0  0  0
   10.1710    7.9390   -7.5297 N   0  0  0  0  0  0  0  0  0  0  0  0
   10.7487    8.7478   -6.5275 C   0  0  0  0  0  0  0  0  0  0  0  0
   10.8861   10.0542   -6.6419 N   0  0  0  0  0  0  0  0  0  0  0  0
   11.4415   10.5004   -5.4466 O   0  0  0  0  0  0  0  0  0  0  0  0
   11.6736    9.4183   -4.6695 C   0  0  0  0  0  0  0  0  0  0  0  0
   11.2858    8.2619   -5.2917 C   0  0  0  0  0  0  0  0  0  0  0  0
   11.4589    6.8497   -4.7788 C   0  0  0  0  0  0  0  0  0  0  0  0
   12.2549    6.7962   -3.4621 C   0  0  0  0  0  0  0  0  0  0  0  0
   10.2924    6.2608   -4.5532 F   0  0  0  0  0  0  0  0  0  0  0  0
   12.0860    6.1454   -5.7154 F   0  0  0  0  0  0  0  0  0  0  0  0
   10.1088    8.3615   -8.9386 C   0  0  1  0  0  0  0  0  0  0  0  0
   11.3440    9.1203   -9.4573 C   0  0  0  0  0  0  0  0  0  0  0  0
    9.8724    7.1200   -9.8234 C   0  0  0  0  0  0  0  0  0  0  0  0
    9.2053    3.5955  -12.9674 C   0  0  0  0  0  0  0  0  0  0  0  0
    9.1564    2.4000  -13.9491 C   0  0  0  0  0  0  0  0  0  0  0  0
    9.7155   -0.0045  -19.9172 S   0  0  0  0  0  0  0  0  0  0  0  0
   12.9030    0.7524  -20.5823 H   0  0  0  0  0  0  0  0  0  0  0  0
   13.3046   -0.9436  -20.2575 H   0  0  0  0  0  0  0  0  0  0  0  0
   12.1264   -0.5404  -21.5174 H   0  0  0  0  0  0  0  0  0  0  0  0
   10.4537   -0.8446  -16.4537 H   0  0  0  0  0  0  0  0  0  0  0  0
    7.1904   -0.2559  -18.5960 H   0  0  0  0  0  0  0  0  0  0  0  0
    7.6460   -0.9298  -17.0485 H   0  0  0  0  0  0  0  0  0  0  0  0
    8.3573    0.4964  -15.3666 H   0  0  0  0  0  0  0  0  0  0  0  0
    8.4895    3.3713  -15.7401 H   0  0  0  0  0  0  0  0  0  0  0  0
    6.0860    3.1454  -15.3177 H   0  0  0  0  0  0  0  0  0  0  0  0
    6.3596    2.1665  -13.8969 H   0  0  0  0  0  0  0  0  0  0  0  0
    7.2861    5.0662  -14.2478 H   0  0  0  0  0  0  0  0  0  0  0  0
    5.8865    4.5716  -13.3221 H   0  0  0  0  0  0  0  0  0  0  0  0
    7.3266    3.3724  -11.8172 H   0  0  0  0  0  0  0  0  0  0  0  0
    8.4934    6.1178  -12.1576 H   0  0  0  0  0  0  0  0  0  0  0  0
    6.9272    5.7778  -11.4651 H   0  0  0  0  0  0  0  0  0  0  0  0
    7.8859    4.3873   -9.6993 H   0  0  0  0  0  0  0  0  0  0  0  0
    9.5001    4.5953  -10.2976 H   0  0  0  0  0  0  0  0  0  0  0  0
    7.6891    5.6233   -7.6792 H   0  0  0  0  0  0  0  0  0  0  0  0
    9.4163    5.3053   -7.7142 H   0  0  0  0  0  0  0  0  0  0  0  0
    8.0964    8.0302   -7.2828 H   0  0  0  0  0  0  0  0  0  0  0  0
    8.8859    7.0868   -6.0680 H   0  0  0  0  0  0  0  0  0  0  0  0
   12.1375    9.6279   -3.7165 H   0  0  0  0  0  0  0  0  0  0  0  0
   12.4071    5.7720   -3.1305 H   0  0  0  0  0  0  0  0  0  0  0  0
   13.2377    7.2571   -3.5655 H   0  0  0  0  0  0  0  0  0  0  0  0
   11.7274    7.3160   -2.6614 H   0  0  0  0  0  0  0  0  0  0  0  0
    9.2472    9.0224   -9.0529 H   0  0  0  0  0  0  0  0  0  0  0  0
   11.3919    9.1107  -10.5465 H   0  0  0  0  0  0  0  0  0  0  0  0
   11.2859   10.1719   -9.1797 H   0  0  0  0  0  0  0  0  0  0  0  0
   12.2790    8.6994   -9.0846 H   0  0  0  0  0  0  0  0  0  0  0  0
   10.7582    6.4839   -9.7839 H   0  0  0  0  0  0  0  0  0  0  0  0
    9.7555    7.4338  -10.8603 H   0  0  0  0  0  0  0  0  0  0  0  0
    9.7076    4.4226  -13.4710 H   0  0  0  0  0  0  0  0  0  0  0  0
    9.8444    3.3270  -12.1263 H   0  0  0  0  0  0  0  0  0  0  0  0
    8.8980    1.4731  -13.4468 H   0  0  0  0  0  0  0  0  0  0  0  0
   10.1512    2.2358  -14.3665 H   0  0  0  0  0  0  0  0  0  0  0  0
    7.8607    6.9028   -9.5992 H   0  0  0  0  0  0  0  0  0  0  0  0
  2  1  1  0
  3  2  2  0
  4  3  1  0
  5  4  2  0
  6  5  1  0
  7  6  1  0
  8  7  2  0
  9  7  1  0
 10  9  1  0
 11 10  1  0
 12 11  1  0
 13 12  1  0
 14 13  1  0
 15 14  1  0
 16 15  1  0
 17 16  1  0
 18 17  1  0
 19 18  1  0
 20 19  1  0
 21 20  2  0
 22 21  1  0
 23 22  1  0
 24 20  1  0
 24 23  2  0
 25 24  1  0
 26 25  1  0
 27 25  1  0
 28 25  1  0
 29 19  1  0
 30 29  1  0
 31 16  1  0
 31 29  1  0
 32 13  1  0
 33 10  1  0
 33 32  1  0
 34  2  1  0
 34  5  1  0
 35  1  1  0
 36  1  1  0
 37  1  1  0
 38  4  1  0
 39  6  1  0
 40  6  1  0
 41  9  1  0
 10 42  1  6
 43 11  1  0
 44 11  1  0
 45 12  1  0
 46 12  1  0
 13 47  1  1
 48 14  1  0
 49 14  1  0
 50 15  1  0
 51 15  1  0
 52 17  1  0
 53 17  1  0
 54 18  1  0
 55 18  1  0
 56 23  1  0
 57 26  1  0
 58 26  1  0
 59 26  1  0
 29 60  1  1
 61 30  1  0
 62 30  1  0
 63 30  1  0
 64 31  1  0
 65 31  1  0
 66 32  1  0
 67 32  1  0
 68 33  1  0
 69 33  1  0
 16 70  1  1
M  CHG  1  16   1
M  END
>  <b_m_subgroup_collapsed>  (498) 
0

>  <r_i_docking_score>  (498) 
-7.89239248333846

>  <s_m_subgroup_title>  (498) 
glide-dock_SP_D22_pv

>  <s_m_subgroupid>  (498) 
glide-dock_SP_D22_pv

>  <Molecule ChEMBL ID>  (498) 
CHEMBL6025845

>  <Standard Type>  (498) 
Ki

>  <Standard Value>  (498) 
68.0

>  <label>  (498) 
1

$$$$
CHEMBL572867
     RDKit          3D

 72 75  0  0  1  0  0  0  0  0999 V2000
    2.9573   -0.8727  -14.5598 C   0  0  0  0  0  0  0  0  0  0  0  0
    4.0854   -0.3957  -13.8470 O   0  0  0  0  0  0  0  0  0  0  0  0
    5.2644   -0.2278  -14.5376 C   0  0  0  0  0  0  0  0  0  0  0  0
    5.4032   -0.4244  -15.9333 C   0  0  0  0  0  0  0  0  0  0  0  0
    6.6482   -0.2235  -16.5578 C   0  0  0  0  0  0  0  0  0  0  0  0
    7.7758    0.1724  -15.8026 C   0  0  0  0  0  0  0  0  0  0  0  0
    9.0358    0.3587  -16.4235 N   0  0  0  0  0  0  0  0  0  0  0  0
   10.0787    1.1731  -16.0235 C   0  0  0  0  0  0  0  0  0  0  0  0
   11.0041    1.0248  -17.0168 C   0  0  0  0  0  0  0  0  0  0  0  0
   12.3177    1.7168  -17.2076 C   0  0  0  0  0  0  0  0  0  0  0  0
   12.2190    2.9259  -18.1553 C   0  0  0  0  0  0  0  0  0  0  0  0
   11.3176    4.0731  -17.6496 C   0  0  0  0  0  0  0  0  0  0  0  0
   11.8759    4.7970  -16.4208 C   0  0  0  0  0  0  0  0  0  0  0  0
   13.0600    5.1309  -16.3854 O   0  0  0  0  0  0  0  0  0  0  0  0
   11.0136    5.0632  -15.4292 N   0  0  0  0  0  0  0  0  0  0  0  0
   11.3413    5.8894  -14.2760 C   0  0  0  0  0  0  0  0  0  0  0  0
   10.3148    5.7241  -13.1431 C   0  0  0  0  0  0  0  0  0  0  0  0
   10.5027    6.7989  -12.0600 C   0  0  0  0  0  0  0  0  0  0  0  0
    9.7518    6.4899  -10.7473 C   0  0  0  0  0  0  0  0  0  0  0  0
    9.8944    7.5461   -9.7079 N   0  0  0  0  0  0  0  0  0  0  0  0
   11.3061    7.8709   -9.3548 C   0  0  0  0  0  0  0  0  0  0  0  0
   11.4191    8.9961   -8.3144 C   0  0  0  0  0  0  0  0  0  0  0  0
   10.4767    8.8102   -7.2221 N   0  0  0  0  0  0  0  0  0  0  0  0
   10.9401    8.8275   -5.8999 C   0  0  0  0  0  0  0  0  0  0  0  0
   10.8859   10.0403   -5.1901 C   0  0  0  0  0  0  0  0  0  0  0  0
   11.2921   10.0802   -3.8472 C   0  0  0  0  0  0  0  0  0  0  0  0
   11.7892    8.9463   -3.2084 C   0  0  0  0  0  0  0  0  0  0  0  0
   11.8722    7.7444   -3.9116 C   0  0  0  0  0  0  0  0  0  0  0  0
   12.4860    6.4049   -3.0371 Cl  0  0  0  0  0  0  0  0  0  0  0  0
   11.4621    7.6720   -5.2656 C   0  0  0  0  0  0  0  0  0  0  0  0
   11.6855    6.2165   -6.1734 Cl  0  0  0  0  0  0  0  0  0  0  0  0
    9.1087    8.3881   -7.4967 C   0  0  0  0  0  0  0  0  0  0  0  0
    9.1034    7.2182   -8.4942 C   0  0  0  0  0  0  0  0  0  0  0  0
   10.5226    0.1071  -17.9438 N   0  0  0  0  0  0  0  0  0  0  0  0
    9.3437   -0.2841  -17.5794 N   0  0  0  0  0  0  0  0  0  0  0  0
    7.6356    0.3753  -14.4125 C   0  0  0  0  0  0  0  0  0  0  0  0
    6.3894    0.1722  -13.7902 C   0  0  0  0  0  0  0  0  0  0  0  0
    2.1442   -1.0276  -13.8511 H   0  0  0  0  0  0  0  0  0  0  0  0
    2.6197   -0.1562  -15.3078 H   0  0  0  0  0  0  0  0  0  0  0  0
    3.1674   -1.8276  -15.0439 H   0  0  0  0  0  0  0  0  0  0  0  0
    4.5702   -0.7282  -16.5481 H   0  0  0  0  0  0  0  0  0  0  0  0
    6.7261   -0.3821  -17.6237 H   0  0  0  0  0  0  0  0  0  0  0  0
   10.0625    1.7891  -15.1371 H   0  0  0  0  0  0  0  0  0  0  0  0
   13.0366    1.0113  -17.6219 H   0  0  0  0  0  0  0  0  0  0  0  0
   12.7243    2.0293  -16.2469 H   0  0  0  0  0  0  0  0  0  0  0  0
   11.8466    2.5869  -19.1227 H   0  0  0  0  0  0  0  0  0  0  0  0
   13.2216    3.3102  -18.3477 H   0  0  0  0  0  0  0  0  0  0  0  0
   10.3092    3.7067  -17.4515 H   0  0  0  0  0  0  0  0  0  0  0  0
   11.2147    4.8173  -18.4398 H   0  0  0  0  0  0  0  0  0  0  0  0
   10.0576    4.7575  -15.5309 H   0  0  0  0  0  0  0  0  0  0  0  0
   11.3846    6.9278  -14.6049 H   0  0  0  0  0  0  0  0  0  0  0  0
   12.3382    5.6394  -13.9043 H   0  0  0  0  0  0  0  0  0  0  0  0
   10.4314    4.7316  -12.7070 H   0  0  0  0  0  0  0  0  0  0  0  0
    9.2971    5.7731  -13.5314 H   0  0  0  0  0  0  0  0  0  0  0  0
   10.1801    7.7657  -12.4486 H   0  0  0  0  0  0  0  0  0  0  0  0
   11.5715    6.8908  -11.8749 H   0  0  0  0  0  0  0  0  0  0  0  0
   10.0864    5.5344  -10.3388 H   0  0  0  0  0  0  0  0  0  0  0  0
    8.6894    6.3720  -10.9694 H   0  0  0  0  0  0  0  0  0  0  0  0
   11.8867    8.1778  -10.2236 H   0  0  0  0  0  0  0  0  0  0  0  0
   11.7669    6.9724   -8.9573 H   0  0  0  0  0  0  0  0  0  0  0  0
   11.2332    9.9545   -8.7951 H   0  0  0  0  0  0  0  0  0  0  0  0
   12.4396    9.0382   -7.9312 H   0  0  0  0  0  0  0  0  0  0  0  0
   10.5076   10.9336   -5.6633 H   0  0  0  0  0  0  0  0  0  0  0  0
   11.2724   10.9723   -3.2642 H   0  0  0  0  0  0  0  0  0  0  0  0
   12.1071    9.0015   -2.1773 H   0  0  0  0  0  0  0  0  0  0  0  0
    8.5995    8.0979   -6.5765 H   0  0  0  0  0  0  0  0  0  0  0  0
    8.5539    9.2340   -7.9056 H   0  0  0  0  0  0  0  0  0  0  0  0
    8.0864    6.9643   -8.7729 H   0  0  0  0  0  0  0  0  0  0  0  0
    9.5134    6.3244   -8.0224 H   0  0  0  0  0  0  0  0  0  0  0  0
    8.4839    0.6673  -13.8115 H   0  0  0  0  0  0  0  0  0  0  0  0
    6.2953    0.3184  -12.7243 H   0  0  0  0  0  0  0  0  0  0  0  0
    9.4788    8.3841  -10.0890 H   0  0  0  0  0  0  0  0  0  0  0  0
  2  1  1  0
  3  2  1  0
  4  3  1  0
  5  4  2  0
  6  5  1  0
  7  6  1  0
  8  7  1  0
  9  8  2  0
 10  9  1  0
 11 10  1  0
 12 11  1  0
 13 12  1  0
 14 13  2  0
 15 13  1  0
 16 15  1  0
 17 16  1  0
 18 17  1  0
 19 18  1  0
 20 19  1  0
 21 20  1  0
 22 21  1  0
 23 22  1  0
 24 23  1  0
 25 24  2  0
 26 25  1  0
 27 26  2  0
 28 27  1  0
 29 28  1  0
 30 24  1  0
 30 28  2  0
 31 30  1  0
 32 23  1  0
 33 20  1  0
 33 32  1  0
 34  9  1  0
 35  7  1  0
 35 34  2  0
 36  6  2  0
 37  3  2  0
 37 36  1  0
 38  1  1  0
 39  1  1  0
 40  1  1  0
 41  4  1  0
 42  5  1  0
 43  8  1  0
 44 10  1  0
 45 10  1  0
 46 11  1  0
 47 11  1  0
 48 12  1  0
 49 12  1  0
 50 15  1  0
 51 16  1  0
 52 16  1  0
 53 17  1  0
 54 17  1  0
 55 18  1  0
 56 18  1  0
 57 19  1  0
 58 19  1  0
 59 21  1  0
 60 21  1  0
 61 22  1  0
 62 22  1  0
 63 25  1  0
 64 26  1  0
 65 27  1  0
 66 32  1  0
 67 32  1  0
 68 33  1  0
 69 33  1  0
 70 36  1  0
 71 37  1  0
 72 20  1  0
M  CHG  1  20   1
M  END
>  <b_m_subgroup_collapsed>  (499) 
0

>  <r_i_docking_score>  (499) 
-7.8916822098814396

>  <s_m_subgroup_title>  (499) 
glide-dock_SP_D22_pv

>  <s_m_subgroupid>  (499) 
glide-dock_SP_D22_pv

>  <Molecule ChEMBL ID>  (499) 
CHEMBL572867

>  <Standard Type>  (499) 
Ki

>  <Standard Value>  (499) 
1.0

>  <label>  (499) 
1

$$$$
CHEMBL5277789
     RDKit          3D

 58 61  0  0  1  0  0  0  0  0999 V2000
   12.0860   10.1723   -2.9896 O   0  0  0  0  0  0  0  0  0  0  0  0
   11.8349    9.1570   -3.8537 C   0  0  0  0  0  0  0  0  0  0  0  0
   11.9915    7.8272   -3.4352 C   0  0  0  0  0  0  0  0  0  0  0  0
   11.6861    6.7893   -4.3288 C   0  0  0  0  0  0  0  0  0  0  0  0
   11.2721    7.0688   -5.6456 C   0  0  0  0  0  0  0  0  0  0  0  0
   11.1460    8.4113   -6.0815 C   0  0  0  0  0  0  0  0  0  0  0  0
   10.7890    8.7946   -7.3554 O   0  0  0  0  0  0  0  0  0  0  0  0
   10.6621    7.8140   -8.3775 C   0  0  0  0  0  0  0  0  0  0  0  0
    9.2601    7.1833   -8.3717 C   0  0  0  0  0  0  0  0  0  0  0  0
    8.8860    6.6843   -9.7110 N   0  0  0  0  0  0  0  0  0  0  0  0
    8.8766    5.2134   -9.8884 C   0  0  0  0  0  0  0  0  0  0  0  0
    8.5115    4.8091  -11.3354 C   0  0  1  0  0  0  0  0  0  0  0  0
    7.3033    5.5881  -11.8879 C   0  0  0  0  0  0  0  0  0  0  0  0
    7.1042    5.1991  -13.2249 O   0  0  0  0  0  0  0  0  0  0  0  0
    8.2566    5.5163  -13.9866 C   0  0  0  0  0  0  0  0  0  0  0  0
    9.4931    4.6947  -13.5907 C   0  0  0  0  0  0  0  0  0  0  0  0
   10.6599    5.3361  -14.3643 C   0  0  0  0  0  0  0  0  0  0  0  0
   10.7667    5.1706  -15.7680 C   0  0  0  0  0  0  0  0  0  0  0  0
   11.7781    5.8229  -16.4978 C   0  0  0  0  0  0  0  0  0  0  0  0
   12.6879    6.6668  -15.8368 C   0  0  0  0  0  0  0  0  0  0  0  0
   12.5874    6.8461  -14.4459 C   0  0  0  0  0  0  0  0  0  0  0  0
   11.5930    6.1736  -13.7111 C   0  0  0  0  0  0  0  0  0  0  0  0
    9.3463    3.2010  -13.9948 C   0  0  0  0  0  0  0  0  0  0  0  0
    8.0838    2.5967  -14.2468 C   0  0  0  0  0  0  0  0  0  0  0  0
    7.9817    1.2776  -14.7271 C   0  0  0  0  0  0  0  0  0  0  0  0
    9.1412    0.5340  -14.9925 C   0  0  0  0  0  0  0  0  0  0  0  0
   10.3995    1.1093  -14.7551 C   0  0  0  0  0  0  0  0  0  0  0  0
   10.5016    2.4200  -14.2468 C   0  0  0  0  0  0  0  0  0  0  0  0
    9.6702    4.9143  -12.1743 O   0  0  0  0  0  0  0  0  0  0  0  0
   11.4116    9.4472   -5.1643 C   0  0  0  0  0  0  0  0  0  0  0  0
   12.5863    9.9424   -2.2200 H   0  0  0  0  0  0  0  0  0  0  0  0
   12.3127    7.5969   -2.4297 H   0  0  0  0  0  0  0  0  0  0  0  0
   11.7835    5.7724   -3.9973 H   0  0  0  0  0  0  0  0  0  0  0  0
   11.0656    6.2342   -6.2976 H   0  0  0  0  0  0  0  0  0  0  0  0
   10.8069    8.3526   -9.3150 H   0  0  0  0  0  0  0  0  0  0  0  0
   11.4524    7.0625   -8.3469 H   0  0  0  0  0  0  0  0  0  0  0  0
    9.1538    6.4122   -7.6078 H   0  0  0  0  0  0  0  0  0  0  0  0
    8.5303    7.9554   -8.1210 H   0  0  0  0  0  0  0  0  0  0  0  0
    7.9305    7.0204   -9.8723 H   0  0  0  0  0  0  0  0  0  0  0  0
    9.8419    4.7895   -9.6088 H   0  0  0  0  0  0  0  0  0  0  0  0
    8.1354    4.7993   -9.2027 H   0  0  0  0  0  0  0  0  0  0  0  0
    8.2225    3.7723  -11.3433 H   0  0  0  0  0  0  0  0  0  0  0  0
    6.4009    5.3695  -11.3210 H   0  0  0  0  0  0  0  0  0  0  0  0
    7.4500    6.6664  -11.8482 H   0  0  0  0  0  0  0  0  0  0  0  0
    8.4485    6.5723  -13.8468 H   0  0  0  0  0  0  0  0  0  0  0  0
    8.0860    5.3725  -15.0469 H   0  0  0  0  0  0  0  0  0  0  0  0
   10.0605    4.5479  -16.2981 H   0  0  0  0  0  0  0  0  0  0  0  0
   11.8466    5.6872  -17.5670 H   0  0  0  0  0  0  0  0  0  0  0  0
   13.4588    7.1775  -16.3952 H   0  0  0  0  0  0  0  0  0  0  0  0
   13.2865    7.4925  -13.9359 H   0  0  0  0  0  0  0  0  0  0  0  0
   11.5381    6.3407  -12.6473 H   0  0  0  0  0  0  0  0  0  0  0  0
    7.1538    3.1161  -14.0980 H   0  0  0  0  0  0  0  0  0  0  0  0
    7.0100    0.8418  -14.9086 H   0  0  0  0  0  0  0  0  0  0  0  0
    9.0647   -0.4742  -15.3737 H   0  0  0  0  0  0  0  0  0  0  0  0
   11.2860    0.5355  -14.9674 H   0  0  0  0  0  0  0  0  0  0  0  0
   11.4854    2.8331  -14.0793 H   0  0  0  0  0  0  0  0  0  0  0  0
   11.3068   10.4764   -5.4760 H   0  0  0  0  0  0  0  0  0  0  0  0
    9.4772    7.1077  -10.4111 H   0  0  0  0  0  0  0  0  0  0  0  0
  2  1  1  0
  3  2  1  0
  4  3  2  0
  5  4  1  0
  6  5  2  0
  7  6  1  0
  8  7  1  0
  9  8  1  0
 10  9  1  0
 11 10  1  0
 12 11  1  0
 13 12  1  0
 14 13  1  0
 15 14  1  0
 16 15  1  0
 17 16  1  0
 18 17  2  0
 19 18  1  0
 20 19  2  0
 21 20  1  0
 22 17  1  0
 22 21  2  0
 23 16  1  0
 24 23  2  0
 25 24  1  0
 26 25  2  0
 27 26  1  0
 28 23  1  0
 28 27  2  0
 29 12  1  0
 29 16  1  0
 30  2  2  0
 30  6  1  0
 31  1  1  0
 32  3  1  0
 33  4  1  0
 34  5  1  0
 35  8  1  0
 36  8  1  0
 37  9  1  0
 38  9  1  0
 39 10  1  0
 40 11  1  0
 41 11  1  0
 12 42  1  1
 43 13  1  0
 44 13  1  0
 45 15  1  0
 46 15  1  0
 47 18  1  0
 48 19  1  0
 49 20  1  0
 50 21  1  0
 51 22  1  0
 52 24  1  0
 53 25  1  0
 54 26  1  0
 55 27  1  0
 56 28  1  0
 57 30  1  0
 58 10  1  0
M  CHG  1  10   1
M  END
>  <b_m_subgroup_collapsed>  (500) 
0

>  <r_i_docking_score>  (500) 
-7.8916702817963804

>  <s_m_subgroup_title>  (500) 
glide-dock_SP_D22_pv

>  <s_m_subgroupid>  (500) 
glide-dock_SP_D22_pv

>  <Molecule ChEMBL ID>  (500) 
CHEMBL5277789

>  <Standard Type>  (500) 
Ki

>  <Standard Value>  (500) 
10000.0

>  <label>  (500) 
0

$$$$
CHEMBL165664
     RDKit          3D

 56 59  0  0  1  0  0  0  0  0999 V2000
   12.3710    8.2005   -2.0630 C   0  0  0  0  0  0  0  0  0  0  0  0
   12.1613    6.9709   -2.7084 C   0  0  0  0  0  0  0  0  0  0  0  0
   11.6868    6.9482   -4.0325 C   0  0  0  0  0  0  0  0  0  0  0  0
   11.4028    8.1460   -4.7279 C   0  0  0  0  0  0  0  0  0  0  0  0
   10.9210    8.1050   -6.0492 N   0  0  0  0  0  0  0  0  0  0  0  0
    9.9527    7.0927   -6.4358 C   0  0  0  0  0  0  0  0  0  0  0  0
   10.2934    6.6015   -7.8402 C   0  0  0  0  0  0  0  0  0  0  0  0
   10.2756    7.7244   -8.8231 N   0  0  0  0  0  0  0  0  0  0  0  0
   10.6162    7.2901  -10.2042 C   0  0  0  0  0  0  0  0  0  0  0  0
    9.4582    6.7359  -11.0692 C   0  0  1  0  0  0  0  0  0  0  0  0
   10.0462    6.3465  -12.4437 C   0  0  0  0  0  0  0  0  0  0  0  0
    9.0022    5.7137  -13.3753 C   0  0  0  0  0  0  0  0  0  0  0  0
    8.3970    4.4728  -12.7198 C   0  0  2  0  0  0  0  0  0  0  0  0
    7.4752    3.7731  -13.6022 N   0  0  0  0  0  0  0  0  0  0  0  0
    7.8535    2.6160  -14.2480 C   0  0  0  0  0  0  0  0  0  0  0  0
    6.8880    1.7145  -14.4129 N   0  0  0  0  0  0  0  0  0  0  0  0
    7.2374    0.5527  -15.0022 C   0  0  0  0  0  0  0  0  0  0  0  0
    8.5536    0.3073  -15.4300 C   0  0  0  0  0  0  0  0  0  0  0  0
    9.4834    1.3363  -15.2098 C   0  0  0  0  0  0  0  0  0  0  0  0
    9.1275    2.4956  -14.6261 N   0  0  0  0  0  0  0  0  0  0  0  0
    7.7025    4.8890  -11.4263 C   0  0  0  0  0  0  0  0  0  0  0  0
    8.7012    5.5346  -10.4581 C   0  0  0  0  0  0  0  0  0  0  0  0
   11.1935    8.8227   -8.3951 C   0  0  0  0  0  0  0  0  0  0  0  0
   11.0025    9.2609   -6.9302 C   0  0  0  0  0  0  0  0  0  0  0  0
   11.6110    9.3726   -4.0629 C   0  0  0  0  0  0  0  0  0  0  0  0
   12.0860    9.3960   -2.7413 C   0  0  0  0  0  0  0  0  0  0  0  0
   12.7360    8.2309   -1.0469 H   0  0  0  0  0  0  0  0  0  0  0  0
   12.3702    6.0426   -2.1954 H   0  0  0  0  0  0  0  0  0  0  0  0
   11.5647    5.9874   -4.5075 H   0  0  0  0  0  0  0  0  0  0  0  0
    8.9561    7.5349   -6.4255 H   0  0  0  0  0  0  0  0  0  0  0  0
    9.9083    6.2498   -5.7483 H   0  0  0  0  0  0  0  0  0  0  0  0
    9.5953    5.8117   -8.0882 H   0  0  0  0  0  0  0  0  0  0  0  0
   11.2834    6.1428   -7.8301 H   0  0  0  0  0  0  0  0  0  0  0  0
   11.4384    6.5806  -10.1550 H   0  0  0  0  0  0  0  0  0  0  0  0
   11.0180    8.1473  -10.7477 H   0  0  0  0  0  0  0  0  0  0  0  0
    8.7320    7.5356  -11.2267 H   0  0  0  0  0  0  0  0  0  0  0  0
   10.4861    7.2235  -12.9191 H   0  0  0  0  0  0  0  0  0  0  0  0
   10.8743    5.6466  -12.3177 H   0  0  0  0  0  0  0  0  0  0  0  0
    9.4685    5.4506  -14.3259 H   0  0  0  0  0  0  0  0  0  0  0  0
    8.2104    6.4318  -13.5961 H   0  0  0  0  0  0  0  0  0  0  0  0
    9.2045    3.7875  -12.4511 H   0  0  0  0  0  0  0  0  0  0  0  0
    6.5119    3.7776  -13.3053 H   0  0  0  0  0  0  0  0  0  0  0  0
    6.4603   -0.1866  -15.1326 H   0  0  0  0  0  0  0  0  0  0  0  0
    8.8331   -0.6235  -15.8997 H   0  0  0  0  0  0  0  0  0  0  0  0
   10.5153    1.2324  -15.5088 H   0  0  0  0  0  0  0  0  0  0  0  0
    6.8812    5.5788  -11.6306 H   0  0  0  0  0  0  0  0  0  0  0  0
    7.2648    4.0128  -10.9484 H   0  0  0  0  0  0  0  0  0  0  0  0
    8.1256    5.8640   -9.5937 H   0  0  0  0  0  0  0  0  0  0  0  0
    9.4070    4.7723  -10.1228 H   0  0  0  0  0  0  0  0  0  0  0  0
   12.2234    8.4828   -8.5192 H   0  0  0  0  0  0  0  0  0  0  0  0
   11.0726    9.6885   -9.0490 H   0  0  0  0  0  0  0  0  0  0  0  0
   10.0862    9.8378   -6.8275 H   0  0  0  0  0  0  0  0  0  0  0  0
   11.8320    9.9125   -6.6492 H   0  0  0  0  0  0  0  0  0  0  0  0
   11.3832   10.3135   -4.5410 H   0  0  0  0  0  0  0  0  0  0  0  0
   12.2164   10.3446   -2.2457 H   0  0  0  0  0  0  0  0  0  0  0  0
    9.3360    8.0989   -8.8387 H   0  0  0  0  0  0  0  0  0  0  0  0
  2  1  2  0
  3  2  1  0
  4  3  2  0
  5  4  1  0
  6  5  1  0
  7  6  1  0
  8  7  1  0
  9  8  1  0
 10  9  1  0
 11 10  1  0
 12 11  1  0
 13 12  1  0
 14 13  1  0
 15 14  1  0
 16 15  2  0
 17 16  1  0
 18 17  2  0
 19 18  1  0
 20 15  1  0
 20 19  2  0
 21 13  1  0
 22 10  1  0
 22 21  1  0
 23  8  1  0
 24  5  1  0
 24 23  1  0
 25  4  1  0
 26  1  1  0
 26 25  2  0
 27  1  1  0
 28  2  1  0
 29  3  1  0
 30  6  1  0
 31  6  1  0
 32  7  1  0
 33  7  1  0
 34  9  1  0
 35  9  1  0
 10 36  1  6
 37 11  1  0
 38 11  1  0
 39 12  1  0
 40 12  1  0
 13 41  1  1
 42 14  1  0
 43 17  1  0
 44 18  1  0
 45 19  1  0
 46 21  1  0
 47 21  1  0
 48 22  1  0
 49 22  1  0
 50 23  1  0
 51 23  1  0
 52 24  1  0
 53 24  1  0
 54 25  1  0
 55 26  1  0
 56  8  1  0
M  CHG  1   8   1
M  END
>  <b_m_subgroup_collapsed>  (501) 
0

>  <r_i_docking_score>  (501) 
-7.8911624098208302

>  <s_m_subgroup_title>  (501) 
glide-dock_SP_D22_pv

>  <s_m_subgroupid>  (501) 
glide-dock_SP_D22_pv

>  <Molecule ChEMBL ID>  (501) 
CHEMBL165664

>  <Standard Type>  (501) 
Ki

>  <Standard Value>  (501) 
5.7

>  <label>  (501) 
1

$$$$
CHEMBL3780184
     RDKit          3D

 56 60  0  0  1  0  0  0  0  0999 V2000
   11.9655    2.8508  -16.6144 C   0  0  0  0  0  0  0  0  0  0  0  0
   12.4720    4.1499  -16.3398 O   0  0  0  0  0  0  0  0  0  0  0  0
   11.9484    4.8468  -15.2691 C   0  0  0  0  0  0  0  0  0  0  0  0
   10.8590    4.3906  -14.4882 C   0  0  0  0  0  0  0  0  0  0  0  0
   10.3879    5.1459  -13.3946 C   0  0  0  0  0  0  0  0  0  0  0  0
   11.0119    6.3716  -13.0467 C   0  0  0  0  0  0  0  0  0  0  0  0
   12.0856    6.8365  -13.8413 C   0  0  0  0  0  0  0  0  0  0  0  0
   12.5445    6.0843  -14.9436 C   0  0  0  0  0  0  0  0  0  0  0  0
   13.5868    6.5534  -15.6912 O   0  0  0  0  0  0  0  0  0  0  0  0
   10.5316    7.1881  -11.8328 C   0  0  2  0  0  0  0  0  0  0  0  0
   11.7134    7.7195  -10.9823 C   0  0  0  0  0  0  0  0  0  0  0  0
   11.3777    8.0843   -9.5496 C   0  0  0  0  0  0  0  0  0  0  0  0
   12.3977    8.5725   -8.7159 C   0  0  0  0  0  0  0  0  0  0  0  0
   12.1143    8.9662   -7.3990 C   0  0  0  0  0  0  0  0  0  0  0  0
   10.8279    8.7688   -6.8580 C   0  0  0  0  0  0  0  0  0  0  0  0
   10.4861    9.1139   -5.5695 O   0  0  0  0  0  0  0  0  0  0  0  0
   11.2813   10.0665   -4.8805 C   0  0  0  0  0  0  0  0  0  0  0  0
   12.4248    9.4196   -4.1204 C   0  0  0  0  0  0  0  0  0  0  0  0
   12.2662    9.1234   -2.6489 C   0  0  0  0  0  0  0  0  0  0  0  0
   12.3642    7.9847   -3.6355 C   0  0  0  0  0  0  0  0  0  0  0  0
    9.8418    8.1543   -7.6568 C   0  0  0  0  0  0  0  0  0  0  0  0
    8.6505    7.8137   -7.0862 O   0  0  0  0  0  0  0  0  0  0  0  0
    8.6598    6.4663   -6.6466 C   0  0  0  0  0  0  0  0  0  0  0  0
   10.0929    7.8586   -9.0171 C   0  0  0  0  0  0  0  0  0  0  0  0
    9.0069    7.2942   -9.9158 C   0  0  0  0  0  0  0  0  0  0  0  0
    9.5857    6.4291  -10.9669 N   0  0  1  0  0  0  0  0  0  0  0  0
    8.5559    5.7079  -11.7447 C   0  0  0  0  0  0  0  0  0  0  0  0
    9.2280    4.6101  -12.5736 C   0  0  0  0  0  0  0  0  0  0  0  0
   12.5247    2.4169  -17.4422 H   0  0  0  0  0  0  0  0  0  0  0  0
   12.0813    2.1836  -15.7578 H   0  0  0  0  0  0  0  0  0  0  0  0
   10.9154    2.8845  -16.9056 H   0  0  0  0  0  0  0  0  0  0  0  0
   10.3685    3.4554  -14.7092 H   0  0  0  0  0  0  0  0  0  0  0  0
   12.5671    7.7735  -13.6058 H   0  0  0  0  0  0  0  0  0  0  0  0
   13.9696    7.3482  -15.3491 H   0  0  0  0  0  0  0  0  0  0  0  0
    9.9817    8.0447  -12.2306 H   0  0  0  0  0  0  0  0  0  0  0  0
   12.1930    8.5788  -11.4471 H   0  0  0  0  0  0  0  0  0  0  0  0
   12.4859    6.9719  -10.9153 H   0  0  0  0  0  0  0  0  0  0  0  0
   13.4008    8.6981   -9.0954 H   0  0  0  0  0  0  0  0  0  0  0  0
   12.9181    9.3771   -6.8100 H   0  0  0  0  0  0  0  0  0  0  0  0
   11.6572   10.8495   -5.5422 H   0  0  0  0  0  0  0  0  0  0  0  0
   10.6289   10.5720   -4.1678 H   0  0  0  0  0  0  0  0  0  0  0  0
   13.4063    9.7713   -4.4316 H   0  0  0  0  0  0  0  0  0  0  0  0
   13.1208    9.3451   -2.0105 H   0  0  0  0  0  0  0  0  0  0  0  0
   11.2902    9.3103   -2.2067 H   0  0  0  0  0  0  0  0  0  0  0  0
   11.4588    7.4150   -3.8302 H   0  0  0  0  0  0  0  0  0  0  0  0
   13.2848    7.4062   -3.6488 H   0  0  0  0  0  0  0  0  0  0  0  0
    7.6888    6.1728   -6.2476 H   0  0  0  0  0  0  0  0  0  0  0  0
    8.9188    5.7659   -7.4414 H   0  0  0  0  0  0  0  0  0  0  0  0
    9.3860    6.3463   -5.8438 H   0  0  0  0  0  0  0  0  0  0  0  0
    8.4903    8.1349  -10.3788 H   0  0  0  0  0  0  0  0  0  0  0  0
    8.2799    6.7257   -9.3348 H   0  0  0  0  0  0  0  0  0  0  0  0
    8.0230    6.4096  -12.3888 H   0  0  0  0  0  0  0  0  0  0  0  0
    7.8113    5.2604  -11.0832 H   0  0  0  0  0  0  0  0  0  0  0  0
    8.4957    4.1436  -13.2334 H   0  0  0  0  0  0  0  0  0  0  0  0
    9.6070    3.8239  -11.9173 H   0  0  0  0  0  0  0  0  0  0  0  0
   10.1222    5.7237  -10.4840 H   0  0  0  0  0  0  0  0  0  0  0  0
  2  1  1  0
  3  2  1  0
  4  3  2  0
  5  4  1  0
  6  5  2  0
  7  6  1  0
  8  3  1  0
  8  7  2  0
  9  8  1  0
 10  6  1  0
 11 10  1  0
 12 11  1  0
 13 12  1  0
 14 13  2  0
 15 14  1  0
 16 15  1  0
 17 16  1  0
 18 17  1  0
 19 18  1  0
 20 18  1  0
 20 19  1  0
 21 15  2  0
 22 21  1  0
 23 22  1  0
 24 12  2  0
 24 21  1  0
 25 24  1  0
 26 10  1  0
 26 25  1  0
 27 26  1  0
 28  5  1  0
 28 27  1  0
 29  1  1  0
 30  1  1  0
 31  1  1  0
 32  4  1  0
 33  7  1  0
 34  9  1  0
 10 35  1  6
 36 11  1  0
 37 11  1  0
 38 13  1  0
 39 14  1  0
 40 17  1  0
 41 17  1  0
 42 18  1  0
 43 19  1  0
 44 19  1  0
 45 20  1  0
 46 20  1  0
 47 23  1  0
 48 23  1  0
 49 23  1  0
 50 25  1  0
 51 25  1  0
 52 27  1  0
 53 27  1  0
 54 28  1  0
 55 28  1  0
 26 56  1  1
M  CHG  1  26   1
M  END
>  <b_m_subgroup_collapsed>  (502) 
0

>  <r_i_docking_score>  (502) 
-7.8875110727319502

>  <s_m_subgroup_title>  (502) 
glide-dock_SP_D22_pv

>  <s_m_subgroupid>  (502) 
glide-dock_SP_D22_pv

>  <Molecule ChEMBL ID>  (502) 
CHEMBL3780184

>  <Standard Type>  (502) 
Ki

>  <Standard Value>  (502) 
54.0

>  <label>  (502) 
1

$$$$
CHEMBL4467437
     RDKit          3D

 71 74  0  0  1  0  0  0  0  0999 V2000
   11.9310   10.8296   -6.2819 C   0  0  0  0  0  0  0  0  0  0  0  0
   10.9621   10.4738   -5.3113 O   0  0  0  0  0  0  0  0  0  0  0  0
   11.3131    9.3646   -4.5863 C   0  0  0  0  0  0  0  0  0  0  0  0
   11.7137    9.5713   -3.2512 C   0  0  0  0  0  0  0  0  0  0  0  0
   12.1014    8.4921   -2.4389 C   0  0  0  0  0  0  0  0  0  0  0  0
   12.0868    7.1885   -2.9609 C   0  0  0  0  0  0  0  0  0  0  0  0
   11.6860    6.9723   -4.2913 C   0  0  0  0  0  0  0  0  0  0  0  0
   11.2860    8.0460   -5.1245 C   0  0  0  0  0  0  0  0  0  0  0  0
   10.8356    7.7717   -6.4348 N   0  0  0  0  0  0  0  0  0  0  0  0
    9.7104    8.4944   -7.0227 C   0  0  0  0  0  0  0  0  0  0  0  0
    8.7419    7.5616   -7.7714 C   0  0  0  0  0  0  0  0  0  0  0  0
    9.4342    6.5624   -8.6323 N   0  0  0  0  0  0  0  0  0  0  0  0
    8.4890    5.6257   -9.2922 C   0  0  0  0  0  0  0  0  0  0  0  0
    9.0828    4.7913  -10.4371 C   0  0  0  0  0  0  0  0  0  0  0  0
    9.6191    5.6060  -11.6222 C   0  0  0  0  0  0  0  0  0  0  0  0
   10.0858    4.7006  -12.6635 N   0  0  0  0  0  0  0  0  0  0  0  0
    9.3450    4.2246  -13.6708 C   0  0  0  0  0  0  0  0  0  0  0  0
    8.1803    4.5599  -13.8815 O   0  0  0  0  0  0  0  0  0  0  0  0
   10.0324    3.3403  -14.4137 N   0  0  0  0  0  0  0  0  0  0  0  0
    9.5567    2.7710  -15.6103 N   0  0  0  0  0  0  0  0  0  0  0  0
    9.8264    3.5995  -16.7920 C   0  0  0  0  0  0  0  0  0  0  0  0
   11.1936    4.2682  -16.8436 C   0  0  0  0  0  0  0  0  0  0  0  0
   11.3397    5.6122  -16.4355 C   0  0  0  0  0  0  0  0  0  0  0  0
   12.6010    6.2362  -16.4817 C   0  0  0  0  0  0  0  0  0  0  0  0
   13.7208    5.5206  -16.9470 C   0  0  0  0  0  0  0  0  0  0  0  0
   13.5785    4.1826  -17.3633 C   0  0  0  0  0  0  0  0  0  0  0  0
   12.3196    3.5539  -17.3065 C   0  0  0  0  0  0  0  0  0  0  0  0
   12.1984    2.2622  -17.6997 F   0  0  0  0  0  0  0  0  0  0  0  0
    8.4675    1.8688  -15.6014 C   0  0  0  0  0  0  0  0  0  0  0  0
    8.2389    1.0483  -14.4705 C   0  0  0  0  0  0  0  0  0  0  0  0
    7.1380    0.1728  -14.4147 C   0  0  0  0  0  0  0  0  0  0  0  0
    6.2501    0.0930  -15.5009 C   0  0  0  0  0  0  0  0  0  0  0  0
    4.7163   -1.0289  -15.3958 Br  0  0  0  0  0  0  0  0  0  0  0  0
    6.4860    0.8669  -16.6517 C   0  0  0  0  0  0  0  0  0  0  0  0
    7.5783    1.7544  -16.6994 C   0  0  0  0  0  0  0  0  0  0  0  0
   10.4451    5.8340   -7.8468 C   0  0  0  0  0  0  0  0  0  0  0  0
   11.4986    6.7769   -7.2650 C   0  0  0  0  0  0  0  0  0  0  0  0
   11.6860   11.7723   -6.7639 H   0  0  0  0  0  0  0  0  0  0  0  0
   12.9081   10.9635   -5.8468 H   0  0  0  0  0  0  0  0  0  0  0  0
   12.0347   10.0662   -7.0470 H   0  0  0  0  0  0  0  0  0  0  0  0
   11.7294   10.5721   -2.8454 H   0  0  0  0  0  0  0  0  0  0  0  0
   12.4013    8.6677   -1.4167 H   0  0  0  0  0  0  0  0  0  0  0  0
   12.3697    6.3500   -2.3395 H   0  0  0  0  0  0  0  0  0  0  0  0
   11.6513    5.9551   -4.6507 H   0  0  0  0  0  0  0  0  0  0  0  0
   10.0865    9.2488   -7.7114 H   0  0  0  0  0  0  0  0  0  0  0  0
    9.1457    9.0076   -6.2469 H   0  0  0  0  0  0  0  0  0  0  0  0
    8.0894    8.1875   -8.3733 H   0  0  0  0  0  0  0  0  0  0  0  0
    8.1122    7.0413   -7.0476 H   0  0  0  0  0  0  0  0  0  0  0  0
    7.6731    6.1724   -9.7251 H   0  0  0  0  0  0  0  0  0  0  0  0
    8.0606    4.9621   -8.5400 H   0  0  0  0  0  0  0  0  0  0  0  0
    8.2699    4.1723  -10.8149 H   0  0  0  0  0  0  0  0  0  0  0  0
    9.8400    4.0969  -10.0765 H   0  0  0  0  0  0  0  0  0  0  0  0
   10.4600    6.2305  -11.3149 H   0  0  0  0  0  0  0  0  0  0  0  0
    8.8495    6.2790  -12.0086 H   0  0  0  0  0  0  0  0  0  0  0  0
   11.0374    4.3781  -12.5909 H   0  0  0  0  0  0  0  0  0  0  0  0
   10.9830    3.0859  -14.1937 H   0  0  0  0  0  0  0  0  0  0  0  0
    9.0541    4.3650  -16.8754 H   0  0  0  0  0  0  0  0  0  0  0  0
    9.7528    2.9827  -17.6882 H   0  0  0  0  0  0  0  0  0  0  0  0
   10.4862    6.1685  -16.0794 H   0  0  0  0  0  0  0  0  0  0  0  0
   12.7091    7.2629  -16.1627 H   0  0  0  0  0  0  0  0  0  0  0  0
   14.6887    5.9983  -16.9814 H   0  0  0  0  0  0  0  0  0  0  0  0
   14.4404    3.6318  -17.7105 H   0  0  0  0  0  0  0  0  0  0  0  0
    8.8947    1.1002  -13.6160 H   0  0  0  0  0  0  0  0  0  0  0  0
    6.9675   -0.4278  -13.5325 H   0  0  0  0  0  0  0  0  0  0  0  0
    5.8064    0.8029  -17.4889 H   0  0  0  0  0  0  0  0  0  0  0  0
    7.7015    2.3508  -17.5880 H   0  0  0  0  0  0  0  0  0  0  0  0
    9.9053    5.3724   -7.0321 H   0  0  0  0  0  0  0  0  0  0  0  0
   10.8860    5.0345   -8.4278 H   0  0  0  0  0  0  0  0  0  0  0  0
   12.0351    7.2918   -8.0622 H   0  0  0  0  0  0  0  0  0  0  0  0
   12.2382    6.1962   -6.7147 H   0  0  0  0  0  0  0  0  0  0  0  0
    9.9075    7.0799   -9.3578 H   0  0  0  0  0  0  0  0  0  0  0  0
  2  1  1  0
  3  2  1  0
  4  3  2  0
  5  4  1  0
  6  5  2  0
  7  6  1  0
  8  3  1  0
  8  7  2  0
  9  8  1  0
 10  9  1  0
 11 10  1  0
 12 11  1  0
 13 12  1  0
 14 13  1  0
 15 14  1  0
 16 15  1  0
 17 16  1  0
 18 17  2  0
 19 17  1  0
 20 19  1  0
 21 20  1  0
 22 21  1  0
 23 22  2  0
 24 23  1  0
 25 24  2  0
 26 25  1  0
 27 22  1  0
 27 26  2  0
 28 27  1  0
 29 20  1  0
 30 29  1  0
 31 30  2  0
 32 31  1  0
 33 32  1  0
 34 32  2  0
 35 29  2  0
 35 34  1  0
 36 12  1  0
 37  9  1  0
 37 36  1  0
 38  1  1  0
 39  1  1  0
 40  1  1  0
 41  4  1  0
 42  5  1  0
 43  6  1  0
 44  7  1  0
 45 10  1  0
 46 10  1  0
 47 11  1  0
 48 11  1  0
 49 13  1  0
 50 13  1  0
 51 14  1  0
 52 14  1  0
 53 15  1  0
 54 15  1  0
 55 16  1  0
 56 19  1  0
 57 21  1  0
 58 21  1  0
 59 23  1  0
 60 24  1  0
 61 25  1  0
 62 26  1  0
 63 30  1  0
 64 31  1  0
 65 34  1  0
 66 35  1  0
 67 36  1  0
 68 36  1  0
 69 37  1  0
 70 37  1  0
 71 12  1  0
M  CHG  1  12   1
M  END
>  <b_m_subgroup_collapsed>  (503) 
0

>  <r_i_docking_score>  (503) 
-7.88700043479587

>  <s_m_subgroup_title>  (503) 
glide-dock_SP_D22_pv

>  <s_m_subgroupid>  (503) 
glide-dock_SP_D22_pv

>  <Molecule ChEMBL ID>  (503) 
CHEMBL4467437

>  <Standard Type>  (503) 
Ki

>  <Standard Value>  (503) 
22.0

>  <label>  (503) 
1

$$$$
CHEMBL1923293
     RDKit          3D

 50 53  0  0  1  0  0  0  0  0999 V2000
    9.8757    2.3500  -14.7891 C   0  0  0  0  0  0  0  0  0  0  0  0
    8.4714    2.3441  -14.5752 O   0  0  0  0  0  0  0  0  0  0  0  0
    7.9201    3.3767  -13.8467 C   0  0  0  0  0  0  0  0  0  0  0  0
    8.6319    4.5403  -13.4560 C   0  0  0  0  0  0  0  0  0  0  0  0
    7.9994    5.5552  -12.7042 C   0  0  0  0  0  0  0  0  0  0  0  0
    8.7511    6.8331  -12.3610 C   0  0  0  0  0  0  0  0  0  0  0  0
    8.8859    7.0860  -10.9098 N   0  0  0  0  0  0  0  0  0  0  0  0
    9.7234    6.0915  -10.2008 C   0  0  0  0  0  0  0  0  0  0  0  0
    9.7613    6.3578   -8.6901 C   0  0  0  0  0  0  0  0  0  0  0  0
   10.1315    7.7458   -8.4223 N   0  0  0  0  0  0  0  0  0  0  0  0
   10.7050    8.0871   -7.1791 C   0  0  0  0  0  0  0  0  0  0  0  0
   11.2854    9.3625   -6.9933 C   0  0  0  0  0  0  0  0  0  0  0  0
   11.8873    9.7193   -5.7759 C   0  0  0  0  0  0  0  0  0  0  0  0
   11.9175    8.8062   -4.7095 C   0  0  0  0  0  0  0  0  0  0  0  0
   11.3658    7.5120   -4.8849 C   0  0  0  0  0  0  0  0  0  0  0  0
   10.7513    7.1700   -6.1021 C   0  0  0  0  0  0  0  0  0  0  0  0
   11.4050    6.5733   -3.8793 O   0  0  0  0  0  0  0  0  0  0  0  0
   12.2541    6.8963   -2.7855 C   0  0  0  0  0  0  0  0  0  0  0  0
   12.0719    8.3761   -2.4246 C   0  0  0  0  0  0  0  0  0  0  0  0
   12.4854    9.1821   -3.5165 O   0  0  0  0  0  0  0  0  0  0  0  0
    9.3183    8.7480   -9.1093 C   0  0  0  0  0  0  0  0  0  0  0  0
    9.2937    8.4806  -10.6204 C   0  0  0  0  0  0  0  0  0  0  0  0
    6.6500    5.4014  -12.3246 C   0  0  0  0  0  0  0  0  0  0  0  0
    5.9395    4.2474  -12.6988 C   0  0  0  0  0  0  0  0  0  0  0  0
    6.5683    3.2465  -13.4609 C   0  0  0  0  0  0  0  0  0  0  0  0
    5.8743    2.1349  -13.8029 F   0  0  0  0  0  0  0  0  0  0  0  0
   10.1662    1.4280  -15.2927 H   0  0  0  0  0  0  0  0  0  0  0  0
   10.1783    3.1826  -15.4253 H   0  0  0  0  0  0  0  0  0  0  0  0
   10.4245    2.3957  -13.8470 H   0  0  0  0  0  0  0  0  0  0  0  0
    9.6628    4.6789  -13.7433 H   0  0  0  0  0  0  0  0  0  0  0  0
    9.7487    6.8142  -12.8013 H   0  0  0  0  0  0  0  0  0  0  0  0
    8.2049    7.6584  -12.8199 H   0  0  0  0  0  0  0  0  0  0  0  0
    9.3724    5.0764  -10.3893 H   0  0  0  0  0  0  0  0  0  0  0  0
   10.7339    6.1725  -10.5964 H   0  0  0  0  0  0  0  0  0  0  0  0
    8.7870    6.1531   -8.2424 H   0  0  0  0  0  0  0  0  0  0  0  0
   10.4800    5.6683   -8.2469 H   0  0  0  0  0  0  0  0  0  0  0  0
   11.2882   10.0892   -7.7873 H   0  0  0  0  0  0  0  0  0  0  0  0
   12.3251   10.6977   -5.6687 H   0  0  0  0  0  0  0  0  0  0  0  0
   10.3177    6.1854   -6.1786 H   0  0  0  0  0  0  0  0  0  0  0  0
   11.9940    6.2589   -1.9402 H   0  0  0  0  0  0  0  0  0  0  0  0
   13.2883    6.6824   -3.0470 H   0  0  0  0  0  0  0  0  0  0  0  0
   11.0176    8.5745   -2.2464 H   0  0  0  0  0  0  0  0  0  0  0  0
   12.6342    8.6445   -1.5298 H   0  0  0  0  0  0  0  0  0  0  0  0
    8.3118    8.7096   -8.6957 H   0  0  0  0  0  0  0  0  0  0  0  0
    9.6617    9.7668   -8.9557 H   0  0  0  0  0  0  0  0  0  0  0  0
   10.2807    8.6664  -11.0471 H   0  0  0  0  0  0  0  0  0  0  0  0
    8.5996    9.1757  -11.0954 H   0  0  0  0  0  0  0  0  0  0  0  0
    6.1469    6.1691  -11.7542 H   0  0  0  0  0  0  0  0  0  0  0  0
    4.9079    4.1303  -12.4030 H   0  0  0  0  0  0  0  0  0  0  0  0
    7.9376    7.0393  -10.5319 H   0  0  0  0  0  0  0  0  0  0  0  0
  2  1  1  0
  3  2  1  0
  4  3  1  0
  5  4  2  0
  6  5  1  0
  7  6  1  0
  8  7  1  0
  9  8  1  0
 10  9  1  0
 11 10  1  0
 12 11  1  0
 13 12  2  0
 14 13  1  0
 15 14  2  0
 16 11  2  0
 16 15  1  0
 17 15  1  0
 18 17  1  0
 19 18  1  0
 20 14  1  0
 20 19  1  0
 21 10  1  0
 22  7  1  0
 22 21  1  0
 23  5  1  0
 24 23  2  0
 25  3  2  0
 25 24  1  0
 26 25  1  0
 27  1  1  0
 28  1  1  0
 29  1  1  0
 30  4  1  0
 31  6  1  0
 32  6  1  0
 33  8  1  0
 34  8  1  0
 35  9  1  0
 36  9  1  0
 37 12  1  0
 38 13  1  0
 39 16  1  0
 40 18  1  0
 41 18  1  0
 42 19  1  0
 43 19  1  0
 44 21  1  0
 45 21  1  0
 46 22  1  0
 47 22  1  0
 48 23  1  0
 49 24  1  0
 50  7  1  0
M  CHG  1   7   1
M  END
>  <b_m_subgroup_collapsed>  (504) 
0

>  <r_i_docking_score>  (504) 
-7.8862039194736404

>  <s_m_subgroup_title>  (504) 
glide-dock_SP_D22_pv

>  <s_m_subgroupid>  (504) 
glide-dock_SP_D22_pv

>  <Molecule ChEMBL ID>  (504) 
CHEMBL1923293

>  <Standard Type>  (504) 
Ki

>  <Standard Value>  (504) 
16000.0

>  <label>  (504) 
0

$$$$
CHEMBL5857085
     RDKit          3D

 52 56  0  0  1  0  0  0  0  0999 V2000
   10.7306    4.7801  -13.3363 O   0  0  0  0  0  0  0  0  0  0  0  0
    9.6272    4.2639  -13.5242 C   0  0  0  0  0  0  0  0  0  0  0  0
    9.4911    3.1253  -14.5035 C   0  0  0  0  0  0  0  0  0  0  0  0
   10.6066    2.6090  -15.1942 C   0  0  0  0  0  0  0  0  0  0  0  0
   10.5190    1.6069  -16.0931 N   0  0  0  0  0  0  0  0  0  0  0  0
    9.3039    1.0680  -16.3441 C   0  0  0  0  0  0  0  0  0  0  0  0
    9.2733   -0.0312  -17.4002 C   0  0  0  0  0  0  0  0  0  0  0  0
    9.6895    0.4590  -18.5682 F   0  0  0  0  0  0  0  0  0  0  0  0
   10.0852   -1.0279  -17.0454 F   0  0  0  0  0  0  0  0  0  0  0  0
    8.0440   -0.5191  -17.5689 F   0  0  0  0  0  0  0  0  0  0  0  0
    8.1274    1.5044  -15.6925 C   0  0  0  0  0  0  0  0  0  0  0  0
    8.2286    2.5494  -14.7541 C   0  0  0  0  0  0  0  0  0  0  0  0
    7.0716    3.0757  -14.0296 C   0  0  0  0  0  0  0  0  0  0  0  0
    7.2380    4.0804  -13.1490 C   0  0  0  0  0  0  0  0  0  0  0  0
    8.4920    4.6675  -12.8858 N   0  0  0  0  0  0  0  0  0  0  0  0
    8.5516    5.7336  -11.8787 C   0  0  0  0  0  0  0  0  0  0  0  0
    9.0780    5.1870  -10.5356 C   0  0  0  0  0  0  0  0  0  0  0  0
    9.2366    6.2316   -9.5273 N   0  0  0  0  0  0  0  0  0  0  0  0
   10.4044    7.0747   -9.8011 C   0  0  0  0  0  0  0  0  0  0  0  0
   10.5465    8.1563   -8.7166 C   0  0  0  0  0  0  0  0  0  0  0  0
   10.6654    7.5551   -7.3888 N   0  0  0  0  0  0  0  0  0  0  0  0
   10.9572    8.4563   -6.3516 C   0  0  0  0  0  0  0  0  0  0  0  0
   10.8874    9.7782   -6.4796 N   0  0  0  0  0  0  0  0  0  0  0  0
   11.2805   10.3416   -5.2358 O   0  0  0  0  0  0  0  0  0  0  0  0
   11.6076    9.3312   -4.3472 C   0  0  0  0  0  0  0  0  0  0  0  0
   12.0507    9.3720   -3.0187 C   0  0  0  0  0  0  0  0  0  0  0  0
   12.2834    8.1467   -2.3632 C   0  0  0  0  0  0  0  0  0  0  0  0
   12.0877    6.9250   -3.0505 C   0  0  0  0  0  0  0  0  0  0  0  0
   11.6654    6.9109   -4.4002 C   0  0  0  0  0  0  0  0  0  0  0  0
   11.4003    8.1386   -5.0463 C   0  0  0  0  0  0  0  0  0  0  0  0
    9.5320    6.6767   -7.1159 C   0  0  0  0  0  0  0  0  0  0  0  0
    9.4146    5.6039   -8.2163 C   0  0  0  0  0  0  0  0  0  0  0  0
   11.5980    3.0079  -15.0347 H   0  0  0  0  0  0  0  0  0  0  0  0
    7.1704    1.0527  -15.9098 H   0  0  0  0  0  0  0  0  0  0  0  0
    6.1005    2.6381  -14.2090 H   0  0  0  0  0  0  0  0  0  0  0  0
    6.4173    4.4935  -12.5793 H   0  0  0  0  0  0  0  0  0  0  0  0
    7.5670    6.1796  -11.7255 H   0  0  0  0  0  0  0  0  0  0  0  0
    9.1742    6.5433  -12.2599 H   0  0  0  0  0  0  0  0  0  0  0  0
   10.0198    4.6528  -10.6660 H   0  0  0  0  0  0  0  0  0  0  0  0
    8.3526    4.4572  -10.1729 H   0  0  0  0  0  0  0  0  0  0  0  0
   10.3052    7.5668  -10.7672 H   0  0  0  0  0  0  0  0  0  0  0  0
   11.3065    6.4688   -9.8441 H   0  0  0  0  0  0  0  0  0  0  0  0
    9.6806    8.8213   -8.7445 H   0  0  0  0  0  0  0  0  0  0  0  0
   11.4275    8.7650   -8.9263 H   0  0  0  0  0  0  0  0  0  0  0  0
   12.1863   10.3142   -2.5099 H   0  0  0  0  0  0  0  0  0  0  0  0
   12.6096    8.1459   -1.3342 H   0  0  0  0  0  0  0  0  0  0  0  0
   12.2707    5.9894   -2.5414 H   0  0  0  0  0  0  0  0  0  0  0  0
   11.5321    5.9735   -4.9196 H   0  0  0  0  0  0  0  0  0  0  0  0
    9.6421    6.1913   -6.1474 H   0  0  0  0  0  0  0  0  0  0  0  0
    8.6130    7.2652   -7.0693 H   0  0  0  0  0  0  0  0  0  0  0  0
    8.5608    4.9610   -7.9986 H   0  0  0  0  0  0  0  0  0  0  0  0
   10.3048    4.9739   -8.2285 H   0  0  0  0  0  0  0  0  0  0  0  0
  2  1  2  0
  3  2  1  0
  4  3  2  0
  5  4  1  0
  6  5  2  0
  7  6  1  0
  8  7  1  0
  9  7  1  0
 10  7  1  0
 11  6  1  0
 12  3  1  0
 12 11  2  0
 13 12  1  0
 14 13  2  0
 15  2  1  0
 15 14  1  0
 16 15  1  0
 17 16  1  0
 18 17  1  0
 19 18  1  0
 20 19  1  0
 21 20  1  0
 22 21  1  0
 23 22  2  0
 24 23  1  0
 25 24  1  0
 26 25  2  0
 27 26  1  0
 28 27  2  0
 29 28  1  0
 30 22  1  0
 30 25  1  0
 30 29  2  0
 31 21  1  0
 32 18  1  0
 32 31  1  0
 33  4  1  0
 34 11  1  0
 35 13  1  0
 36 14  1  0
 37 16  1  0
 38 16  1  0
 39 17  1  0
 40 17  1  0
 41 19  1  0
 42 19  1  0
 43 20  1  0
 44 20  1  0
 45 26  1  0
 46 27  1  0
 47 28  1  0
 48 29  1  0
 49 31  1  0
 50 31  1  0
 51 32  1  0
 52 32  1  0
M  END
>  <b_m_subgroup_collapsed>  (505) 
0

>  <r_i_docking_score>  (505) 
-7.8856086276211599

>  <s_m_subgroup_title>  (505) 
glide-dock_SP_D22_pv

>  <s_m_subgroupid>  (505) 
glide-dock_SP_D22_pv

>  <Molecule ChEMBL ID>  (505) 
CHEMBL5857085

>  <Standard Type>  (505) 
Ki

>  <Standard Value>  (505) 
10000.0

>  <label>  (505) 
0

$$$$
CHEMBL246439
     RDKit          3D

 49 52  0  0  1  0  0  0  0  0999 V2000
    7.1863    4.7735  -11.7060 C   0  0  0  0  0  0  0  0  0  0  0  0
    8.5073    4.8788  -12.3890 C   0  0  0  0  0  0  0  0  0  0  0  0
    8.9856    3.8587  -13.1925 N   0  0  0  0  0  0  0  0  0  0  0  0
   10.1886    4.2083  -13.7651 C   0  0  0  0  0  0  0  0  0  0  0  0
   11.0339    3.5396  -14.6667 C   0  0  0  0  0  0  0  0  0  0  0  0
   12.2012    4.1794  -15.1185 C   0  0  0  0  0  0  0  0  0  0  0  0
   12.5188    5.4665  -14.6470 C   0  0  0  0  0  0  0  0  0  0  0  0
   11.6800    6.1184  -13.7222 C   0  0  0  0  0  0  0  0  0  0  0  0
   10.4864    5.5090  -13.2648 C   0  0  0  0  0  0  0  0  0  0  0  0
    9.4213    5.9044  -12.3779 C   0  0  0  0  0  0  0  0  0  0  0  0
    9.2890    7.2118  -11.6497 C   0  0  0  0  0  0  0  0  0  0  0  0
    9.9930    7.2220  -10.3399 N   0  0  2  0  0  0  0  0  0  0  0  0
    9.2848    6.4222   -9.3033 C   0  0  0  0  0  0  0  0  0  0  0  0
    9.9515    6.5077   -7.9165 C   0  0  0  0  0  0  0  0  0  0  0  0
   10.1594    7.9640   -7.4378 C   0  0  1  0  0  0  0  0  0  0  0  0
    8.8863    8.5720   -7.3884 O   0  0  0  0  0  0  0  0  0  0  0  0
   10.8304    8.0951   -6.0655 C   0  0  0  0  0  0  0  0  0  0  0  0
   10.9486    9.3764   -5.4770 C   0  0  0  0  0  0  0  0  0  0  0  0
   11.4777    9.5284   -4.1810 C   0  0  0  0  0  0  0  0  0  0  0  0
   11.8999    8.3998   -3.4569 C   0  0  0  0  0  0  0  0  0  0  0  0
   12.4865    8.5728   -1.8469 Cl  0  0  0  0  0  0  0  0  0  0  0  0
   11.8079    7.1224   -4.0362 C   0  0  0  0  0  0  0  0  0  0  0  0
   11.2846    6.9714   -5.3339 C   0  0  0  0  0  0  0  0  0  0  0  0
   10.9655    8.6957   -8.5304 C   0  0  0  0  0  0  0  0  0  0  0  0
   10.2743    8.6170   -9.9060 C   0  0  0  0  0  0  0  0  0  0  0  0
    7.2860    5.0009  -10.6480 H   0  0  0  0  0  0  0  0  0  0  0  0
    6.4722    5.4817  -12.1256 H   0  0  0  0  0  0  0  0  0  0  0  0
    6.7632    3.7726  -11.7943 H   0  0  0  0  0  0  0  0  0  0  0  0
    8.4919    2.9903  -13.3442 H   0  0  0  0  0  0  0  0  0  0  0  0
   10.7845    2.5502  -15.0211 H   0  0  0  0  0  0  0  0  0  0  0  0
   12.8559    3.6837  -15.8217 H   0  0  0  0  0  0  0  0  0  0  0  0
   13.4211    5.9552  -14.9860 H   0  0  0  0  0  0  0  0  0  0  0  0
   11.9458    7.1064  -13.3776 H   0  0  0  0  0  0  0  0  0  0  0  0
    8.2397    7.4714  -11.5054 H   0  0  0  0  0  0  0  0  0  0  0  0
    9.6947    8.0018  -12.2818 H   0  0  0  0  0  0  0  0  0  0  0  0
    9.2624    5.3771   -9.6103 H   0  0  0  0  0  0  0  0  0  0  0  0
    8.2460    6.7439   -9.2269 H   0  0  0  0  0  0  0  0  0  0  0  0
   10.9106    5.9913   -7.9658 H   0  0  0  0  0  0  0  0  0  0  0  0
    9.3402    5.9562   -7.1980 H   0  0  0  0  0  0  0  0  0  0  0  0
    8.2699    8.0012   -6.9448 H   0  0  0  0  0  0  0  0  0  0  0  0
   10.6036   10.2516   -6.0073 H   0  0  0  0  0  0  0  0  0  0  0  0
   11.5342   10.5081   -3.7284 H   0  0  0  0  0  0  0  0  0  0  0  0
   12.1272    6.2528   -3.4821 H   0  0  0  0  0  0  0  0  0  0  0  0
   11.2208    5.9728   -5.7354 H   0  0  0  0  0  0  0  0  0  0  0  0
   11.1069    9.7476   -8.2733 H   0  0  0  0  0  0  0  0  0  0  0  0
   11.9653    8.2625   -8.5981 H   0  0  0  0  0  0  0  0  0  0  0  0
   10.9161    9.0953  -10.6460 H   0  0  0  0  0  0  0  0  0  0  0  0
    9.3412    9.1850   -9.8909 H   0  0  0  0  0  0  0  0  0  0  0  0
   10.8886    6.7812  -10.4880 H   0  0  0  0  0  0  0  0  0  0  0  0
  2  1  1  0
  3  2  1  0
  4  3  1  0
  5  4  2  0
  6  5  1  0
  7  6  2  0
  8  7  1  0
  9  4  1  0
  9  8  2  0
 10  2  2  0
 10  9  1  0
 11 10  1  0
 12 11  1  0
 13 12  1  0
 14 13  1  0
 15 14  1  0
 15 16  1  1
 17 15  1  0
 18 17  2  0
 19 18  1  0
 20 19  2  0
 21 20  1  0
 22 20  1  0
 23 17  1  0
 23 22  2  0
 24 15  1  0
 25 12  1  0
 25 24  1  0
 26  1  1  0
 27  1  1  0
 28  1  1  0
 29  3  1  0
 30  5  1  0
 31  6  1  0
 32  7  1  0
 33  8  1  0
 34 11  1  0
 35 11  1  0
 36 13  1  0
 37 13  1  0
 38 14  1  0
 39 14  1  0
 40 16  1  0
 41 18  1  0
 42 19  1  0
 43 22  1  0
 44 23  1  0
 45 24  1  0
 46 24  1  0
 47 25  1  0
 48 25  1  0
 12 49  1  6
M  CHG  1  12   1
M  END
>  <b_m_subgroup_collapsed>  (506) 
0

>  <r_i_docking_score>  (506) 
-7.8841932735197604

>  <s_m_subgroup_title>  (506) 
glide-dock_SP_D22_pv

>  <s_m_subgroupid>  (506) 
glide-dock_SP_D22_pv

>  <Molecule ChEMBL ID>  (506) 
CHEMBL246439

>  <Standard Type>  (506) 
Ki

>  <Standard Value>  (506) 
15.4

>  <label>  (506) 
1

$$$$
CHEMBL272873
     RDKit          3D

 50 53  0  0  1  0  0  0  0  0999 V2000
   12.8845    2.7069  -17.7234 F   0  0  0  0  0  0  0  0  0  0  0  0
   11.9415    2.6906  -16.7818 C   0  0  0  0  0  0  0  0  0  0  0  0
   12.0843    3.9075  -15.8641 C   0  0  0  0  0  0  0  0  0  0  0  0
   11.0116    3.9054  -14.9314 O   0  0  0  0  0  0  0  0  0  0  0  0
   10.9381    4.9364  -14.0193 C   0  0  0  0  0  0  0  0  0  0  0  0
   11.9005    5.9686  -13.9021 C   0  0  0  0  0  0  0  0  0  0  0  0
   11.7559    6.9714  -12.9245 C   0  0  0  0  0  0  0  0  0  0  0  0
   10.6541    6.9707  -12.0403 C   0  0  0  0  0  0  0  0  0  0  0  0
   10.5661    7.9673  -11.0472 N   0  0  0  0  0  0  0  0  0  0  0  0
   11.7074    8.1098  -10.1481 C   0  0  0  0  0  0  0  0  0  0  0  0
   11.4282    7.3733   -8.8283 C   0  0  0  0  0  0  0  0  0  0  0  0
   10.1758    7.8693   -8.2244 N   0  0  0  0  0  0  0  0  0  0  0  0
    9.9573    7.3882   -6.8432 C   0  0  0  0  0  0  0  0  0  0  0  0
   10.6948    8.2475   -5.8599 C   0  0  0  0  0  0  0  0  0  0  0  0
   10.8286    9.6586   -5.8861 C   0  0  0  0  0  0  0  0  0  0  0  0
   11.3699   10.1723   -4.8139 N   0  0  0  0  0  0  0  0  0  0  0  0
   11.6866    9.0941   -4.0511 N   0  0  0  0  0  0  0  0  0  0  0  0
   12.2543    9.1397   -2.8183 C   0  0  0  0  0  0  0  0  0  0  0  0
   12.4743    7.9604   -2.1495 C   0  0  0  0  0  0  0  0  0  0  0  0
   12.1399    6.7214   -2.7499 C   0  0  0  0  0  0  0  0  0  0  0  0
   11.5845    6.6857   -4.0086 C   0  0  0  0  0  0  0  0  0  0  0  0
   11.3141    7.8966   -4.6886 C   0  0  0  0  0  0  0  0  0  0  0  0
    9.0210    7.6476   -9.1211 C   0  0  0  0  0  0  0  0  0  0  0  0
    9.2651    8.3227  -10.4862 C   0  0  0  0  0  0  0  0  0  0  0  0
    9.6812    5.9529  -12.1774 C   0  0  0  0  0  0  0  0  0  0  0  0
    9.8287    4.9473  -13.1516 C   0  0  0  0  0  0  0  0  0  0  0  0
   12.0438    1.7566  -16.2286 H   0  0  0  0  0  0  0  0  0  0  0  0
   10.9768    2.6876  -17.2887 H   0  0  0  0  0  0  0  0  0  0  0  0
   12.0599    4.8207  -16.4608 H   0  0  0  0  0  0  0  0  0  0  0  0
   13.0433    3.8645  -15.3459 H   0  0  0  0  0  0  0  0  0  0  0  0
   12.7689    6.0108  -14.5424 H   0  0  0  0  0  0  0  0  0  0  0  0
   12.5088    7.7435  -12.8581 H   0  0  0  0  0  0  0  0  0  0  0  0
   11.8753    9.1712   -9.9611 H   0  0  0  0  0  0  0  0  0  0  0  0
   12.6274    7.7324  -10.5923 H   0  0  0  0  0  0  0  0  0  0  0  0
   12.2652    7.5003   -8.1403 H   0  0  0  0  0  0  0  0  0  0  0  0
   11.2861    6.3065   -9.0081 H   0  0  0  0  0  0  0  0  0  0  0  0
   10.2465    6.3392   -6.7564 H   0  0  0  0  0  0  0  0  0  0  0  0
    8.8934    7.4240   -6.5998 H   0  0  0  0  0  0  0  0  0  0  0  0
   10.4859   10.3369   -6.6487 H   0  0  0  0  0  0  0  0  0  0  0  0
   12.4848   10.1191   -2.4106 H   0  0  0  0  0  0  0  0  0  0  0  0
   12.8877    7.9882   -1.1472 H   0  0  0  0  0  0  0  0  0  0  0  0
   12.3083    5.7903   -2.2144 H   0  0  0  0  0  0  0  0  0  0  0  0
   11.2943    5.7555   -4.4725 H   0  0  0  0  0  0  0  0  0  0  0  0
    8.8291    6.5803   -9.2385 H   0  0  0  0  0  0  0  0  0  0  0  0
    8.1468    8.0843   -8.6470 H   0  0  0  0  0  0  0  0  0  0  0  0
    9.2388    9.4018  -10.3526 H   0  0  0  0  0  0  0  0  0  0  0  0
    8.4681    8.0967  -11.1910 H   0  0  0  0  0  0  0  0  0  0  0  0
    8.8206    5.9095  -11.5266 H   0  0  0  0  0  0  0  0  0  0  0  0
    9.0846    4.1677  -13.2265 H   0  0  0  0  0  0  0  0  0  0  0  0
   10.2652    8.8710   -8.1647 H   0  0  0  0  0  0  0  0  0  0  0  0
  2  1  1  0
  3  2  1  0
  4  3  1  0
  5  4  1  0
  6  5  1  0
  7  6  2  0
  8  7  1  0
  9  8  1  0
 10  9  1  0
 11 10  1  0
 12 11  1  0
 13 12  1  0
 14 13  1  0
 15 14  1  0
 16 15  2  0
 17 16  1  0
 18 17  1  0
 19 18  2  0
 20 19  1  0
 21 20  2  0
 22 14  2  0
 22 17  1  0
 22 21  1  0
 23 12  1  0
 24  9  1  0
 24 23  1  0
 25  8  2  0
 26  5  2  0
 26 25  1  0
 27  2  1  0
 28  2  1  0
 29  3  1  0
 30  3  1  0
 31  6  1  0
 32  7  1  0
 33 10  1  0
 34 10  1  0
 35 11  1  0
 36 11  1  0
 37 13  1  0
 38 13  1  0
 39 15  1  0
 40 18  1  0
 41 19  1  0
 42 20  1  0
 43 21  1  0
 44 23  1  0
 45 23  1  0
 46 24  1  0
 47 24  1  0
 48 25  1  0
 49 26  1  0
 50 12  1  0
M  CHG  1  12   1
M  END
>  <b_m_subgroup_collapsed>  (507) 
0

>  <r_i_docking_score>  (507) 
-7.88394755915931

>  <s_m_subgroup_title>  (507) 
glide-dock_SP_D22_pv

>  <s_m_subgroupid>  (507) 
glide-dock_SP_D22_pv

>  <Molecule ChEMBL ID>  (507) 
CHEMBL272873

>  <Standard Type>  (507) 
Ki

>  <Standard Value>  (507) 
66000.0

>  <label>  (507) 
0

$$$$
CHEMBL5885188
     RDKit          3D

 64 68  0  0  1  0  0  0  0  0999 V2000
    3.5408   -1.0277  -15.4511 C   0  0  0  0  0  0  0  0  0  0  0  0
    4.6385   -0.6815  -15.3454 N   0  0  0  0  0  0  0  0  0  0  0  0
    5.9612   -0.2651  -15.2111 C   0  0  0  0  0  0  0  0  0  0  0  0
    6.5397   -0.2521  -13.9797 C   0  0  0  0  0  0  0  0  0  0  0  0
    7.8696    0.1723  -14.2462 C   0  0  0  0  0  0  0  0  0  0  0  0
    7.9739    0.3757  -15.5982 C   0  0  0  0  0  0  0  0  0  0  0  0
    9.3301    0.9258  -16.6073 S   0  0  0  0  0  0  0  0  0  0  0  0
   10.0798   -0.2755  -17.0062 O   0  0  0  0  0  0  0  0  0  0  0  0
    8.7639    1.8446  -17.6073 O   0  0  0  0  0  0  0  0  0  0  0  0
   10.3425    1.8405  -15.5432 N   0  0  0  0  0  0  0  0  0  0  0  0
    9.9615    3.1951  -15.1198 C   0  0  1  0  0  0  0  0  0  0  0  0
    8.8985    3.1311  -14.0131 C   0  0  0  0  0  0  0  0  0  0  0  0
    8.5205    4.5023  -13.4826 C   0  0  0  0  0  0  0  0  0  0  0  0
    9.7451    5.2650  -12.9618 C   0  0  2  0  0  0  0  0  0  0  0  0
    9.2976    6.6602  -12.5051 C   0  0  0  0  0  0  0  0  0  0  0  0
    8.7119    6.7395  -11.0907 C   0  0  0  0  0  0  0  0  0  0  0  0
    9.7422    6.7961  -10.0267 N   0  0  0  0  0  0  0  0  0  0  0  0
   10.4517    8.0991   -9.9589 C   0  0  0  0  0  0  0  0  0  0  0  0
   11.6407    7.9982   -9.0002 C   0  0  0  0  0  0  0  0  0  0  0  0
   11.2139    7.5143   -7.6839 N   0  0  0  0  0  0  0  0  0  0  0  0
   11.2180    8.4130   -6.5941 C   0  0  0  0  0  0  0  0  0  0  0  0
   11.0627    9.6954   -6.8344 N   0  0  0  0  0  0  0  0  0  0  0  0
   11.2850   10.5722   -5.4467 S   0  0  0  0  0  0  0  0  0  0  0  0
   11.6069    9.2029   -4.4201 C   0  0  0  0  0  0  0  0  0  0  0  0
   11.9483    9.1642   -3.0579 C   0  0  0  0  0  0  0  0  0  0  0  0
   12.1554    7.9238   -2.4341 C   0  0  0  0  0  0  0  0  0  0  0  0
   12.0188    6.7376   -3.1786 C   0  0  0  0  0  0  0  0  0  0  0  0
   11.6859    6.7929   -4.5477 C   0  0  0  0  0  0  0  0  0  0  0  0
   11.4790    8.0252   -5.2150 C   0  0  0  0  0  0  0  0  0  0  0  0
   10.3638    6.3253   -7.6587 C   0  0  0  0  0  0  0  0  0  0  0  0
    9.2177    6.4212   -8.6879 C   0  0  0  0  0  0  0  0  0  0  0  0
   10.8319    5.3364  -14.0603 C   0  0  0  0  0  0  0  0  0  0  0  0
   11.2030    3.9471  -14.6093 C   0  0  0  0  0  0  0  0  0  0  0  0
    6.7794    0.1281  -16.2187 O   0  0  0  0  0  0  0  0  0  0  0  0
    6.0885   -0.5249  -13.0365 H   0  0  0  0  0  0  0  0  0  0  0  0
    8.6709    0.2948  -13.5341 H   0  0  0  0  0  0  0  0  0  0  0  0
   11.3160    1.7975  -15.8449 H   0  0  0  0  0  0  0  0  0  0  0  0
    9.5584    3.7328  -15.9798 H   0  0  0  0  0  0  0  0  0  0  0  0
    7.9771    2.6979  -14.3928 H   0  0  0  0  0  0  0  0  0  0  0  0
    9.2677    2.5164  -13.1908 H   0  0  0  0  0  0  0  0  0  0  0  0
    8.0410    5.0652  -14.2836 H   0  0  0  0  0  0  0  0  0  0  0  0
    7.7732    4.3903  -12.6963 H   0  0  0  0  0  0  0  0  0  0  0  0
   10.1620    4.7221  -12.1120 H   0  0  0  0  0  0  0  0  0  0  0  0
   10.0968    7.3840  -12.6467 H   0  0  0  0  0  0  0  0  0  0  0  0
    8.4860    6.9762  -13.1598 H   0  0  0  0  0  0  0  0  0  0  0  0
    8.1110    7.6430  -11.0549 H   0  0  0  0  0  0  0  0  0  0  0  0
    8.0275    5.9088  -10.9195 H   0  0  0  0  0  0  0  0  0  0  0  0
   10.8214    8.4141  -10.9327 H   0  0  0  0  0  0  0  0  0  0  0  0
    9.7622    8.8749   -9.6253 H   0  0  0  0  0  0  0  0  0  0  0  0
   12.4012    7.3458   -9.4144 H   0  0  0  0  0  0  0  0  0  0  0  0
   12.1373    8.9681   -8.9343 H   0  0  0  0  0  0  0  0  0  0  0  0
   12.0538   10.0819   -2.4969 H   0  0  0  0  0  0  0  0  0  0  0  0
   12.4270    7.8859   -1.3911 H   0  0  0  0  0  0  0  0  0  0  0  0
   12.1775    5.7791   -2.7036 H   0  0  0  0  0  0  0  0  0  0  0  0
   11.6161    5.8687   -5.1009 H   0  0  0  0  0  0  0  0  0  0  0  0
   10.9815    5.4509   -7.8640 H   0  0  0  0  0  0  0  0  0  0  0  0
    9.9370    6.1762   -6.6668 H   0  0  0  0  0  0  0  0  0  0  0  0
    8.4864    7.1649   -8.3666 H   0  0  0  0  0  0  0  0  0  0  0  0
    8.6926    5.4670   -8.7380 H   0  0  0  0  0  0  0  0  0  0  0  0
   10.4861    5.9573  -14.8873 H   0  0  0  0  0  0  0  0  0  0  0  0
   11.7268    5.8215  -13.6678 H   0  0  0  0  0  0  0  0  0  0  0  0
   11.6926    3.3653  -13.8293 H   0  0  0  0  0  0  0  0  0  0  0  0
   11.9323    4.0558  -15.4126 H   0  0  0  0  0  0  0  0  0  0  0  0
   10.4275    6.0938  -10.2577 H   0  0  0  0  0  0  0  0  0  0  0  0
  2  1  3  0
  3  2  1  0
  4  3  2  0
  5  4  1  0
  6  5  2  0
  7  6  1  0
  8  7  2  0
  9  7  2  0
 10  7  1  0
 11 10  1  0
 12 11  1  0
 13 12  1  0
 14 13  1  0
 15 14  1  0
 16 15  1  0
 17 16  1  0
 18 17  1  0
 19 18  1  0
 20 19  1  0
 21 20  1  0
 22 21  2  0
 23 22  1  0
 24 23  1  0
 25 24  2  0
 26 25  1  0
 27 26  2  0
 28 27  1  0
 29 21  1  0
 29 24  1  0
 29 28  2  0
 30 20  1  0
 31 17  1  0
 31 30  1  0
 32 14  1  0
 33 11  1  0
 33 32  1  0
 34  3  1  0
 34  6  1  0
 35  4  1  0
 36  5  1  0
 37 10  1  0
 11 38  1  6
 39 12  1  0
 40 12  1  0
 41 13  1  0
 42 13  1  0
 14 43  1  1
 44 15  1  0
 45 15  1  0
 46 16  1  0
 47 16  1  0
 48 18  1  0
 49 18  1  0
 50 19  1  0
 51 19  1  0
 52 25  1  0
 53 26  1  0
 54 27  1  0
 55 28  1  0
 56 30  1  0
 57 30  1  0
 58 31  1  0
 59 31  1  0
 60 32  1  0
 61 32  1  0
 62 33  1  0
 63 33  1  0
 64 17  1  0
M  CHG  3   1  -1   2   1  17   1
M  END
>  <b_m_subgroup_collapsed>  (508) 
0

>  <r_i_docking_score>  (508) 
-7.8787163754663396

>  <s_m_subgroup_title>  (508) 
glide-dock_SP_D22_pv

>  <s_m_subgroupid>  (508) 
glide-dock_SP_D22_pv

>  <Molecule ChEMBL ID>  (508) 
CHEMBL5885188

>  <Standard Type>  (508) 
Ki

>  <Standard Value>  (508) 
8.54

>  <label>  (508) 
1

$$$$
CHEMBL3133875
     RDKit          3D

 62 65  0  0  1  0  0  0  0  0999 V2000
   11.6857   11.0187   -5.9723 C   0  0  0  0  0  0  0  0  0  0  0  0
   11.0224    9.7789   -5.9799 O   0  0  0  0  0  0  0  0  0  0  0  0
   11.3618    8.8951   -4.9839 C   0  0  0  0  0  0  0  0  0  0  0  0
   11.9271    9.2921   -3.7435 C   0  0  0  0  0  0  0  0  0  0  0  0
   12.2841    8.3356   -2.7767 C   0  0  0  0  0  0  0  0  0  0  0  0
   12.0891    6.9704   -3.0443 C   0  0  0  0  0  0  0  0  0  0  0  0
   11.5204    6.5734   -4.2670 C   0  0  0  0  0  0  0  0  0  0  0  0
   11.1291    7.5243   -5.2288 C   0  0  0  0  0  0  0  0  0  0  0  0
   10.4842    7.0903   -6.3987 N   0  0  0  0  0  0  0  0  0  0  0  0
   11.2977    6.5666   -7.4880 C   0  0  0  0  0  0  0  0  0  0  0  0
   11.1651    7.4211   -8.7640 C   0  0  0  0  0  0  0  0  0  0  0  0
    9.7349    7.6333   -9.0914 N   0  0  0  0  0  0  0  0  0  0  0  0
    9.5054    8.2399  -10.4236 C   0  0  0  0  0  0  0  0  0  0  0  0
    9.7455    7.2883  -11.6180 C   0  0  0  0  0  0  0  0  0  0  0  0
    8.8152    6.0557  -11.7272 C   0  0  0  0  0  0  0  0  0  0  0  0
    8.8718    5.4522  -13.1491 C   0  0  0  0  0  0  0  0  0  0  0  0
    8.2155    4.1523  -13.3153 N   0  0  0  0  0  0  0  0  0  0  0  0
    6.8936    3.9177  -13.3649 C   0  0  0  0  0  0  0  0  0  0  0  0
    6.0463    4.7532  -13.0547 O   0  0  0  0  0  0  0  0  0  0  0  0
    6.4929    2.5561  -13.7970 C   0  0  0  0  0  0  0  0  0  0  0  0
    7.0703    1.6199  -14.6195 C   0  0  0  0  0  0  0  0  0  0  0  0
    6.1272    0.5394  -14.7520 C   0  0  0  0  0  0  0  0  0  0  0  0
    6.0692   -0.6355  -15.5382 C   0  0  0  0  0  0  0  0  0  0  0  0
    4.9275   -1.4713  -15.5383 C   0  0  0  0  0  0  0  0  0  0  0  0
    4.8859   -2.5951  -16.3204 O   0  0  0  0  0  0  0  0  0  0  0  0
    3.8119   -1.1306  -14.7551 C   0  0  0  0  0  0  0  0  0  0  0  0
    3.8466    0.0194  -13.9472 C   0  0  0  0  0  0  0  0  0  0  0  0
    5.0019    0.8258  -13.9233 C   0  0  0  0  0  0  0  0  0  0  0  0
    5.2855    2.0447  -13.3345 N   0  0  0  0  0  0  0  0  0  0  0  0
    9.1018    8.3932   -7.9880 C   0  0  0  0  0  0  0  0  0  0  0  0
    9.1371    7.5763   -6.6840 C   0  0  0  0  0  0  0  0  0  0  0  0
   11.5488   11.5340   -6.9191 H   0  0  0  0  0  0  0  0  0  0  0  0
   11.2860   11.6420   -5.1709 H   0  0  0  0  0  0  0  0  0  0  0  0
   12.7599   10.8854   -5.8469 H   0  0  0  0  0  0  0  0  0  0  0  0
   12.0831   10.3295   -3.4998 H   0  0  0  0  0  0  0  0  0  0  0  0
   12.7102    8.6528   -1.8349 H   0  0  0  0  0  0  0  0  0  0  0  0
   12.3601    6.2253   -2.3104 H   0  0  0  0  0  0  0  0  0  0  0  0
   11.3395    5.5329   -4.4577 H   0  0  0  0  0  0  0  0  0  0  0  0
   10.9902    5.5398   -7.6862 H   0  0  0  0  0  0  0  0  0  0  0  0
   12.3440    6.5419   -7.1854 H   0  0  0  0  0  0  0  0  0  0  0  0
   11.6908    6.9670   -9.5992 H   0  0  0  0  0  0  0  0  0  0  0  0
   11.6498    8.3877   -8.6082 H   0  0  0  0  0  0  0  0  0  0  0  0
   10.1534    9.1106  -10.5188 H   0  0  0  0  0  0  0  0  0  0  0  0
    8.4861    8.6178  -10.4915 H   0  0  0  0  0  0  0  0  0  0  0  0
   10.7857    6.9660  -11.6546 H   0  0  0  0  0  0  0  0  0  0  0  0
    9.6096    7.8927  -12.5145 H   0  0  0  0  0  0  0  0  0  0  0  0
    7.7863    6.3410  -11.4978 H   0  0  0  0  0  0  0  0  0  0  0  0
    9.1026    5.3082  -10.9859 H   0  0  0  0  0  0  0  0  0  0  0  0
    9.9151    5.3124  -13.4362 H   0  0  0  0  0  0  0  0  0  0  0  0
    8.4544    6.1655  -13.8599 H   0  0  0  0  0  0  0  0  0  0  0  0
    8.8198    3.3705  -13.5229 H   0  0  0  0  0  0  0  0  0  0  0  0
    8.0122    1.7048  -15.1409 H   0  0  0  0  0  0  0  0  0  0  0  0
    6.9009   -0.8923  -16.1771 H   0  0  0  0  0  0  0  0  0  0  0  0
    4.1051   -3.1403  -16.2393 H   0  0  0  0  0  0  0  0  0  0  0  0
    2.9162   -1.7320  -14.7981 H   0  0  0  0  0  0  0  0  0  0  0  0
    2.9417    0.3189  -13.4468 H   0  0  0  0  0  0  0  0  0  0  0  0
    4.6787    2.5835  -12.7323 H   0  0  0  0  0  0  0  0  0  0  0  0
    9.6031    9.3527   -7.8714 H   0  0  0  0  0  0  0  0  0  0  0  0
    8.0861    8.6491   -8.2380 H   0  0  0  0  0  0  0  0  0  0  0  0
    8.4686    6.7189   -6.7686 H   0  0  0  0  0  0  0  0  0  0  0  0
    8.7681    8.1706   -5.8472 H   0  0  0  0  0  0  0  0  0  0  0  0
    9.2750    6.7329   -9.1039 H   0  0  0  0  0  0  0  0  0  0  0  0
  2  1  1  0
  3  2  1  0
  4  3  2  0
  5  4  1  0
  6  5  2  0
  7  6  1  0
  8  3  1  0
  8  7  2  0
  9  8  1  0
 10  9  1  0
 11 10  1  0
 12 11  1  0
 13 12  1  0
 14 13  1  0
 15 14  1  0
 16 15  1  0
 17 16  1  0
 18 17  1  0
 19 18  2  0
 20 18  1  0
 21 20  2  0
 22 21  1  0
 23 22  2  0
 24 23  1  0
 25 24  1  0
 26 24  2  0
 27 26  1  0
 28 22  1  0
 28 27  2  0
 29 20  1  0
 29 28  1  0
 30 12  1  0
 31  9  1  0
 31 30  1  0
 32  1  1  0
 33  1  1  0
 34  1  1  0
 35  4  1  0
 36  5  1  0
 37  6  1  0
 38  7  1  0
 39 10  1  0
 40 10  1  0
 41 11  1  0
 42 11  1  0
 43 13  1  0
 44 13  1  0
 45 14  1  0
 46 14  1  0
 47 15  1  0
 48 15  1  0
 49 16  1  0
 50 16  1  0
 51 17  1  0
 52 21  1  0
 53 23  1  0
 54 25  1  0
 55 26  1  0
 56 27  1  0
 57 29  1  0
 58 30  1  0
 59 30  1  0
 60 31  1  0
 61 31  1  0
 62 12  1  0
M  CHG  1  12   1
M  END
>  <b_m_subgroup_collapsed>  (509) 
0

>  <r_i_docking_score>  (509) 
-7.8754623441112601

>  <s_m_subgroup_title>  (509) 
glide-dock_SP_D22_pv

>  <s_m_subgroupid>  (509) 
glide-dock_SP_D22_pv

>  <Molecule ChEMBL ID>  (509) 
CHEMBL3133875

>  <Standard Type>  (509) 
Ki

>  <Standard Value>  (509) 
15.7

>  <label>  (509) 
1

$$$$
CHEMBL28321
     RDKit          3D

 52 55  0  0  1  0  0  0  0  0999 V2000
   11.8770   10.6623   -6.2470 C   0  0  0  0  0  0  0  0  0  0  0  0
   10.9391   10.3277   -5.2416 O   0  0  0  0  0  0  0  0  0  0  0  0
   11.2868    9.1872   -4.5675 C   0  0  0  0  0  0  0  0  0  0  0  0
   11.8277    9.3337   -3.2748 C   0  0  0  0  0  0  0  0  0  0  0  0
   12.2247    8.2051   -2.5376 C   0  0  0  0  0  0  0  0  0  0  0  0
   12.0902    6.9244   -3.0985 C   0  0  0  0  0  0  0  0  0  0  0  0
   11.5574    6.7726   -4.3923 C   0  0  0  0  0  0  0  0  0  0  0  0
   11.1298    7.8941   -5.1395 C   0  0  0  0  0  0  0  0  0  0  0  0
   10.5310    7.7245   -6.4055 N   0  0  0  0  0  0  0  0  0  0  0  0
   10.8739    6.6077   -7.2697 C   0  0  0  0  0  0  0  0  0  0  0  0
   10.7553    7.0414   -8.7447 C   0  0  0  0  0  0  0  0  0  0  0  0
    9.4591    7.7181   -9.0623 N   0  0  0  0  0  0  0  0  0  0  0  0
    9.4158    8.2410  -10.4500 C   0  0  0  0  0  0  0  0  0  0  0  0
    9.5220    7.1377  -11.4655 C   0  0  0  0  0  0  0  0  0  0  0  0
   10.6530    6.8183  -12.2645 C   0  0  0  0  0  0  0  0  0  0  0  0
   10.3323    5.7452  -13.0470 C   0  0  0  0  0  0  0  0  0  0  0  0
    9.0280    5.3646  -12.7601 N   0  0  0  0  0  0  0  0  0  0  0  0
    8.3108    4.2818  -13.3417 C   0  0  0  0  0  0  0  0  0  0  0  0
    6.9082    4.1723  -13.1748 C   0  0  0  0  0  0  0  0  0  0  0  0
    6.2039    3.0862  -13.7271 C   0  0  0  0  0  0  0  0  0  0  0  0
    6.8862    2.1022  -14.4660 C   0  0  0  0  0  0  0  0  0  0  0  0
    8.2778    2.2030  -14.6472 C   0  0  0  0  0  0  0  0  0  0  0  0
    8.9867    3.2827  -14.0851 C   0  0  0  0  0  0  0  0  0  0  0  0
    8.5484    6.2362  -11.7923 C   0  0  0  0  0  0  0  0  0  0  0  0
    9.0994    8.7759   -8.0866 C   0  0  0  0  0  0  0  0  0  0  0  0
    9.2047    8.2771   -6.6424 C   0  0  0  0  0  0  0  0  0  0  0  0
   11.6878   11.6592   -6.6420 H   0  0  0  0  0  0  0  0  0  0  0  0
   12.8878   10.6460   -5.8465 H   0  0  0  0  0  0  0  0  0  0  0  0
   11.8355    9.9571   -7.0723 H   0  0  0  0  0  0  0  0  0  0  0  0
   11.9373   10.3196   -2.8459 H   0  0  0  0  0  0  0  0  0  0  0  0
   12.6316    8.3266   -1.5445 H   0  0  0  0  0  0  0  0  0  0  0  0
   12.3882    6.0529   -2.5333 H   0  0  0  0  0  0  0  0  0  0  0  0
   11.4411    5.7750   -4.7862 H   0  0  0  0  0  0  0  0  0  0  0  0
   10.1961    5.7791   -7.0629 H   0  0  0  0  0  0  0  0  0  0  0  0
   11.8842    6.2571   -7.0573 H   0  0  0  0  0  0  0  0  0  0  0  0
   10.8873    6.1689   -9.3849 H   0  0  0  0  0  0  0  0  0  0  0  0
   11.5729    7.7269   -8.9730 H   0  0  0  0  0  0  0  0  0  0  0  0
   10.2242    8.9590  -10.6055 H   0  0  0  0  0  0  0  0  0  0  0  0
    8.4867    8.7810  -10.6232 H   0  0  0  0  0  0  0  0  0  0  0  0
   11.6067    7.3271  -12.2736 H   0  0  0  0  0  0  0  0  0  0  0  0
   10.9279    5.2294  -13.7837 H   0  0  0  0  0  0  0  0  0  0  0  0
    6.3484    4.9095  -12.6194 H   0  0  0  0  0  0  0  0  0  0  0  0
    5.1368    3.0109  -13.5819 H   0  0  0  0  0  0  0  0  0  0  0  0
    6.3444    1.2687  -14.8891 H   0  0  0  0  0  0  0  0  0  0  0  0
    8.8035    1.4446  -15.2072 H   0  0  0  0  0  0  0  0  0  0  0  0
   10.0552    3.3156  -14.2255 H   0  0  0  0  0  0  0  0  0  0  0  0
    7.5481    6.1556  -11.3917 H   0  0  0  0  0  0  0  0  0  0  0  0
    9.7751    9.6187   -8.2193 H   0  0  0  0  0  0  0  0  0  0  0  0
    8.0922    9.1464   -8.2810 H   0  0  0  0  0  0  0  0  0  0  0  0
    8.4534    7.5052   -6.4599 H   0  0  0  0  0  0  0  0  0  0  0  0
    8.9839    9.0889   -5.9570 H   0  0  0  0  0  0  0  0  0  0  0  0
    8.7245    7.0250   -8.9965 H   0  0  0  0  0  0  0  0  0  0  0  0
  2  1  1  0
  3  2  1  0
  4  3  2  0
  5  4  1  0
  6  5  2  0
  7  6  1  0
  8  3  1  0
  8  7  2  0
  9  8  1  0
 10  9  1  0
 11 10  1  0
 12 11  1  0
 13 12  1  0
 14 13  1  0
 15 14  1  0
 16 15  2  0
 17 16  1  0
 18 17  1  0
 19 18  2  0
 20 19  1  0
 21 20  2  0
 22 21  1  0
 23 18  1  0
 23 22  2  0
 24 14  2  0
 24 17  1  0
 25 12  1  0
 26  9  1  0
 26 25  1  0
 27  1  1  0
 28  1  1  0
 29  1  1  0
 30  4  1  0
 31  5  1  0
 32  6  1  0
 33  7  1  0
 34 10  1  0
 35 10  1  0
 36 11  1  0
 37 11  1  0
 38 13  1  0
 39 13  1  0
 40 15  1  0
 41 16  1  0
 42 19  1  0
 43 20  1  0
 44 21  1  0
 45 22  1  0
 46 23  1  0
 47 24  1  0
 48 25  1  0
 49 25  1  0
 50 26  1  0
 51 26  1  0
 52 12  1  0
M  CHG  1  12   1
M  END
>  <b_m_subgroup_collapsed>  (510) 
0

>  <r_i_docking_score>  (510) 
-7.8746679938300002

>  <s_m_subgroup_title>  (510) 
glide-dock_SP_D22_pv

>  <s_m_subgroupid>  (510) 
glide-dock_SP_D22_pv

>  <Molecule ChEMBL ID>  (510) 
CHEMBL28321

>  <Standard Type>  (510) 
Ki

>  <Standard Value>  (510) 
1.3

>  <label>  (510) 
1

$$$$
CHEMBL336652
     RDKit          3D

 35 36  0  0  1  0  0  0  0  0999 V2000
    8.4683    5.9246  -12.6180 C   0  0  0  0  0  0  0  0  0  0  0  0
    8.3407    5.7498  -11.1007 C   0  0  0  0  0  0  0  0  0  0  0  0
    9.1147    6.8202  -10.3137 C   0  0  0  0  0  0  0  0  0  0  0  0
    8.8862    6.6821   -8.8599 N   0  0  0  0  0  0  0  0  0  0  0  0
    9.8784    7.3739   -7.9987 C   0  0  1  0  0  0  0  0  0  0  0  0
    9.5972    8.8698   -7.8035 C   0  0  0  0  0  0  0  0  0  0  0  0
   10.7546    9.5406   -7.0273 C   0  0  0  0  0  0  0  0  0  0  0  0
   11.2330    8.7484   -5.8270 C   0  0  0  0  0  0  0  0  0  0  0  0
   12.0511    9.3853   -4.8748 C   0  0  0  0  0  0  0  0  0  0  0  0
   12.4704    8.7098   -3.7126 C   0  0  0  0  0  0  0  0  0  0  0  0
   12.0858    7.3717   -3.5151 C   0  0  0  0  0  0  0  0  0  0  0  0
   12.4726    6.6992   -2.3930 O   0  0  0  0  0  0  0  0  0  0  0  0
   11.2867    6.7290   -4.4789 C   0  0  0  0  0  0  0  0  0  0  0  0
   10.8569    7.4030   -5.6361 C   0  0  0  0  0  0  0  0  0  0  0  0
    9.9668    6.6831   -6.6346 C   0  0  0  0  0  0  0  0  0  0  0  0
    7.9202    5.1433  -13.1451 H   0  0  0  0  0  0  0  0  0  0  0  0
    8.0612    6.8843  -12.9395 H   0  0  0  0  0  0  0  0  0  0  0  0
    9.5087    5.8766  -12.9397 H   0  0  0  0  0  0  0  0  0  0  0  0
    8.7035    4.7584  -10.8248 H   0  0  0  0  0  0  0  0  0  0  0  0
    7.2851    5.7725  -10.8303 H   0  0  0  0  0  0  0  0  0  0  0  0
    8.8306    7.8244  -10.6337 H   0  0  0  0  0  0  0  0  0  0  0  0
   10.1764    6.7114  -10.5367 H   0  0  0  0  0  0  0  0  0  0  0  0
    8.9473    5.6958   -8.6569 H   0  0  0  0  0  0  0  0  0  0  0  0
   10.8582    7.2731   -8.4680 H   0  0  0  0  0  0  0  0  0  0  0  0
    9.4431    9.3725   -8.7578 H   0  0  0  0  0  0  0  0  0  0  0  0
    8.6650    8.9725   -7.2448 H   0  0  0  0  0  0  0  0  0  0  0  0
   10.4859   10.5282   -6.6469 H   0  0  0  0  0  0  0  0  0  0  0  0
   11.6062    9.6792   -7.6923 H   0  0  0  0  0  0  0  0  0  0  0  0
   12.3451   10.4074   -5.0471 H   0  0  0  0  0  0  0  0  0  0  0  0
   13.0739    9.2194   -2.9751 H   0  0  0  0  0  0  0  0  0  0  0  0
   12.0897    5.8352   -2.3238 H   0  0  0  0  0  0  0  0  0  0  0  0
   10.9674    5.7175   -4.3145 H   0  0  0  0  0  0  0  0  0  0  0  0
   10.3699    5.6917   -6.7898 H   0  0  0  0  0  0  0  0  0  0  0  0
    8.9741    6.5714   -6.1946 H   0  0  0  0  0  0  0  0  0  0  0  0
    7.9353    6.9788   -8.6460 H   0  0  0  0  0  0  0  0  0  0  0  0
  2  1  1  0
  3  2  1  0
  4  3  1  0
  5  4  1  0
  6  5  1  0
  7  6  1  0
  8  7  1  0
  9  8  1  0
 10  9  2  0
 11 10  1  0
 12 11  1  0
 13 11  2  0
 14  8  2  0
 14 13  1  0
 15  5  1  0
 15 14  1  0
 16  1  1  0
 17  1  1  0
 18  1  1  0
 19  2  1  0
 20  2  1  0
 21  3  1  0
 22  3  1  0
 23  4  1  0
  5 24  1  6
 25  6  1  0
 26  6  1  0
 27  7  1  0
 28  7  1  0
 29  9  1  0
 30 10  1  0
 31 12  1  0
 32 13  1  0
 33 15  1  0
 34 15  1  0
 35  4  1  0
M  CHG  1   4   1
M  END
>  <b_m_subgroup_collapsed>  (511) 
0

>  <r_i_docking_score>  (511) 
-7.8744471904143598

>  <s_m_subgroup_title>  (511) 
glide-dock_SP_D22_pv

>  <s_m_subgroupid>  (511) 
glide-dock_SP_D22_pv

>  <Molecule ChEMBL ID>  (511) 
CHEMBL336652

>  <Standard Type>  (511) 
Ki

>  <Standard Value>  (511) 
3.8

>  <label>  (511) 
1

$$$$
CHEMBL4069145
     RDKit          3D

 61 64  0  0  1  0  0  0  0  0999 V2000
   12.4878    8.9088   -8.4538 C   0  0  0  0  0  0  0  0  0  0  0  0
   11.6834    9.5924   -7.5000 O   0  0  0  0  0  0  0  0  0  0  0  0
   11.5782    8.9263   -6.3230 C   0  0  0  0  0  0  0  0  0  0  0  0
   12.3508    9.3723   -5.2346 C   0  0  0  0  0  0  0  0  0  0  0  0
   12.3899    8.6313   -4.0418 C   0  0  0  0  0  0  0  0  0  0  0  0
   11.6860    7.4188   -3.9631 C   0  0  0  0  0  0  0  0  0  0  0  0
   10.8858    6.9954   -5.0469 C   0  0  0  0  0  0  0  0  0  0  0  0
   10.7744    7.7677   -6.2264 C   0  0  0  0  0  0  0  0  0  0  0  0
    9.9272    7.3763   -7.2907 N   0  0  0  0  0  0  0  0  0  0  0  0
    9.6318    5.9795   -7.5216 C   0  0  0  0  0  0  0  0  0  0  0  0
    9.7163    5.6489   -9.0136 C   0  0  0  0  0  0  0  0  0  0  0  0
    8.8875    6.5545   -9.8578 N   0  0  0  0  0  0  0  0  0  0  0  0
    8.9984    6.2231  -11.3078 C   0  0  0  0  0  0  0  0  0  0  0  0
    8.3567    4.8638  -11.6952 C   0  0  0  0  0  0  0  0  0  0  0  0
    9.0863    4.1072  -12.8298 C   0  0  0  0  0  0  0  0  0  0  0  0
    8.5421    4.3657  -14.2432 C   0  0  0  0  0  0  0  0  0  0  0  0
    8.8485    3.2631  -15.1009 O   0  0  0  0  0  0  0  0  0  0  0  0
    7.9713    2.1933  -15.1577 C   0  0  0  0  0  0  0  0  0  0  0  0
    8.1253    1.2773  -16.2327 C   0  0  0  0  0  0  0  0  0  0  0  0
    7.2410    0.2369  -16.4274 C   0  0  0  0  0  0  0  0  0  0  0  0
    6.1566    0.0642  -15.5260 C   0  0  0  0  0  0  0  0  0  0  0  0
    5.0521   -0.7418  -15.4070 C   0  0  0  0  0  0  0  0  0  0  0  0
    4.5818   -1.8290  -16.2841 C   0  0  0  0  0  0  0  0  0  0  0  0
    5.2217   -2.2974  -17.2704 N   0  0  0  0  0  0  0  0  0  0  0  0
    4.4689   -3.3781  -17.8467 O   0  0  0  0  0  0  0  0  0  0  0  0
    4.3816   -0.3033  -14.2448 C   0  0  0  0  0  0  0  0  0  0  0  0
    5.0044    0.6714  -13.6200 N   0  0  0  0  0  0  0  0  0  0  0  0
    6.0849    0.9505  -14.4295 N   0  0  0  0  0  0  0  0  0  0  0  0
    6.9500    1.9840  -14.2470 C   0  0  0  0  0  0  0  0  0  0  0  0
    9.1952    7.9867   -9.5717 C   0  0  0  0  0  0  0  0  0  0  0  0
    9.1150    8.3157   -8.0610 C   0  0  0  0  0  0  0  0  0  0  0  0
   12.3427    9.3637   -9.4331 H   0  0  0  0  0  0  0  0  0  0  0  0
   13.5443    8.9744   -8.1915 H   0  0  0  0  0  0  0  0  0  0  0  0
   12.2416    7.8524   -8.5512 H   0  0  0  0  0  0  0  0  0  0  0  0
   12.9546   10.2603   -5.3509 H   0  0  0  0  0  0  0  0  0  0  0  0
   12.9784    8.9780   -3.2063 H   0  0  0  0  0  0  0  0  0  0  0  0
   11.7279    6.8268   -3.0605 H   0  0  0  0  0  0  0  0  0  0  0  0
   10.3024    6.0991   -4.9239 H   0  0  0  0  0  0  0  0  0  0  0  0
    8.6441    5.7509   -7.1162 H   0  0  0  0  0  0  0  0  0  0  0  0
   10.3720    5.3724   -7.0186 H   0  0  0  0  0  0  0  0  0  0  0  0
    9.4538    4.6013   -9.1410 H   0  0  0  0  0  0  0  0  0  0  0  0
   10.7540    5.7533   -9.3305 H   0  0  0  0  0  0  0  0  0  0  0  0
   10.0539    6.2418  -11.5801 H   0  0  0  0  0  0  0  0  0  0  0  0
    8.5219    7.0096  -11.8967 H   0  0  0  0  0  0  0  0  0  0  0  0
    7.3044    5.0161  -11.9445 H   0  0  0  0  0  0  0  0  0  0  0  0
    8.3232    4.1819  -10.8484 H   0  0  0  0  0  0  0  0  0  0  0  0
    9.0037    3.0382  -12.6452 H   0  0  0  0  0  0  0  0  0  0  0  0
   10.1598    4.2953  -12.8038 H   0  0  0  0  0  0  0  0  0  0  0  0
    9.0106    5.2624  -14.6498 H   0  0  0  0  0  0  0  0  0  0  0  0
    7.4718    4.5725  -14.2436 H   0  0  0  0  0  0  0  0  0  0  0  0
    8.9339    1.4203  -16.9417 H   0  0  0  0  0  0  0  0  0  0  0  0
    7.3413   -0.4388  -17.2705 H   0  0  0  0  0  0  0  0  0  0  0  0
    3.5979   -2.2271  -16.0224 H   0  0  0  0  0  0  0  0  0  0  0  0
    3.8506   -3.6304  -17.1571 H   0  0  0  0  0  0  0  0  0  0  0  0
    3.4557   -0.6924  -13.8450 H   0  0  0  0  0  0  0  0  0  0  0  0
    6.7501    2.6128  -13.3891 H   0  0  0  0  0  0  0  0  0  0  0  0
   10.1917    8.2162   -9.9444 H   0  0  0  0  0  0  0  0  0  0  0  0
    8.5143    8.6379  -10.1206 H   0  0  0  0  0  0  0  0  0  0  0  0
    8.0868    8.2212   -7.7134 H   0  0  0  0  0  0  0  0  0  0  0  0
    9.3822    9.3548   -7.8811 H   0  0  0  0  0  0  0  0  0  0  0  0
    7.9098    6.4538   -9.6037 H   0  0  0  0  0  0  0  0  0  0  0  0
  2  1  1  0
  3  2  1  0
  4  3  2  0
  5  4  1  0
  6  5  2  0
  7  6  1  0
  8  3  1  0
  8  7  2  0
  9  8  1  0
 10  9  1  0
 11 10  1  0
 12 11  1  0
 13 12  1  0
 14 13  1  0
 15 14  1  0
 16 15  1  0
 17 16  1  0
 18 17  1  0
 19 18  1  0
 20 19  2  0
 21 20  1  0
 22 21  2  0
 23 22  1  0
 24 23  2  0
 25 24  1  0
 26 22  1  0
 27 26  2  0
 28 21  1  0
 28 27  1  0
 29 18  2  0
 29 28  1  0
 30 12  1  0
 31  9  1  0
 31 30  1  0
 32  1  1  0
 33  1  1  0
 34  1  1  0
 35  4  1  0
 36  5  1  0
 37  6  1  0
 38  7  1  0
 39 10  1  0
 40 10  1  0
 41 11  1  0
 42 11  1  0
 43 13  1  0
 44 13  1  0
 45 14  1  0
 46 14  1  0
 47 15  1  0
 48 15  1  0
 49 16  1  0
 50 16  1  0
 51 19  1  0
 52 20  1  0
 53 23  1  0
 54 25  1  0
 55 26  1  0
 56 29  1  0
 57 30  1  0
 58 30  1  0
 59 31  1  0
 60 31  1  0
 61 12  1  0
M  CHG  1  12   1
M  END
>  <b_m_subgroup_collapsed>  (512) 
0

>  <r_i_docking_score>  (512) 
-7.8730530738931002

>  <s_m_subgroup_title>  (512) 
glide-dock_SP_D22_pv

>  <s_m_subgroupid>  (512) 
glide-dock_SP_D22_pv

>  <Molecule ChEMBL ID>  (512) 
CHEMBL4069145

>  <Standard Type>  (512) 
Ki

>  <Standard Value>  (512) 
1.7

>  <label>  (512) 
1

$$$$
CHEMBL80318
     RDKit          3D

 52 55  0  0  1  0  0  0  0  0999 V2000
    9.1521    6.7802   -6.5237 C   0  0  0  0  0  0  0  0  0  0  0  0
   10.2744    7.5760   -7.1432 C   0  0  0  0  0  0  0  0  0  0  0  0
   11.2861    8.3183   -6.4611 C   0  0  0  0  0  0  0  0  0  0  0  0
   11.5454    8.4105   -5.0274 C   0  0  0  0  0  0  0  0  0  0  0  0
   11.6861    7.2421   -4.2474 C   0  0  0  0  0  0  0  0  0  0  0  0
   11.9977    7.3349   -2.8762 C   0  0  0  0  0  0  0  0  0  0  0  0
   12.1455    8.5991   -2.2760 C   0  0  0  0  0  0  0  0  0  0  0  0
   11.9852    9.7676   -3.0462 C   0  0  0  0  0  0  0  0  0  0  0  0
   11.6860    9.6715   -4.4174 C   0  0  0  0  0  0  0  0  0  0  0  0
   12.0847    8.9727   -7.2948 N   0  0  0  0  0  0  0  0  0  0  0  0
   11.6500    8.6472   -8.5224 N   0  0  0  0  0  0  0  0  0  0  0  0
   10.5749    7.7995   -8.4606 C   0  0  0  0  0  0  0  0  0  0  0  0
    9.8865    7.2136   -9.5654 C   0  0  0  0  0  0  0  0  0  0  0  0
    9.6433    5.8913   -9.5573 C   0  0  0  0  0  0  0  0  0  0  0  0
    8.8149    5.1626  -10.5865 C   0  0  0  0  0  0  0  0  0  0  0  0
    8.0858    6.0921  -11.4888 N   0  0  2  0  0  0  0  0  0  0  0  0
    7.4147    5.3486  -12.5891 C   0  0  0  0  0  0  0  0  0  0  0  0
    8.3923    4.8212  -13.6742 C   0  0  0  0  0  0  0  0  0  0  0  0
    8.1745    3.3710  -14.0895 C   0  0  0  0  0  0  0  0  0  0  0  0
    9.3004    2.5447  -14.3029 C   0  0  0  0  0  0  0  0  0  0  0  0
    9.1389    1.1883  -14.6470 C   0  0  0  0  0  0  0  0  0  0  0  0
    7.8491    0.6443  -14.7759 C   0  0  0  0  0  0  0  0  0  0  0  0
    6.7221    1.4619  -14.5746 C   0  0  0  0  0  0  0  0  0  0  0  0
    6.8813    2.8243  -14.2467 C   0  0  0  0  0  0  0  0  0  0  0  0
    8.8789    7.2757  -11.9013 C   0  0  0  0  0  0  0  0  0  0  0  0
    9.3211    8.0917  -10.6726 C   0  0  0  0  0  0  0  0  0  0  0  0
    9.2859    6.6644   -5.4502 H   0  0  0  0  0  0  0  0  0  0  0  0
    8.1855    7.2632   -6.6747 H   0  0  0  0  0  0  0  0  0  0  0  0
    9.0695    5.7735   -6.9266 H   0  0  0  0  0  0  0  0  0  0  0  0
   11.5803    6.2683   -4.7032 H   0  0  0  0  0  0  0  0  0  0  0  0
   12.1141    6.4351   -2.2891 H   0  0  0  0  0  0  0  0  0  0  0  0
   12.3779    8.6771   -1.2240 H   0  0  0  0  0  0  0  0  0  0  0  0
   12.0862   10.7399   -2.5908 H   0  0  0  0  0  0  0  0  0  0  0  0
   11.5745   10.5712   -5.0059 H   0  0  0  0  0  0  0  0  0  0  0  0
   12.1075    8.9891   -9.3583 H   0  0  0  0  0  0  0  0  0  0  0  0
   10.0561    5.2671   -8.7774 H   0  0  0  0  0  0  0  0  0  0  0  0
    9.4786    4.4977  -11.1363 H   0  0  0  0  0  0  0  0  0  0  0  0
    8.0878    4.5407  -10.0652 H   0  0  0  0  0  0  0  0  0  0  0  0
    6.8672    4.5268  -12.1259 H   0  0  0  0  0  0  0  0  0  0  0  0
    6.6565    5.9856  -13.0454 H   0  0  0  0  0  0  0  0  0  0  0  0
    8.3215    5.4432  -14.5652 H   0  0  0  0  0  0  0  0  0  0  0  0
    9.4271    4.9127  -13.3452 H   0  0  0  0  0  0  0  0  0  0  0  0
   10.3001    2.9378  -14.1842 H   0  0  0  0  0  0  0  0  0  0  0  0
   10.0059    0.5621  -14.7962 H   0  0  0  0  0  0  0  0  0  0  0  0
    7.7229   -0.3999  -15.0248 H   0  0  0  0  0  0  0  0  0  0  0  0
    5.7315    1.0398  -14.6701 H   0  0  0  0  0  0  0  0  0  0  0  0
    6.0031    3.4365  -14.1025 H   0  0  0  0  0  0  0  0  0  0  0  0
    8.2843    7.9051  -12.5648 H   0  0  0  0  0  0  0  0  0  0  0  0
    9.7607    6.9624  -12.4602 H   0  0  0  0  0  0  0  0  0  0  0  0
    8.4886    8.6696  -10.2679 H   0  0  0  0  0  0  0  0  0  0  0  0
   10.0783    8.8108  -10.9835 H   0  0  0  0  0  0  0  0  0  0  0  0
    7.3410    6.4980  -10.9209 H   0  0  0  0  0  0  0  0  0  0  0  0
  2  1  1  0
  3  2  1  0
  4  3  1  0
  5  4  2  0
  6  5  1  0
  7  6  2  0
  8  7  1  0
  9  4  1  0
  9  8  2  0
 10  3  2  0
 11 10  1  0
 12  2  2  0
 12 11  1  0
 13 12  1  0
 14 13  2  0
 15 14  1  0
 16 15  1  0
 17 16  1  0
 18 17  1  0
 19 18  1  0
 20 19  2  0
 21 20  1  0
 22 21  2  0
 23 22  1  0
 24 19  1  0
 24 23  2  0
 25 16  1  0
 26 13  1  0
 26 25  1  0
 27  1  1  0
 28  1  1  0
 29  1  1  0
 30  5  1  0
 31  6  1  0
 32  7  1  0
 33  8  1  0
 34  9  1  0
 35 11  1  0
 36 14  1  0
 37 15  1  0
 38 15  1  0
 39 17  1  0
 40 17  1  0
 41 18  1  0
 42 18  1  0
 43 20  1  0
 44 21  1  0
 45 22  1  0
 46 23  1  0
 47 24  1  0
 48 25  1  0
 49 25  1  0
 50 26  1  0
 51 26  1  0
 16 52  1  1
M  CHG  1  16   1
M  END
>  <b_m_subgroup_collapsed>  (513) 
0

>  <r_i_docking_score>  (513) 
-7.8705512161242499

>  <s_m_subgroup_title>  (513) 
glide-dock_SP_D22_pv

>  <s_m_subgroupid>  (513) 
glide-dock_SP_D22_pv

>  <Molecule ChEMBL ID>  (513) 
CHEMBL80318

>  <Standard Type>  (513) 
Ki

>  <Standard Value>  (513) 
90.0

>  <label>  (513) 
1

$$$$
CHEMBL197796
     RDKit          3D

 66 69  0  0  1  0  0  0  0  0999 V2000
   13.4631    3.3274  -18.1565 C   0  0  0  0  0  0  0  0  0  0  0  0
   12.3869    3.1219  -17.2537 O   0  0  0  0  0  0  0  0  0  0  0  0
   12.2247    4.0206  -16.2181 C   0  0  0  0  0  0  0  0  0  0  0  0
   13.0359    5.1703  -16.0399 C   0  0  0  0  0  0  0  0  0  0  0  0
   12.8109    6.0522  -14.9676 C   0  0  0  0  0  0  0  0  0  0  0  0
   11.7856    5.7982  -14.0385 C   0  0  0  0  0  0  0  0  0  0  0  0
   11.5960    6.7120  -12.9621 N   0  0  0  0  0  0  0  0  0  0  0  0
   10.4680    6.9130  -12.2457 C   0  0  0  0  0  0  0  0  0  0  0  0
    9.3874    6.4066  -12.5506 O   0  0  0  0  0  0  0  0  0  0  0  0
   10.5998    7.7751  -11.2073 N   0  0  0  0  0  0  0  0  0  0  0  0
    9.4191    8.2901  -10.4925 C   0  0  0  0  0  0  0  0  0  0  0  0
    9.5003    7.9130   -9.0068 C   0  0  0  0  0  0  0  0  0  0  0  0
   10.7419    8.4148   -8.4224 N   0  0  0  0  0  0  0  0  0  0  0  0
   11.0193    8.2158   -7.0587 C   0  0  0  0  0  0  0  0  0  0  0  0
   10.6596    7.0115   -6.4128 C   0  0  0  0  0  0  0  0  0  0  0  0
   11.0029    6.7932   -5.0633 C   0  0  0  0  0  0  0  0  0  0  0  0
   11.6860    7.7777   -4.3340 C   0  0  0  0  0  0  0  0  0  0  0  0
   12.0884    7.4391   -2.6491 S   0  0  0  0  0  0  0  0  0  0  0  0
   12.4866    9.0195   -1.8746 C   0  0  0  0  0  0  0  0  0  0  0  0
   12.0230    8.9990   -4.9575 C   0  0  0  0  0  0  0  0  0  0  0  0
   11.6888    9.2134   -6.3099 C   0  0  0  0  0  0  0  0  0  0  0  0
   11.7732    8.9682   -9.2994 C   0  0  0  0  0  0  0  0  0  0  0  0
   11.9017    8.1655  -10.6180 C   0  0  0  0  0  0  0  0  0  0  0  0
   10.9962    4.6378  -14.1954 C   0  0  0  0  0  0  0  0  0  0  0  0
   11.1886    3.7670  -15.2881 C   0  0  0  0  0  0  0  0  0  0  0  0
   10.3141    2.6849  -15.4767 N   0  0  0  0  0  0  0  0  0  0  0  0
    8.9901    3.1379  -15.8937 C   0  0  0  0  0  0  0  0  0  0  0  0
    8.0590    1.9533  -16.1890 C   0  0  0  0  0  0  0  0  0  0  0  0
    8.0238    1.0125  -15.0437 N   0  0  0  0  0  0  0  0  0  0  0  0
    7.0605   -0.0867  -15.2527 C   0  0  0  0  0  0  0  0  0  0  0  0
    9.3858    0.5374  -14.7005 C   0  0  0  0  0  0  0  0  0  0  0  0
   10.2982    1.7275  -14.3736 C   0  0  0  0  0  0  0  0  0  0  0  0
   13.4910    2.5067  -18.8726 H   0  0  0  0  0  0  0  0  0  0  0  0
   13.3370    4.2542  -18.7197 H   0  0  0  0  0  0  0  0  0  0  0  0
   14.4253    3.3466  -17.6403 H   0  0  0  0  0  0  0  0  0  0  0  0
   13.8401    5.4047  -16.7192 H   0  0  0  0  0  0  0  0  0  0  0  0
   13.4386    6.9243  -14.8584 H   0  0  0  0  0  0  0  0  0  0  0  0
   12.3909    7.2813  -12.7176 H   0  0  0  0  0  0  0  0  0  0  0  0
    9.3609    9.3716  -10.6037 H   0  0  0  0  0  0  0  0  0  0  0  0
    8.4863    7.9105  -10.9048 H   0  0  0  0  0  0  0  0  0  0  0  0
    8.6488    8.3304   -8.4665 H   0  0  0  0  0  0  0  0  0  0  0  0
    9.4399    6.8289   -8.9069 H   0  0  0  0  0  0  0  0  0  0  0  0
   10.1450    6.2263   -6.9455 H   0  0  0  0  0  0  0  0  0  0  0  0
   10.7434    5.8577   -4.5921 H   0  0  0  0  0  0  0  0  0  0  0  0
   12.5616    8.8975   -0.7977 H   0  0  0  0  0  0  0  0  0  0  0  0
   13.4452    9.3724   -2.2452 H   0  0  0  0  0  0  0  0  0  0  0  0
   11.7202    9.7641   -2.0902 H   0  0  0  0  0  0  0  0  0  0  0  0
   12.5550    9.7708   -4.4218 H   0  0  0  0  0  0  0  0  0  0  0  0
   11.9686   10.1469   -6.7752 H   0  0  0  0  0  0  0  0  0  0  0  0
   11.5096   10.0012   -9.5241 H   0  0  0  0  0  0  0  0  0  0  0  0
   12.7425    8.9755   -8.7996 H   0  0  0  0  0  0  0  0  0  0  0  0
   12.4704    7.2590  -10.4040 H   0  0  0  0  0  0  0  0  0  0  0  0
   12.4897    8.7397  -11.3346 H   0  0  0  0  0  0  0  0  0  0  0  0
   10.2158    4.4044  -13.4904 H   0  0  0  0  0  0  0  0  0  0  0  0
    8.5519    3.7594  -15.1098 H   0  0  0  0  0  0  0  0  0  0  0  0
    9.0856    3.7668  -16.7811 H   0  0  0  0  0  0  0  0  0  0  0  0
    7.0527    2.3165  -16.4039 H   0  0  0  0  0  0  0  0  0  0  0  0
    8.4057    1.4283  -17.0798 H   0  0  0  0  0  0  0  0  0  0  0  0
    7.3103   -0.6291  -16.1638 H   0  0  0  0  0  0  0  0  0  0  0  0
    7.0581   -0.7808  -14.4119 H   0  0  0  0  0  0  0  0  0  0  0  0
    6.0471    0.3053  -15.3658 H   0  0  0  0  0  0  0  0  0  0  0  0
    9.3448   -0.1356  -13.8461 H   0  0  0  0  0  0  0  0  0  0  0  0
    9.8000   -0.0350  -15.5320 H   0  0  0  0  0  0  0  0  0  0  0  0
   11.3065    1.3715  -14.1789 H   0  0  0  0  0  0  0  0  0  0  0  0
    9.9526    2.2071  -13.4561 H   0  0  0  0  0  0  0  0  0  0  0  0
    7.7021    1.5401  -14.2455 H   0  0  0  0  0  0  0  0  0  0  0  0
  2  1  1  0
  3  2  1  0
  4  3  1  0
  5  4  2  0
  6  5  1  0
  7  6  1  0
  8  7  1  0
  9  8  2  0
 10  8  1  0
 11 10  1  0
 12 11  1  0
 13 12  1  0
 14 13  1  0
 15 14  1  0
 16 15  2  0
 17 16  1  0
 18 17  1  0
 19 18  1  0
 20 17  2  0
 21 14  2  0
 21 20  1  0
 22 13  1  0
 23 10  1  0
 23 22  1  0
 24  6  2  0
 25  3  2  0
 25 24  1  0
 26 25  1  0
 27 26  1  0
 28 27  1  0
 29 28  1  0
 30 29  1  0
 31 29  1  0
 32 26  1  0
 32 31  1  0
 33  1  1  0
 34  1  1  0
 35  1  1  0
 36  4  1  0
 37  5  1  0
 38  7  1  0
 39 11  1  0
 40 11  1  0
 41 12  1  0
 42 12  1  0
 43 15  1  0
 44 16  1  0
 45 19  1  0
 46 19  1  0
 47 19  1  0
 48 20  1  0
 49 21  1  0
 50 22  1  0
 51 22  1  0
 52 23  1  0
 53 23  1  0
 54 24  1  0
 55 27  1  0
 56 27  1  0
 57 28  1  0
 58 28  1  0
 59 30  1  0
 60 30  1  0
 61 30  1  0
 62 31  1  0
 63 31  1  0
 64 32  1  0
 65 32  1  0
 66 29  1  0
M  CHG  1  29   1
M  END
>  <b_m_subgroup_collapsed>  (514) 
0

>  <r_i_docking_score>  (514) 
-7.8693199877457696

>  <s_m_subgroup_title>  (514) 
glide-dock_SP_D22_pv

>  <s_m_subgroupid>  (514) 
glide-dock_SP_D22_pv

>  <Molecule ChEMBL ID>  (514) 
CHEMBL197796

>  <Standard Type>  (514) 
Ki

>  <Standard Value>  (514) 
10000.0

>  <label>  (514) 
0

$$$$
CHEMBL257536
     RDKit          3D

 59 63  0  0  1  0  0  0  0  0999 V2000
   13.1170    1.3823  -18.7436 C   0  0  0  0  0  0  0  0  0  0  0  0
   11.9582    0.5810  -18.2374 C   0  0  0  0  0  0  0  0  0  0  0  0
   11.5908   -0.6154  -18.8384 N   0  0  0  0  0  0  0  0  0  0  0  0
   10.5319   -1.0249  -18.1475 C   0  0  0  0  0  0  0  0  0  0  0  0
   10.1942   -0.2049  -17.1212 O   0  0  0  0  0  0  0  0  0  0  0  0
   11.0993    0.8236  -17.1889 C   0  0  0  0  0  0  0  0  0  0  0  0
   10.9972    1.9149  -16.2180 C   0  0  0  0  0  0  0  0  0  0  0  0
   11.7084    3.0410  -16.3445 N   0  0  0  0  0  0  0  0  0  0  0  0
   11.3529    3.8462  -15.2891 N   0  0  0  0  0  0  0  0  0  0  0  0
   10.4518    3.1460  -14.6055 C   0  0  0  0  0  0  0  0  0  0  0  0
    9.6439    3.7753  -13.1764 S   0  0  0  0  0  0  0  0  0  0  0  0
    8.0993    4.2944  -13.9784 C   0  0  0  0  0  0  0  0  0  0  0  0
    6.9428    4.5063  -12.9888 C   0  0  0  0  0  0  0  0  0  0  0  0
    6.8976    5.8516  -12.2213 C   0  0  0  0  0  0  0  0  0  0  0  0
    8.0500    6.1725  -11.3307 N   0  0  1  0  0  0  0  0  0  0  0  0
    8.3017    5.1522  -10.2700 C   0  0  0  0  0  0  0  0  0  0  0  0
    9.6990    5.0243   -9.7118 C   0  0  0  0  0  0  0  0  0  0  0  0
   10.1197    6.2985   -9.0253 C   0  0  0  0  0  0  0  0  0  0  0  0
   10.2188    6.3413   -7.6231 C   0  0  0  0  0  0  0  0  0  0  0  0
   10.6638    7.5135   -6.9931 C   0  0  0  0  0  0  0  0  0  0  0  0
   10.9331    8.6666   -7.7587 C   0  0  0  0  0  0  0  0  0  0  0  0
   10.7970    8.6349   -9.1608 C   0  0  0  0  0  0  0  0  0  0  0  0
   10.4192    7.4346   -9.7988 C   0  0  0  0  0  0  0  0  0  0  0  0
   10.4401    7.3027  -11.3083 C   0  0  0  0  0  0  0  0  0  0  0  0
    9.1018    6.9928  -12.0112 C   0  0  0  0  0  0  0  0  0  0  0  0
   11.3197    9.8185   -7.1227 O   0  0  0  0  0  0  0  0  0  0  0  0
   12.0853    9.6485   -5.9287 C   0  0  0  0  0  0  0  0  0  0  0  0
   11.5040    8.5693   -5.0026 C   0  0  0  0  0  0  0  0  0  0  0  0
   11.6903    8.6209   -3.7900 O   0  0  0  0  0  0  0  0  0  0  0  0
   10.8527    7.5588   -5.5949 N   0  0  0  0  0  0  0  0  0  0  0  0
   10.2010    1.9256  -15.1229 N   0  0  0  0  0  0  0  0  0  0  0  0
    9.2992    0.8914  -14.6359 C   0  0  0  0  0  0  0  0  0  0  0  0
   13.6701    1.8404  -17.9245 H   0  0  0  0  0  0  0  0  0  0  0  0
   12.7803    2.1834  -19.4020 H   0  0  0  0  0  0  0  0  0  0  0  0
   13.8167    0.7608  -19.3027 H   0  0  0  0  0  0  0  0  0  0  0  0
    9.9868   -1.9366  -18.3428 H   0  0  0  0  0  0  0  0  0  0  0  0
    8.2763    5.1860  -14.5785 H   0  0  0  0  0  0  0  0  0  0  0  0
    7.8103    3.5015  -14.6673 H   0  0  0  0  0  0  0  0  0  0  0  0
    6.0206    4.4620  -13.5699 H   0  0  0  0  0  0  0  0  0  0  0  0
    6.8674    3.6520  -12.3178 H   0  0  0  0  0  0  0  0  0  0  0  0
    6.7370    6.6743  -12.9194 H   0  0  0  0  0  0  0  0  0  0  0  0
    6.0072    5.8355  -11.5900 H   0  0  0  0  0  0  0  0  0  0  0  0
    7.6858    5.4266   -9.4197 H   0  0  0  0  0  0  0  0  0  0  0  0
    7.9681    4.1720  -10.5828 H   0  0  0  0  0  0  0  0  0  0  0  0
    9.7323    4.1990   -8.9995 H   0  0  0  0  0  0  0  0  0  0  0  0
   10.3778    4.7520  -10.5082 H   0  0  0  0  0  0  0  0  0  0  0  0
    9.9824    5.4638   -7.0459 H   0  0  0  0  0  0  0  0  0  0  0  0
   11.0361    9.5151   -9.7397 H   0  0  0  0  0  0  0  0  0  0  0  0
   10.8361    8.2212  -11.7306 H   0  0  0  0  0  0  0  0  0  0  0  0
   11.1923    6.5717  -11.5847 H   0  0  0  0  0  0  0  0  0  0  0  0
    9.3259    6.5725  -12.9910 H   0  0  0  0  0  0  0  0  0  0  0  0
    8.6207    7.9507  -12.2140 H   0  0  0  0  0  0  0  0  0  0  0  0
   13.1090    9.3777   -6.1870 H   0  0  0  0  0  0  0  0  0  0  0  0
   12.1150   10.6034   -5.4169 H   0  0  0  0  0  0  0  0  0  0  0  0
   10.5198    6.7866   -5.0365 H   0  0  0  0  0  0  0  0  0  0  0  0
    8.8862    1.1526  -13.6631 H   0  0  0  0  0  0  0  0  0  0  0  0
    9.8410   -0.0494  -14.5315 H   0  0  0  0  0  0  0  0  0  0  0  0
    8.4776    0.7561  -15.3391 H   0  0  0  0  0  0  0  0  0  0  0  0
    7.5945    6.8947  -10.7596 H   0  0  0  0  0  0  0  0  0  0  0  0
  2  1  1  0
  3  2  1  0
  4  3  2  0
  5  4  1  0
  6  2  2  0
  6  5  1  0
  7  6  1  0
  8  7  2  0
  9  8  1  0
 10  9  2  0
 11 10  1  0
 12 11  1  0
 13 12  1  0
 14 13  1  0
 15 14  1  0
 16 15  1  0
 17 16  1  0
 18 17  1  0
 19 18  1  0
 20 19  2  0
 21 20  1  0
 22 21  2  0
 23 18  2  0
 23 22  1  0
 24 23  1  0
 25 15  1  0
 25 24  1  0
 26 21  1  0
 27 26  1  0
 28 27  1  0
 29 28  2  0
 30 20  1  0
 30 28  1  0
 31  7  1  0
 31 10  1  0
 32 31  1  0
 33  1  1  0
 34  1  1  0
 35  1  1  0
 36  4  1  0
 37 12  1  0
 38 12  1  0
 39 13  1  0
 40 13  1  0
 41 14  1  0
 42 14  1  0
 43 16  1  0
 44 16  1  0
 45 17  1  0
 46 17  1  0
 47 19  1  0
 48 22  1  0
 49 24  1  0
 50 24  1  0
 51 25  1  0
 52 25  1  0
 53 27  1  0
 54 27  1  0
 55 30  1  0
 56 32  1  0
 57 32  1  0
 58 32  1  0
 15 59  1  1
M  CHG  1  15   1
M  END
>  <b_m_subgroup_collapsed>  (515) 
0

>  <r_i_docking_score>  (515) 
-7.8683314544006002

>  <s_m_subgroup_title>  (515) 
glide-dock_SP_D22_pv

>  <s_m_subgroupid>  (515) 
glide-dock_SP_D22_pv

>  <Molecule ChEMBL ID>  (515) 
CHEMBL257536

>  <Standard Type>  (515) 
Ki

>  <Standard Value>  (515) 
10000.0

>  <label>  (515) 
0

$$$$
CHEMBL2414991
     RDKit          3D

 38 41  0  0  1  0  0  0  0  0999 V2000
   13.1714    4.6219  -16.1129 C   0  0  0  0  0  0  0  0  0  0  0  0
   12.6082    5.2623  -14.8969 N   0  0  1  0  0  0  0  0  0  0  0  0
   12.8141    6.7171  -14.9326 C   0  0  0  0  0  0  0  0  0  0  0  0
   12.5425    7.2830  -13.5513 C   0  0  0  0  0  0  0  0  0  0  0  0
   11.2254    6.8807  -12.9306 C   0  0  0  0  0  0  0  0  0  0  0  0
   10.6542    7.5387  -11.8401 C   0  0  0  0  0  0  0  0  0  0  0  0
    9.3993    7.1569  -11.3696 C   0  0  0  0  0  0  0  0  0  0  0  0
    8.8860    7.8632  -10.3257 O   0  0  0  0  0  0  0  0  0  0  0  0
    8.7028    6.0781  -11.9602 C   0  0  0  0  0  0  0  0  0  0  0  0
    7.4731    5.7723  -11.4469 O   0  0  0  0  0  0  0  0  0  0  0  0
    9.2663    5.3077  -13.0273 C   0  0  0  0  0  0  0  0  0  0  0  0
   10.5453    5.7586  -13.4745 C   0  0  0  0  0  0  0  0  0  0  0  0
   11.1738    4.9505  -14.6356 C   0  0  2  0  0  0  0  0  0  0  0  0
   10.9366    3.4372  -14.4408 C   0  0  0  0  0  0  0  0  0  0  0  0
    9.4678    3.1331  -14.2503 C   0  0  0  0  0  0  0  0  0  0  0  0
    8.9471    1.9210  -14.7500 C   0  0  0  0  0  0  0  0  0  0  0  0
    7.5719    1.6534  -14.6622 C   0  0  0  0  0  0  0  0  0  0  0  0
    6.7187    2.6145  -14.0990 C   0  0  0  0  0  0  0  0  0  0  0  0
    7.2446    3.8166  -13.5903 C   0  0  0  0  0  0  0  0  0  0  0  0
    8.6368    4.0887  -13.6173 C   0  0  0  0  0  0  0  0  0  0  0  0
   12.5845    4.8728  -16.9979 H   0  0  0  0  0  0  0  0  0  0  0  0
   13.2155    3.5378  -16.0234 H   0  0  0  0  0  0  0  0  0  0  0  0
   14.1956    4.9563  -16.2866 H   0  0  0  0  0  0  0  0  0  0  0  0
   13.8383    6.9603  -15.2188 H   0  0  0  0  0  0  0  0  0  0  0  0
   12.1562    7.1741  -15.6745 H   0  0  0  0  0  0  0  0  0  0  0  0
   13.2860    6.9743  -12.8326 H   0  0  0  0  0  0  0  0  0  0  0  0
   12.6166    8.3666  -13.6061 H   0  0  0  0  0  0  0  0  0  0  0  0
   11.1655    8.3689  -11.3761 H   0  0  0  0  0  0  0  0  0  0  0  0
    7.9193    7.7727  -10.2358 H   0  0  0  0  0  0  0  0  0  0  0  0
    7.0538    6.4502  -10.9175 H   0  0  0  0  0  0  0  0  0  0  0  0
   10.6227    5.2551  -15.5280 H   0  0  0  0  0  0  0  0  0  0  0  0
   11.2893    2.8602  -15.2941 H   0  0  0  0  0  0  0  0  0  0  0  0
   11.4730    3.0766  -13.5663 H   0  0  0  0  0  0  0  0  0  0  0  0
    9.5990    1.1950  -15.2134 H   0  0  0  0  0  0  0  0  0  0  0  0
    7.1731    0.7258  -15.0462 H   0  0  0  0  0  0  0  0  0  0  0  0
    5.6575    2.4274  -14.0467 H   0  0  0  0  0  0  0  0  0  0  0  0
    6.5383    4.5223  -13.1860 H   0  0  0  0  0  0  0  0  0  0  0  0
   13.1395    4.9292  -14.1040 H   0  0  0  0  0  0  0  0  0  0  0  0
  2  1  1  0
  3  2  1  0
  4  3  1  0
  5  4  1  0
  6  5  1  0
  7  6  2  0
  8  7  1  0
  9  7  1  0
 10  9  1  0
 11  9  2  0
 12  5  2  0
 12 11  1  0
 13  2  1  0
 13 12  1  0
 14 13  1  0
 15 14  1  0
 16 15  2  0
 17 16  1  0
 18 17  2  0
 19 18  1  0
 20 11  1  0
 20 15  1  0
 20 19  2  0
 21  1  1  0
 22  1  1  0
 23  1  1  0
 24  3  1  0
 25  3  1  0
 26  4  1  0
 27  4  1  0
 28  6  1  0
 29  8  1  0
 30 10  1  0
 13 31  1  6
 32 14  1  0
 33 14  1  0
 34 16  1  0
 35 17  1  0
 36 18  1  0
 37 19  1  0
  2 38  1  1
M  CHG  1   2   1
M  END
>  <b_m_subgroup_collapsed>  (516) 
0

>  <r_i_docking_score>  (516) 
-7.86690322380373

>  <s_m_subgroup_title>  (516) 
glide-dock_SP_D22_pv

>  <s_m_subgroupid>  (516) 
glide-dock_SP_D22_pv

>  <Molecule ChEMBL ID>  (516) 
CHEMBL2414991

>  <Standard Type>  (516) 
Ki

>  <Standard Value>  (516) 
38.9

>  <label>  (516) 
1

$$$$
CHEMBL420986
     RDKit          3D

 43 46  0  0  1  0  0  0  0  0999 V2000
   10.3748    0.4091  -16.3716 O   0  0  0  0  0  0  0  0  0  0  0  0
    9.3579    0.7873  -15.7976 C   0  0  0  0  0  0  0  0  0  0  0  0
    9.1289    2.0187  -15.3057 N   0  0  0  0  0  0  0  0  0  0  0  0
    7.8974    2.0366  -14.6465 C   0  0  0  0  0  0  0  0  0  0  0  0
    7.2615    3.0451  -13.9108 C   0  0  0  0  0  0  0  0  0  0  0  0
    6.0168    2.7187  -13.3088 C   0  0  0  0  0  0  0  0  0  0  0  0
    5.4658    1.4142  -13.4468 C   0  0  0  0  0  0  0  0  0  0  0  0
    6.1372    0.4148  -14.1908 C   0  0  0  0  0  0  0  0  0  0  0  0
    7.3595    0.7765  -14.7759 C   0  0  0  0  0  0  0  0  0  0  0  0
    8.2770    0.0367  -15.5194 N   0  0  0  0  0  0  0  0  0  0  0  0
    5.2881    3.7587  -12.4806 C   0  0  0  0  0  0  0  0  0  0  0  0
    5.9534    5.1438  -12.5535 C   0  0  0  0  0  0  0  0  0  0  0  0
    7.4851    5.0099  -12.6207 C   0  0  2  0  0  0  0  0  0  0  0  0
    8.2350    6.3513  -12.7346 C   0  0  0  0  0  0  0  0  0  0  0  0
    8.4861    7.0363  -11.4468 N   0  0  0  0  0  0  0  0  0  0  0  0
    9.2944    6.2734  -10.4706 C   0  0  0  0  0  0  0  0  0  0  0  0
    9.9343    7.1807   -9.4379 C   0  0  0  0  0  0  0  0  0  0  0  0
   11.1992    7.7566   -9.6841 C   0  0  0  0  0  0  0  0  0  0  0  0
   11.8149    8.5554   -8.7011 C   0  0  0  0  0  0  0  0  0  0  0  0
   11.1629    8.7997   -7.4766 C   0  0  0  0  0  0  0  0  0  0  0  0
    9.8951    8.2366   -7.2324 C   0  0  0  0  0  0  0  0  0  0  0  0
    9.2861    7.4247   -8.2093 C   0  0  0  0  0  0  0  0  0  0  0  0
    7.8539    4.2757  -13.7804 O   0  0  0  0  0  0  0  0  0  0  0  0
    4.5193    1.1815  -12.9826 H   0  0  0  0  0  0  0  0  0  0  0  0
    5.7330   -0.5819  -14.2952 H   0  0  0  0  0  0  0  0  0  0  0  0
    8.1570   -0.9473  -15.7332 H   0  0  0  0  0  0  0  0  0  0  0  0
    4.2506    3.8013  -12.8086 H   0  0  0  0  0  0  0  0  0  0  0  0
    5.2865    3.4130  -11.4468 H   0  0  0  0  0  0  0  0  0  0  0  0
    5.6503    5.7564  -11.7030 H   0  0  0  0  0  0  0  0  0  0  0  0
    5.6011    5.6587  -13.4467 H   0  0  0  0  0  0  0  0  0  0  0  0
    7.8418    4.4401  -11.7624 H   0  0  0  0  0  0  0  0  0  0  0  0
    7.6956    7.0263  -13.3986 H   0  0  0  0  0  0  0  0  0  0  0  0
    9.2069    6.1721  -13.1968 H   0  0  0  0  0  0  0  0  0  0  0  0
    7.5979    7.3094  -10.9893 H   0  0  0  0  0  0  0  0  0  0  0  0
   10.0843    5.7216  -10.9831 H   0  0  0  0  0  0  0  0  0  0  0  0
    8.6662    5.5393   -9.9642 H   0  0  0  0  0  0  0  0  0  0  0  0
   11.7132    7.5715  -10.6157 H   0  0  0  0  0  0  0  0  0  0  0  0
   12.7939    8.9723   -8.8871 H   0  0  0  0  0  0  0  0  0  0  0  0
   11.6358    9.4148   -6.7249 H   0  0  0  0  0  0  0  0  0  0  0  0
    9.3903    8.4170   -6.2939 H   0  0  0  0  0  0  0  0  0  0  0  0
    8.3206    6.9835   -8.0065 H   0  0  0  0  0  0  0  0  0  0  0  0
    9.7603    2.8036  -15.3420 H   0  0  0  0  0  0  0  0  0  0  0  0
    8.9844    7.8910  -11.6433 H   0  0  0  0  0  0  0  0  0  0  0  0
  2  1  2  0
  3  2  1  0
  4  3  1  0
  5  4  2  0
  6  5  1  0
  7  6  2  0
  8  7  1  0
  9  4  1  0
  9  8  2  0
 10  2  1  0
 10  9  1  0
 11  6  1  0
 12 11  1  0
 13 12  1  0
 14 13  1  0
 15 14  1  0
 16 15  1  0
 17 16  1  0
 18 17  2  0
 19 18  1  0
 20 19  2  0
 21 20  1  0
 22 17  1  0
 22 21  2  0
 23  5  1  0
 23 13  1  0
 24  7  1  0
 25  8  1  0
 26 10  1  0
 27 11  1  0
 28 11  1  0
 29 12  1  0
 30 12  1  0
 13 31  1  1
 32 14  1  0
 33 14  1  0
 34 15  1  0
 35 16  1  0
 36 16  1  0
 37 18  1  0
 38 19  1  0
 39 20  1  0
 40 21  1  0
 41 22  1  0
 42  3  1  0
 43 15  1  0
M  CHG  1  15   1
M  END
>  <b_m_subgroup_collapsed>  (517) 
0

>  <r_i_docking_score>  (517) 
-7.8657649512138201

>  <s_m_subgroup_title>  (517) 
glide-dock_SP_D22_pv

>  <s_m_subgroupid>  (517) 
glide-dock_SP_D22_pv

>  <Molecule ChEMBL ID>  (517) 
CHEMBL420986

>  <Standard Type>  (517) 
Ki

>  <Standard Value>  (517) 
3.0

>  <label>  (517) 
1

$$$$
CHEMBL598516
     RDKit          3D

 54 58  0  0  1  0  0  0  0  0999 V2000
   12.5513    6.5935  -15.7701 C   0  0  0  0  0  0  0  0  0  0  0  0
   11.6861    6.1265  -14.6543 N   0  0  1  0  0  0  0  0  0  0  0  0
   11.4950    4.6552  -14.7397 C   0  0  0  0  0  0  0  0  0  0  0  0
   10.8020    4.0590  -13.5098 C   0  0  0  0  0  0  0  0  0  0  0  0
    9.5035    4.7399  -13.1611 C   0  0  0  0  0  0  0  0  0  0  0  0
    8.3043    4.0119  -13.3099 C   0  0  0  0  0  0  0  0  0  0  0  0
    7.0676    4.5944  -12.9846 C   0  0  0  0  0  0  0  0  0  0  0  0
    5.6233    3.6563  -13.0832 Cl  0  0  0  0  0  0  0  0  0  0  0  0
    7.0316    5.9340  -12.5592 C   0  0  0  0  0  0  0  0  0  0  0  0
    5.8644    6.5554  -12.2469 O   0  0  0  0  0  0  0  0  0  0  0  0
    8.2219    6.6605  -12.4177 C   0  0  0  0  0  0  0  0  0  0  0  0
    9.4784    6.0732  -12.6739 C   0  0  0  0  0  0  0  0  0  0  0  0
   10.7200    6.9676  -12.4792 C   0  0  1  0  0  0  0  0  0  0  0  0
   11.0171    7.3724  -11.0318 C   0  0  0  0  0  0  0  0  0  0  0  0
   10.1316    7.0804   -9.9593 C   0  0  0  0  0  0  0  0  0  0  0  0
   10.3945    7.5297   -8.6517 C   0  0  0  0  0  0  0  0  0  0  0  0
   11.5792    8.2475   -8.3837 C   0  0  0  0  0  0  0  0  0  0  0  0
   11.9646    8.7597   -7.1186 N   0  0  0  0  0  0  0  0  0  0  0  0
   11.2899    8.7937   -5.9610 C   0  0  0  0  0  0  0  0  0  0  0  0
   10.0939    8.5357   -5.8505 O   0  0  0  0  0  0  0  0  0  0  0  0
   12.1590    9.1859   -4.8047 C   0  0  0  0  0  0  0  0  0  0  0  0
   11.5171    9.7732   -3.5669 C   0  0  0  0  0  0  0  0  0  0  0  0
   12.0211    8.3539   -3.5456 C   0  0  0  0  0  0  0  0  0  0  0  0
   12.4860    8.4660   -9.4301 C   0  0  0  0  0  0  0  0  0  0  0  0
   12.2071    8.0807  -10.7550 C   0  0  0  0  0  0  0  0  0  0  0  0
   13.2118    8.4451  -11.8506 C   0  0  0  0  0  0  0  0  0  0  0  0
   12.9317    7.8426  -13.2504 C   0  0  0  0  0  0  0  0  0  0  0  0
   12.0177    6.6100  -13.2688 C   0  0  2  0  0  0  0  0  0  0  0  0
   13.5890    6.2924  -15.6205 H   0  0  0  0  0  0  0  0  0  0  0  0
   12.2189    6.1611  -16.7149 H   0  0  0  0  0  0  0  0  0  0  0  0
   12.5091    7.6747  -15.8982 H   0  0  0  0  0  0  0  0  0  0  0  0
   12.4652    4.1692  -14.8613 H   0  0  0  0  0  0  0  0  0  0  0  0
   10.9137    4.4276  -15.6347 H   0  0  0  0  0  0  0  0  0  0  0  0
   11.4354    4.1722  -12.6470 H   0  0  0  0  0  0  0  0  0  0  0  0
   10.6516    2.9873  -13.6464 H   0  0  0  0  0  0  0  0  0  0  0  0
    8.3271    2.9870  -13.6507 H   0  0  0  0  0  0  0  0  0  0  0  0
    6.0116    7.1737  -11.5198 H   0  0  0  0  0  0  0  0  0  0  0  0
    8.1668    7.6842  -12.0742 H   0  0  0  0  0  0  0  0  0  0  0  0
   10.4093    7.9216  -12.8993 H   0  0  0  0  0  0  0  0  0  0  0  0
    9.2182    6.5249  -10.1049 H   0  0  0  0  0  0  0  0  0  0  0  0
    9.6745    7.3036   -7.8790 H   0  0  0  0  0  0  0  0  0  0  0  0
   12.9131    9.1032   -7.0707 H   0  0  0  0  0  0  0  0  0  0  0  0
   13.1649    9.5291   -5.0448 H   0  0  0  0  0  0  0  0  0  0  0  0
   12.0852   10.5162   -3.0100 H   0  0  0  0  0  0  0  0  0  0  0  0
   10.4443    9.9342   -3.5800 H   0  0  0  0  0  0  0  0  0  0  0  0
   11.2864    7.5516   -3.5386 H   0  0  0  0  0  0  0  0  0  0  0  0
   12.9279    8.1466   -2.9821 H   0  0  0  0  0  0  0  0  0  0  0  0
   13.4098    8.9723   -9.2032 H   0  0  0  0  0  0  0  0  0  0  0  0
   14.2073    8.1724  -11.5157 H   0  0  0  0  0  0  0  0  0  0  0  0
   13.2859    9.5276  -11.9299 H   0  0  0  0  0  0  0  0  0  0  0  0
   13.8689    7.6488  -13.7516 H   0  0  0  0  0  0  0  0  0  0  0  0
   12.4601    8.5724  -13.8852 H   0  0  0  0  0  0  0  0  0  0  0  0
   12.6036    5.8530  -12.7544 H   0  0  0  0  0  0  0  0  0  0  0  0
   10.7759    6.5219  -14.8464 H   0  0  0  0  0  0  0  0  0  0  0  0
  2  1  1  0
  3  2  1  0
  4  3  1  0
  5  4  1  0
  6  5  1  0
  7  6  2  0
  8  7  1  0
  9  7  1  0
 10  9  1  0
 11  9  2  0
 12  5  2  0
 12 11  1  0
 13 12  1  0
 14 13  1  0
 15 14  1  0
 16 15  2  0
 17 16  1  0
 18 17  1  0
 19 18  1  0
 20 19  2  0
 21 19  1  0
 22 21  1  0
 23 21  1  0
 23 22  1  0
 24 17  2  0
 25 14  2  0
 25 24  1  0
 26 25  1  0
 27 26  1  0
 28  2  1  0
 28 13  1  0
 28 27  1  0
 29  1  1  0
 30  1  1  0
 31  1  1  0
 32  3  1  0
 33  3  1  0
 34  4  1  0
 35  4  1  0
 36  6  1  0
 37 10  1  0
 38 11  1  0
 13 39  1  6
 40 15  1  0
 41 16  1  0
 42 18  1  0
 43 21  1  0
 44 22  1  0
 45 22  1  0
 46 23  1  0
 47 23  1  0
 48 24  1  0
 49 26  1  0
 50 26  1  0
 51 27  1  0
 52 27  1  0
 28 53  1  1
  2 54  1  6
M  CHG  1   2   1
M  END
>  <b_m_subgroup_collapsed>  (518) 
0

>  <r_i_docking_score>  (518) 
-7.8649978102334597

>  <s_m_subgroup_title>  (518) 
glide-dock_SP_D22_pv

>  <s_m_subgroupid>  (518) 
glide-dock_SP_D22_pv

>  <Molecule ChEMBL ID>  (518) 
CHEMBL598516

>  <Standard Type>  (518) 
Ki

>  <Standard Value>  (518) 
10000.0

>  <label>  (518) 
0

$$$$
CHEMBL1215036
     RDKit          3D

 53 56  0  0  1  0  0  0  0  0999 V2000
   10.4818   -0.0079  -15.4941 F   0  0  0  0  0  0  0  0  0  0  0  0
   10.1073    0.9499  -14.6472 C   0  0  0  0  0  0  0  0  0  0  0  0
    9.9361    2.2821  -15.3921 C   0  0  0  0  0  0  0  0  0  0  0  0
    9.6915    3.3555  -14.4893 O   0  0  0  0  0  0  0  0  0  0  0  0
    8.4418    3.5006  -13.9181 C   0  0  0  0  0  0  0  0  0  0  0  0
    7.3247    2.6889  -14.2462 C   0  0  0  0  0  0  0  0  0  0  0  0
    6.0859    2.8879  -13.6087 C   0  0  0  0  0  0  0  0  0  0  0  0
    5.9288    3.9206  -12.6712 C   0  0  0  0  0  0  0  0  0  0  0  0
    7.0201    4.7487  -12.3575 C   0  0  0  0  0  0  0  0  0  0  0  0
    8.2828    4.5326  -12.9589 C   0  0  0  0  0  0  0  0  0  0  0  0
    9.4718    5.4321  -12.6280 C   0  0  0  0  0  0  0  0  0  0  0  0
    9.3187    6.2529  -11.4287 N   0  0  0  0  0  0  0  0  0  0  0  0
   10.2817    7.3478  -11.3995 C   0  0  0  0  0  0  0  0  0  0  0  0
    9.8941    8.2912  -10.2494 C   0  0  0  0  0  0  0  0  0  0  0  0
    9.9426    7.5898   -8.9419 N   0  0  0  0  0  0  0  0  0  0  0  0
    9.5555    8.4811   -7.8206 C   0  0  0  0  0  0  0  0  0  0  0  0
   10.3530    8.2376   -6.5794 C   0  0  0  0  0  0  0  0  0  0  0  0
   10.8295    7.0844   -5.9981 C   0  0  0  0  0  0  0  0  0  0  0  0
   11.4146    7.4839   -4.7543 C   0  0  0  0  0  0  0  0  0  0  0  0
   12.0086    6.8447   -3.6451 C   0  0  0  0  0  0  0  0  0  0  0  0
   12.4454    7.5784   -2.5249 C   0  0  0  0  0  0  0  0  0  0  0  0
   12.2817    8.9751   -2.4835 C   0  0  0  0  0  0  0  0  0  0  0  0
   11.6866    9.6418   -3.5700 C   0  0  0  0  0  0  0  0  0  0  0  0
   11.2858    8.8919   -4.6870 C   0  0  0  0  0  0  0  0  0  0  0  0
   10.6489    9.3442   -5.8245 O   0  0  0  0  0  0  0  0  0  0  0  0
    9.1310    6.3458   -8.9854 C   0  0  0  0  0  0  0  0  0  0  0  0
    9.4730    5.4683  -10.2003 C   0  0  0  0  0  0  0  0  0  0  0  0
   10.8749    1.0317  -13.8800 H   0  0  0  0  0  0  0  0  0  0  0  0
    9.1884    0.6167  -14.1655 H   0  0  0  0  0  0  0  0  0  0  0  0
    9.1760    2.2210  -16.1712 H   0  0  0  0  0  0  0  0  0  0  0  0
   10.8664    2.5143  -15.9118 H   0  0  0  0  0  0  0  0  0  0  0  0
    7.3903    1.8907  -14.9693 H   0  0  0  0  0  0  0  0  0  0  0  0
    5.2486    2.2476  -13.8460 H   0  0  0  0  0  0  0  0  0  0  0  0
    4.9760    4.0829  -12.1910 H   0  0  0  0  0  0  0  0  0  0  0  0
    6.8707    5.5468  -11.6437 H   0  0  0  0  0  0  0  0  0  0  0  0
   10.3816    4.8339  -12.5498 H   0  0  0  0  0  0  0  0  0  0  0  0
    9.6038    6.0868  -13.4893 H   0  0  0  0  0  0  0  0  0  0  0  0
   11.3009    6.9741  -11.2876 H   0  0  0  0  0  0  0  0  0  0  0  0
   10.2416    7.8987  -12.3400 H   0  0  0  0  0  0  0  0  0  0  0  0
   10.5813    9.1385  -10.2343 H   0  0  0  0  0  0  0  0  0  0  0  0
    8.8911    8.6900  -10.4149 H   0  0  0  0  0  0  0  0  0  0  0  0
    9.7103    9.5183   -8.1153 H   0  0  0  0  0  0  0  0  0  0  0  0
    8.4872    8.3986   -7.6084 H   0  0  0  0  0  0  0  0  0  0  0  0
   10.7398    6.0684   -6.3476 H   0  0  0  0  0  0  0  0  0  0  0  0
   12.0998    5.7722   -3.6437 H   0  0  0  0  0  0  0  0  0  0  0  0
   12.8832    7.0644   -1.6824 H   0  0  0  0  0  0  0  0  0  0  0  0
   12.5949    9.5339   -1.6123 H   0  0  0  0  0  0  0  0  0  0  0  0
   11.5170   10.7028   -3.5293 H   0  0  0  0  0  0  0  0  0  0  0  0
    9.2547    5.7726   -8.0667 H   0  0  0  0  0  0  0  0  0  0  0  0
    8.0853    6.6101   -9.0424 H   0  0  0  0  0  0  0  0  0  0  0  0
    8.8050    4.6067  -10.2183 H   0  0  0  0  0  0  0  0  0  0  0  0
   10.4827    5.0798  -10.1089 H   0  0  0  0  0  0  0  0  0  0  0  0
   10.9042    7.3250   -8.7888 H   0  0  0  0  0  0  0  0  0  0  0  0
  2  1  1  0
  3  2  1  0
  4  3  1  0
  5  4  1  0
  6  5  2  0
  7  6  1  0
  8  7  2  0
  9  8  1  0
 10  5  1  0
 10  9  2  0
 11 10  1  0
 12 11  1  0
 13 12  1  0
 14 13  1  0
 15 14  1  0
 16 15  1  0
 17 16  1  0
 18 17  2  0
 19 18  1  0
 20 19  2  0
 21 20  1  0
 22 21  2  0
 23 22  1  0
 24 19  1  0
 24 23  2  0
 25 17  1  0
 25 24  1  0
 26 15  1  0
 27 12  1  0
 27 26  1  0
 28  2  1  0
 29  2  1  0
 30  3  1  0
 31  3  1  0
 32  6  1  0
 33  7  1  0
 34  8  1  0
 35  9  1  0
 36 11  1  0
 37 11  1  0
 38 13  1  0
 39 13  1  0
 40 14  1  0
 41 14  1  0
 42 16  1  0
 43 16  1  0
 44 18  1  0
 45 20  1  0
 46 21  1  0
 47 22  1  0
 48 23  1  0
 49 26  1  0
 50 26  1  0
 51 27  1  0
 52 27  1  0
 53 15  1  0
M  CHG  1  15   1
M  END
>  <b_m_subgroup_collapsed>  (519) 
0

>  <r_i_docking_score>  (519) 
-7.8645637748976496

>  <s_m_subgroup_title>  (519) 
glide-dock_SP_D22_pv

>  <s_m_subgroupid>  (519) 
glide-dock_SP_D22_pv

>  <Molecule ChEMBL ID>  (519) 
CHEMBL1215036

>  <Standard Type>  (519) 
Ki

>  <Standard Value>  (519) 
10000.0

>  <label>  (519) 
0

$$$$
CHEMBL517407
     RDKit          3D

 76 80  0  0  1  0  0  0  0  0999 V2000
   11.8290    4.2806  -17.2727 C   0  0  0  0  0  0  0  0  0  0  0  0
   11.4630    3.1321  -16.4120 N   0  0  2  0  0  0  0  0  0  0  0  0
   10.0456    2.7292  -16.5927 C   0  0  0  0  0  0  0  0  0  0  0  0
    9.6176    1.5178  -15.7315 C   0  0  0  0  0  0  0  0  0  0  0  0
    8.3225    0.8875  -16.2091 C   0  0  0  0  0  0  0  0  0  0  0  0
    7.0853    0.9165  -15.6555 C   0  0  0  0  0  0  0  0  0  0  0  0
    6.6943    1.7623  -14.4937 C   0  0  0  0  0  0  0  0  0  0  0  0
    7.2367    3.0500  -14.2624 C   0  0  0  0  0  0  0  0  0  0  0  0
    6.7871    3.8745  -13.2158 C   0  0  0  0  0  0  0  0  0  0  0  0
    5.8000    3.4097  -12.3389 C   0  0  0  0  0  0  0  0  0  0  0  0
    5.2624    2.1297  -12.5351 C   0  0  0  0  0  0  0  0  0  0  0  0
    5.6879    1.3168  -13.6053 C   0  0  0  0  0  0  0  0  0  0  0  0
    4.8733   -0.2276  -13.8468 S   0  0  0  0  0  0  0  0  0  0  0  0
    4.9738   -0.4456  -15.5919 C   0  0  0  0  0  0  0  0  0  0  0  0
    3.9818   -1.2244  -16.2201 C   0  0  0  0  0  0  0  0  0  0  0  0
    3.9670   -1.3569  -17.6188 C   0  0  0  0  0  0  0  0  0  0  0  0
    4.9466   -0.7049  -18.3886 C   0  0  0  0  0  0  0  0  0  0  0  0
    4.9038   -0.8160  -20.1093 Cl  0  0  0  0  0  0  0  0  0  0  0  0
    5.9614    0.0428  -17.7562 C   0  0  0  0  0  0  0  0  0  0  0  0
    6.0000    0.1725  -16.3454 C   0  0  0  0  0  0  0  0  0  0  0  0
   11.9362    3.2687  -15.0084 C   0  0  0  0  0  0  0  0  0  0  0  0
   11.4175    4.4573  -14.2187 C   0  0  0  0  0  0  0  0  0  0  0  0
   12.0910    5.6921  -14.2879 C   0  0  0  0  0  0  0  0  0  0  0  0
   11.6858    6.7686  -13.4791 C   0  0  0  0  0  0  0  0  0  0  0  0
   10.5854    6.6359  -12.6054 C   0  0  0  0  0  0  0  0  0  0  0  0
   10.1992    7.7726  -11.9277 O   0  0  0  0  0  0  0  0  0  0  0  0
    9.3662    7.6833  -10.7776 C   0  0  0  0  0  0  0  0  0  0  0  0
   10.2722    7.4929   -9.5584 C   0  0  0  0  0  0  0  0  0  0  0  0
    9.5160    7.4694   -8.2197 C   0  0  0  0  0  0  0  0  0  0  0  0
   10.4750    7.6617   -7.1016 N   0  0  0  0  0  0  0  0  0  0  0  0
   10.6118    9.0796   -6.6969 C   0  0  0  0  0  0  0  0  0  0  0  0
   11.8070    9.2616   -5.7508 C   0  0  0  0  0  0  0  0  0  0  0  0
   11.6820    8.3521   -4.5165 C   0  0  0  0  0  0  0  0  0  0  0  0
   11.3778    6.8953   -4.9144 C   0  0  0  0  0  0  0  0  0  0  0  0
   10.2224    6.7992   -5.9253 C   0  0  0  0  0  0  0  0  0  0  0  0
    9.9248    5.3865  -12.5225 C   0  0  0  0  0  0  0  0  0  0  0  0
   10.3425    4.3069  -13.3209 C   0  0  0  0  0  0  0  0  0  0  0  0
   11.2647    5.1759  -17.0050 H   0  0  0  0  0  0  0  0  0  0  0  0
   12.8928    4.5080  -17.1872 H   0  0  0  0  0  0  0  0  0  0  0  0
   11.6274    4.0581  -18.3213 H   0  0  0  0  0  0  0  0  0  0  0  0
    9.9078    2.4773  -17.6466 H   0  0  0  0  0  0  0  0  0  0  0  0
    9.4125    3.5957  -16.4105 H   0  0  0  0  0  0  0  0  0  0  0  0
    9.5357    1.7703  -14.6773 H   0  0  0  0  0  0  0  0  0  0  0  0
   10.3773    0.7376  -15.7851 H   0  0  0  0  0  0  0  0  0  0  0  0
    8.4738    0.2796  -17.0896 H   0  0  0  0  0  0  0  0  0  0  0  0
    7.9708    3.4625  -14.9258 H   0  0  0  0  0  0  0  0  0  0  0  0
    7.1933    4.8680  -13.0930 H   0  0  0  0  0  0  0  0  0  0  0  0
    5.4547    4.0334  -11.5274 H   0  0  0  0  0  0  0  0  0  0  0  0
    4.4865    1.7917  -11.8692 H   0  0  0  0  0  0  0  0  0  0  0  0
    3.2141   -1.7104  -15.6350 H   0  0  0  0  0  0  0  0  0  0  0  0
    3.1957   -1.9427  -18.0970 H   0  0  0  0  0  0  0  0  0  0  0  0
    6.7016    0.5269  -18.3754 H   0  0  0  0  0  0  0  0  0  0  0  0
   11.7404    2.3562  -14.4466 H   0  0  0  0  0  0  0  0  0  0  0  0
   13.0153    3.3726  -15.0473 H   0  0  0  0  0  0  0  0  0  0  0  0
   12.9418    5.8198  -14.9413 H   0  0  0  0  0  0  0  0  0  0  0  0
   12.2067    7.7122  -13.5482 H   0  0  0  0  0  0  0  0  0  0  0  0
    8.8516    8.6392  -10.6874 H   0  0  0  0  0  0  0  0  0  0  0  0
    8.5772    6.9365  -10.8375 H   0  0  0  0  0  0  0  0  0  0  0  0
   10.8453    6.5716   -9.6668 H   0  0  0  0  0  0  0  0  0  0  0  0
   11.0008    8.3049   -9.5572 H   0  0  0  0  0  0  0  0  0  0  0  0
    8.7419    8.2378   -8.1874 H   0  0  0  0  0  0  0  0  0  0  0  0
    8.9938    6.5152   -8.1297 H   0  0  0  0  0  0  0  0  0  0  0  0
   10.7383    9.7173   -7.5723 H   0  0  0  0  0  0  0  0  0  0  0  0
    9.6863    9.3724   -6.2033 H   0  0  0  0  0  0  0  0  0  0  0  0
   12.7283    9.0491   -6.2920 H   0  0  0  0  0  0  0  0  0  0  0  0
   11.8761   10.3043   -5.4389 H   0  0  0  0  0  0  0  0  0  0  0  0
   12.5954    8.3956   -3.9207 H   0  0  0  0  0  0  0  0  0  0  0  0
   10.8861    8.7324   -3.8776 H   0  0  0  0  0  0  0  0  0  0  0  0
   12.2601    6.4330   -5.3501 H   0  0  0  0  0  0  0  0  0  0  0  0
   11.1440    6.3047   -4.0280 H   0  0  0  0  0  0  0  0  0  0  0  0
    9.2859    7.0767   -5.4473 H   0  0  0  0  0  0  0  0  0  0  0  0
   10.1222    5.7725   -6.2665 H   0  0  0  0  0  0  0  0  0  0  0  0
    9.0946    5.2205  -11.8559 H   0  0  0  0  0  0  0  0  0  0  0  0
    9.8467    3.3553  -13.2074 H   0  0  0  0  0  0  0  0  0  0  0  0
   11.3735    7.3733   -7.4604 H   0  0  0  0  0  0  0  0  0  0  0  0
   11.9942    2.3510  -16.7727 H   0  0  0  0  0  0  0  0  0  0  0  0
  2  1  1  0
  3  2  1  0
  4  3  1  0
  5  4  1  0
  6  5  2  0
  7  6  1  0
  8  7  2  0
  9  8  1  0
 10  9  2  0
 11 10  1  0
 12  7  1  0
 12 11  2  0
 13 12  1  0
 14 13  1  0
 15 14  1  0
 16 15  2  0
 17 16  1  0
 18 17  1  0
 19 17  2  0
 20  6  1  0
 20 14  2  0
 20 19  1  0
 21  2  1  0
 22 21  1  0
 23 22  1  0
 24 23  2  0
 25 24  1  0
 26 25  1  0
 27 26  1  0
 28 27  1  0
 29 28  1  0
 30 29  1  0
 31 30  1  0
 32 31  1  0
 33 32  1  0
 34 33  1  0
 35 30  1  0
 35 34  1  0
 36 25  2  0
 37 22  2  0
 37 36  1  0
 38  1  1  0
 39  1  1  0
 40  1  1  0
 41  3  1  0
 42  3  1  0
 43  4  1  0
 44  4  1  0
 45  5  1  0
 46  8  1  0
 47  9  1  0
 48 10  1  0
 49 11  1  0
 50 15  1  0
 51 16  1  0
 52 19  1  0
 53 21  1  0
 54 21  1  0
 55 23  1  0
 56 24  1  0
 57 27  1  0
 58 27  1  0
 59 28  1  0
 60 28  1  0
 61 29  1  0
 62 29  1  0
 63 31  1  0
 64 31  1  0
 65 32  1  0
 66 32  1  0
 67 33  1  0
 68 33  1  0
 69 34  1  0
 70 34  1  0
 71 35  1  0
 72 35  1  0
 73 36  1  0
 74 37  1  0
 75 30  1  0
  2 76  1  6
M  CHG  2   2   1  30   1
M  END
>  <b_m_subgroup_collapsed>  (520) 
0

>  <r_i_docking_score>  (520) 
-7.8629947612147904

>  <s_m_subgroup_title>  (520) 
glide-dock_SP_D22_pv

>  <s_m_subgroupid>  (520) 
glide-dock_SP_D22_pv

>  <Molecule ChEMBL ID>  (520) 
CHEMBL517407

>  <Standard Type>  (520) 
Ki

>  <Standard Value>  (520) 
52.0

>  <label>  (520) 
1

$$$$
CHEMBL3289985
     RDKit          3D

 58 62  0  0  1  0  0  0  0  0999 V2000
    9.3592    0.6957  -16.1675 C   0  0  0  0  0  0  0  0  0  0  0  0
    8.3978    1.4519  -15.2953 C   0  0  0  0  0  0  0  0  0  0  0  0
    8.6129    2.7141  -14.7733 C   0  0  0  0  0  0  0  0  0  0  0  0
   10.0804    3.7345  -14.9555 S   0  0  0  0  0  0  0  0  0  0  0  0
    9.6842    4.9580  -15.6692 O   0  0  0  0  0  0  0  0  0  0  0  0
   11.1620    2.8814  -15.4690 O   0  0  0  0  0  0  0  0  0  0  0  0
   10.5229    4.1719  -13.3487 N   0  0  0  0  0  0  0  0  0  0  0  0
    9.8375    5.2306  -12.6033 C   0  0  0  0  0  0  0  0  0  0  0  0
    9.2883    4.6822  -11.2780 C   0  0  0  0  0  0  0  0  0  0  0  0
    8.6198    5.7623  -10.4157 C   0  0  0  0  0  0  0  0  0  0  0  0
    9.5841    6.2419   -9.4274 N   0  0  0  0  0  0  0  0  0  0  0  0
    9.8143    7.6799   -9.5947 C   0  0  0  0  0  0  0  0  0  0  0  0
   10.8974    8.1553   -8.6067 C   0  0  0  0  0  0  0  0  0  0  0  0
   10.5239    7.8011   -7.2421 N   0  0  0  0  0  0  0  0  0  0  0  0
   10.9297    8.6170   -6.1765 C   0  0  0  0  0  0  0  0  0  0  0  0
   10.8860    9.9433   -6.2483 N   0  0  0  0  0  0  0  0  0  0  0  0
   11.2860   10.4400   -4.9825 O   0  0  0  0  0  0  0  0  0  0  0  0
   11.6279    9.3872   -4.1503 C   0  0  0  0  0  0  0  0  0  0  0  0
   12.0865    9.3720   -2.8281 C   0  0  0  0  0  0  0  0  0  0  0  0
   12.3492    8.1225   -2.2366 C   0  0  0  0  0  0  0  0  0  0  0  0
   12.1443    6.9311   -2.9692 C   0  0  0  0  0  0  0  0  0  0  0  0
   11.6848    6.9722   -4.3049 C   0  0  0  0  0  0  0  0  0  0  0  0
   11.4084    8.2276   -4.8989 C   0  0  0  0  0  0  0  0  0  0  0  0
   10.1146    6.4221   -7.0300 C   0  0  0  0  0  0  0  0  0  0  0  0
    9.0646    6.0120   -8.0761 C   0  0  0  0  0  0  0  0  0  0  0  0
    7.2753    3.3370  -13.8469 S   0  0  0  0  0  0  0  0  0  0  0  0
    6.4034    1.8284  -14.0168 C   0  0  0  0  0  0  0  0  0  0  0  0
    5.1597    1.4914  -13.4468 C   0  0  0  0  0  0  0  0  0  0  0  0
    4.5273    0.2879  -13.8081 C   0  0  0  0  0  0  0  0  0  0  0  0
    5.1708   -0.5938  -14.6873 C   0  0  0  0  0  0  0  0  0  0  0  0
    4.5669   -1.7474  -15.0487 F   0  0  0  0  0  0  0  0  0  0  0  0
    6.4400   -0.2775  -15.1986 C   0  0  0  0  0  0  0  0  0  0  0  0
    7.1028    0.9345  -14.8877 C   0  0  0  0  0  0  0  0  0  0  0  0
    8.9107   -0.2027  -16.5905 H   0  0  0  0  0  0  0  0  0  0  0  0
    9.6988    1.3057  -17.0054 H   0  0  0  0  0  0  0  0  0  0  0  0
   10.2376    0.3813  -15.6036 H   0  0  0  0  0  0  0  0  0  0  0  0
   10.7432    3.3537  -12.7816 H   0  0  0  0  0  0  0  0  0  0  0  0
    9.0365    5.6600  -13.2058 H   0  0  0  0  0  0  0  0  0  0  0  0
   10.5486    6.0341  -12.4100 H   0  0  0  0  0  0  0  0  0  0  0  0
   10.0780    4.1762  -10.7191 H   0  0  0  0  0  0  0  0  0  0  0  0
    8.5485    3.9141  -11.4852 H   0  0  0  0  0  0  0  0  0  0  0  0
    7.7481    5.3296   -9.9222 H   0  0  0  0  0  0  0  0  0  0  0  0
    8.2244    6.5682  -11.0376 H   0  0  0  0  0  0  0  0  0  0  0  0
    8.8849    8.2316   -9.4382 H   0  0  0  0  0  0  0  0  0  0  0  0
   10.1401    7.8835  -10.6152 H   0  0  0  0  0  0  0  0  0  0  0  0
   11.0431    9.2305   -8.7134 H   0  0  0  0  0  0  0  0  0  0  0  0
   11.8507    7.6795   -8.8420 H   0  0  0  0  0  0  0  0  0  0  0  0
   12.2267   10.2891   -2.2790 H   0  0  0  0  0  0  0  0  0  0  0  0
   12.7049    8.0802   -1.2181 H   0  0  0  0  0  0  0  0  0  0  0  0
   12.3470    5.9763   -2.5054 H   0  0  0  0  0  0  0  0  0  0  0  0
   11.5513    6.0483   -4.8446 H   0  0  0  0  0  0  0  0  0  0  0  0
   10.9878    5.7723   -7.0902 H   0  0  0  0  0  0  0  0  0  0  0  0
    9.6766    6.3085   -6.0385 H   0  0  0  0  0  0  0  0  0  0  0  0
    8.1400    6.5730   -7.9266 H   0  0  0  0  0  0  0  0  0  0  0  0
    8.8212    4.9569   -7.9458 H   0  0  0  0  0  0  0  0  0  0  0  0
    4.6602    2.1913  -12.7927 H   0  0  0  0  0  0  0  0  0  0  0  0
    3.5372    0.0532  -13.4465 H   0  0  0  0  0  0  0  0  0  0  0  0
    6.8990   -0.9998  -15.8564 H   0  0  0  0  0  0  0  0  0  0  0  0
  2  1  1  0
  3  2  2  0
  4  3  1  0
  5  4  2  0
  6  4  2  0
  7  4  1  0
  8  7  1  0
  9  8  1  0
 10  9  1  0
 11 10  1  0
 12 11  1  0
 13 12  1  0
 14 13  1  0
 15 14  1  0
 16 15  2  0
 17 16  1  0
 18 17  1  0
 19 18  2  0
 20 19  1  0
 21 20  2  0
 22 21  1  0
 23 15  1  0
 23 18  1  0
 23 22  2  0
 24 14  1  0
 25 11  1  0
 25 24  1  0
 26  3  1  0
 27 26  1  0
 28 27  2  0
 29 28  1  0
 30 29  2  0
 31 30  1  0
 32 30  1  0
 33  2  1  0
 33 27  1  0
 33 32  2  0
 34  1  1  0
 35  1  1  0
 36  1  1  0
 37  7  1  0
 38  8  1  0
 39  8  1  0
 40  9  1  0
 41  9  1  0
 42 10  1  0
 43 10  1  0
 44 12  1  0
 45 12  1  0
 46 13  1  0
 47 13  1  0
 48 19  1  0
 49 20  1  0
 50 21  1  0
 51 22  1  0
 52 24  1  0
 53 24  1  0
 54 25  1  0
 55 25  1  0
 56 28  1  0
 57 29  1  0
 58 32  1  0
M  END
>  <b_m_subgroup_collapsed>  (521) 
0

>  <r_i_docking_score>  (521) 
-7.8623048835560301

>  <s_m_subgroup_title>  (521) 
glide-dock_SP_D22_pv

>  <s_m_subgroupid>  (521) 
glide-dock_SP_D22_pv

>  <Molecule ChEMBL ID>  (521) 
CHEMBL3289985

>  <Standard Type>  (521) 
Ki

>  <Standard Value>  (521) 
10000.0

>  <label>  (521) 
0

$$$$
CHEMBL404000
     RDKit          3D

 54 58  0  0  1  0  0  0  0  0999 V2000
   10.4791    1.4508  -14.6469 N   0  0  0  0  0  0  0  0  0  0  0  0
    9.4651    2.3194  -15.2691 C   0  0  1  0  0  0  0  0  0  0  0  0
    8.3909    1.5066  -16.0395 C   0  0  0  0  0  0  0  0  0  0  0  0
    7.0012    2.0002  -15.5689 C   0  0  0  0  0  0  0  0  0  0  0  0
    7.3081    2.8775  -14.3853 C   0  0  0  0  0  0  0  0  0  0  0  0
    6.3833    3.4622  -13.5002 C   0  0  0  0  0  0  0  0  0  0  0  0
    6.8841    4.1744  -12.3885 C   0  0  0  0  0  0  0  0  0  0  0  0
    8.2816    4.2953  -12.1852 C   0  0  0  0  0  0  0  0  0  0  0  0
    8.8210    4.7952  -10.8610 C   0  0  0  0  0  0  0  0  0  0  0  0
    9.2043    6.2807  -10.8210 C   0  0  0  0  0  0  0  0  0  0  0  0
   10.0864    6.5242   -9.6804 N   0  0  0  0  0  0  0  0  0  0  0  0
   10.5957    7.8947   -9.6926 C   0  0  0  0  0  0  0  0  0  0  0  0
   11.7326    8.0016   -8.6575 C   0  0  0  0  0  0  0  0  0  0  0  0
   11.2876    7.5815   -7.3283 N   0  0  0  0  0  0  0  0  0  0  0  0
   11.2294    8.4831   -6.2530 C   0  0  0  0  0  0  0  0  0  0  0  0
   10.8852    9.7302   -6.4788 N   0  0  0  0  0  0  0  0  0  0  0  0
   10.8861   10.5723   -5.0470 S   0  0  0  0  0  0  0  0  0  0  0  0
   11.5974    9.3080   -4.0892 C   0  0  0  0  0  0  0  0  0  0  0  0
   12.0652    9.3330   -2.7660 C   0  0  0  0  0  0  0  0  0  0  0  0
   12.4858    8.1400   -2.1627 C   0  0  0  0  0  0  0  0  0  0  0  0
   12.4423    6.9419   -2.8974 C   0  0  0  0  0  0  0  0  0  0  0  0
   12.0269    6.9461   -4.2452 C   0  0  0  0  0  0  0  0  0  0  0  0
   11.6152    8.1334   -4.8922 C   0  0  0  0  0  0  0  0  0  0  0  0
   10.5645    6.3203   -7.2902 C   0  0  0  0  0  0  0  0  0  0  0  0
    9.4633    6.2914   -8.3698 C   0  0  0  0  0  0  0  0  0  0  0  0
    9.1911    3.7787  -13.1337 C   0  0  0  0  0  0  0  0  0  0  0  0
    8.6764    3.0533  -14.2217 C   0  0  0  0  0  0  0  0  0  0  0  0
   11.1680    2.0270  -14.1866 H   0  0  0  0  0  0  0  0  0  0  0  0
   10.0340    0.8693  -13.9491 H   0  0  0  0  0  0  0  0  0  0  0  0
    9.9452    3.0445  -15.9286 H   0  0  0  0  0  0  0  0  0  0  0  0
    8.5088    1.5869  -17.1206 H   0  0  0  0  0  0  0  0  0  0  0  0
    8.4747    0.4448  -15.7972 H   0  0  0  0  0  0  0  0  0  0  0  0
    6.3570    1.1683  -15.2777 H   0  0  0  0  0  0  0  0  0  0  0  0
    6.4901    2.5722  -16.3449 H   0  0  0  0  0  0  0  0  0  0  0  0
    5.3198    3.3322  -13.6390 H   0  0  0  0  0  0  0  0  0  0  0  0
    6.1951    4.5707  -11.6564 H   0  0  0  0  0  0  0  0  0  0  0  0
    8.0704    4.5815  -10.1005 H   0  0  0  0  0  0  0  0  0  0  0  0
    9.6874    4.1812  -10.6044 H   0  0  0  0  0  0  0  0  0  0  0  0
    9.7542    6.5266  -11.7299 H   0  0  0  0  0  0  0  0  0  0  0  0
    8.3259    6.9229  -10.7974 H   0  0  0  0  0  0  0  0  0  0  0  0
   10.9868    8.1413  -10.6803 H   0  0  0  0  0  0  0  0  0  0  0  0
    9.7959    8.6056   -9.4753 H   0  0  0  0  0  0  0  0  0  0  0  0
   12.5687    7.3740   -8.9605 H   0  0  0  0  0  0  0  0  0  0  0  0
   12.1194    9.0202   -8.6373 H   0  0  0  0  0  0  0  0  0  0  0  0
   12.0829   10.2580   -2.2124 H   0  0  0  0  0  0  0  0  0  0  0  0
   12.8309    8.1459   -1.1400 H   0  0  0  0  0  0  0  0  0  0  0  0
   12.7530    6.0143   -2.4362 H   0  0  0  0  0  0  0  0  0  0  0  0
   12.0470    6.0227   -4.8038 H   0  0  0  0  0  0  0  0  0  0  0  0
   11.2738    5.5062   -7.4462 H   0  0  0  0  0  0  0  0  0  0  0  0
   10.1145    6.1724   -6.3073 H   0  0  0  0  0  0  0  0  0  0  0  0
    8.6890    7.0347   -8.1701 H   0  0  0  0  0  0  0  0  0  0  0  0
    8.9805    5.3180   -8.3216 H   0  0  0  0  0  0  0  0  0  0  0  0
   10.2562    3.8615  -12.9725 H   0  0  0  0  0  0  0  0  0  0  0  0
   10.9285    0.8815  -15.3482 H   0  0  0  0  0  0  0  0  0  0  0  0
  2  1  1  0
  3  2  1  0
  4  3  1  0
  5  4  1  0
  6  5  1  0
  7  6  2  0
  8  7  1  0
  9  8  1  0
 10  9  1  0
 11 10  1  0
 12 11  1  0
 13 12  1  0
 14 13  1  0
 15 14  1  0
 16 15  2  0
 17 16  1  0
 18 17  1  0
 19 18  2  0
 20 19  1  0
 21 20  2  0
 22 21  1  0
 23 15  1  0
 23 18  1  0
 23 22  2  0
 24 14  1  0
 25 11  1  0
 25 24  1  0
 26  8  2  0
 27  2  1  0
 27  5  2  0
 27 26  1  0
 28  1  1  0
 29  1  1  0
  2 30  1  6
 31  3  1  0
 32  3  1  0
 33  4  1  0
 34  4  1  0
 35  6  1  0
 36  7  1  0
 37  9  1  0
 38  9  1  0
 39 10  1  0
 40 10  1  0
 41 12  1  0
 42 12  1  0
 43 13  1  0
 44 13  1  0
 45 19  1  0
 46 20  1  0
 47 21  1  0
 48 22  1  0
 49 24  1  0
 50 24  1  0
 51 25  1  0
 52 25  1  0
 53 26  1  0
 54  1  1  0
M  CHG  1   1   1
M  END
>  <b_m_subgroup_collapsed>  (522) 
0

>  <r_i_docking_score>  (522) 
-7.8593640524701298

>  <s_m_subgroup_title>  (522) 
glide-dock_SP_D22_pv

>  <s_m_subgroupid>  (522) 
glide-dock_SP_D22_pv

>  <Molecule ChEMBL ID>  (522) 
CHEMBL404000

>  <Standard Type>  (522) 
Ki

>  <Standard Value>  (522) 
21.0

>  <label>  (522) 
1

$$$$
CHEMBL25856
     RDKit          3D

 38 41  0  0  1  0  0  0  0  0999 V2000
    6.8363   -0.6249  -15.2796 O   0  0  0  0  0  0  0  0  0  0  0  0
    7.3715    0.5605  -14.8512 C   0  0  0  0  0  0  0  0  0  0  0  0
    6.4856    1.5665  -14.4412 C   0  0  0  0  0  0  0  0  0  0  0  0
    6.9446    2.8057  -13.9547 C   0  0  0  0  0  0  0  0  0  0  0  0
    8.3387    3.0512  -13.8467 C   0  0  0  0  0  0  0  0  0  0  0  0
    9.2279    2.0203  -14.2473 C   0  0  0  0  0  0  0  0  0  0  0  0
    8.7594    0.7944  -14.7675 C   0  0  0  0  0  0  0  0  0  0  0  0
    9.6571   -0.1660  -15.1404 O   0  0  0  0  0  0  0  0  0  0  0  0
    8.8495    4.2501  -13.0152 C   0  0  1  0  0  0  0  0  0  0  0  0
   10.0727    5.0408  -13.4839 C   0  0  0  0  0  0  0  0  0  0  0  0
   10.8255    4.7156  -14.6383 C   0  0  0  0  0  0  0  0  0  0  0  0
   11.9770    5.4508  -14.9743 C   0  0  0  0  0  0  0  0  0  0  0  0
   12.3841    6.5297  -14.1717 C   0  0  0  0  0  0  0  0  0  0  0  0
   11.6225    6.8913  -13.0464 C   0  0  0  0  0  0  0  0  0  0  0  0
   10.4507    6.1739  -12.7154 C   0  0  0  0  0  0  0  0  0  0  0  0
    9.5609    6.7227  -11.5944 C   0  0  0  0  0  0  0  0  0  0  0  0
    8.2506    6.0480  -11.4133 N   0  0  0  0  0  0  0  0  0  0  0  0
    7.7636    5.2604  -12.5696 C   0  0  2  0  0  0  0  0  0  0  0  0
    6.4286    4.5894  -12.2472 C   0  0  0  0  0  0  0  0  0  0  0  0
    5.9166    3.8010  -13.4463 C   0  0  0  0  0  0  0  0  0  0  0  0
    7.4231   -1.3566  -15.4461 H   0  0  0  0  0  0  0  0  0  0  0  0
    5.4282    1.3553  -14.4600 H   0  0  0  0  0  0  0  0  0  0  0  0
   10.2900    2.1287  -14.0859 H   0  0  0  0  0  0  0  0  0  0  0  0
    9.2465   -0.9586  -15.4474 H   0  0  0  0  0  0  0  0  0  0  0  0
    9.1956    3.7541  -12.1062 H   0  0  0  0  0  0  0  0  0  0  0  0
   10.5416    3.9120  -15.2972 H   0  0  0  0  0  0  0  0  0  0  0  0
   12.5502    5.1861  -15.8510 H   0  0  0  0  0  0  0  0  0  0  0  0
   13.2727    7.0881  -14.4263 H   0  0  0  0  0  0  0  0  0  0  0  0
   11.9218    7.7466  -12.4580 H   0  0  0  0  0  0  0  0  0  0  0  0
   10.1040    6.7089  -10.6506 H   0  0  0  0  0  0  0  0  0  0  0  0
    9.3559    7.7693  -11.8217 H   0  0  0  0  0  0  0  0  0  0  0  0
    8.3487    5.4050  -10.6422 H   0  0  0  0  0  0  0  0  0  0  0  0
    7.5823    5.9538  -13.3928 H   0  0  0  0  0  0  0  0  0  0  0  0
    6.5510    3.9107  -11.4026 H   0  0  0  0  0  0  0  0  0  0  0  0
    5.6882    5.3319  -11.9462 H   0  0  0  0  0  0  0  0  0  0  0  0
    5.6560    4.4831  -14.2536 H   0  0  0  0  0  0  0  0  0  0  0  0
    4.9981    3.2816  -13.1709 H   0  0  0  0  0  0  0  0  0  0  0  0
    7.5526    6.7376  -11.1263 H   0  0  0  0  0  0  0  0  0  0  0  0
  2  1  1  0
  3  2  2  0
  4  3  1  0
  5  4  2  0
  6  5  1  0
  7  2  1  0
  7  6  2  0
  8  7  1  0
  9  5  1  0
 10  9  1  0
 11 10  2  0
 12 11  1  0
 13 12  2  0
 14 13  1  0
 15 10  1  0
 15 14  2  0
 16 15  1  0
 17 16  1  0
 18  9  1  0
 18 17  1  0
 19 18  1  0
 20  4  1  0
 20 19  1  0
 21  1  1  0
 22  3  1  0
 23  6  1  0
 24  8  1  0
  9 25  1  1
 26 11  1  0
 27 12  1  0
 28 13  1  0
 29 14  1  0
 30 16  1  0
 31 16  1  0
 32 17  1  0
 18 33  1  6
 34 19  1  0
 35 19  1  0
 36 20  1  0
 37 20  1  0
 38 17  1  0
M  CHG  1  17   1
M  END
>  <b_m_subgroup_collapsed>  (523) 
0

>  <r_i_docking_score>  (523) 
-7.8552453359636498

>  <s_m_subgroup_title>  (523) 
glide-dock_SP_D22_pv

>  <s_m_subgroupid>  (523) 
glide-dock_SP_D22_pv

>  <Molecule ChEMBL ID>  (523) 
CHEMBL25856

>  <Standard Type>  (523) 
Ki

>  <Standard Value>  (523) 
58.0

>  <label>  (523) 
1

$$$$
CHEMBL6008815
     RDKit          3D

 49 53  0  0  1  0  0  0  0  0999 V2000
   10.8035    4.1714  -13.4471 O   0  0  0  0  0  0  0  0  0  0  0  0
    9.5867    3.9792  -13.4586 C   0  0  0  0  0  0  0  0  0  0  0  0
    9.0300    2.7882  -14.1989 C   0  0  0  0  0  0  0  0  0  0  0  0
    9.8749    1.8311  -14.8020 C   0  0  0  0  0  0  0  0  0  0  0  0
    9.4137    0.7356  -15.4423 N   0  0  0  0  0  0  0  0  0  0  0  0
    8.0778    0.5530  -15.5024 C   0  0  0  0  0  0  0  0  0  0  0  0
    7.1468    1.4437  -14.9336 C   0  0  0  0  0  0  0  0  0  0  0  0
    7.6352    2.5841  -14.2698 C   0  0  0  0  0  0  0  0  0  0  0  0
    6.7570    3.5533  -13.6147 C   0  0  0  0  0  0  0  0  0  0  0  0
    7.2963    4.5777  -12.9297 C   0  0  0  0  0  0  0  0  0  0  0  0
    8.6873    4.7783  -12.8147 N   0  0  0  0  0  0  0  0  0  0  0  0
    9.1347    5.8646  -11.9330 C   0  0  0  0  0  0  0  0  0  0  0  0
    8.8069    5.5409  -10.4602 C   0  0  0  0  0  0  0  0  0  0  0  0
    9.6904    6.2195   -9.5141 N   0  0  0  0  0  0  0  0  0  0  0  0
    9.5806    7.6797   -9.5819 C   0  0  0  0  0  0  0  0  0  0  0  0
   10.6172    8.3097   -8.6303 C   0  0  0  0  0  0  0  0  0  0  0  0
   10.4262    7.8325   -7.2624 N   0  0  0  0  0  0  0  0  0  0  0  0
   10.8980    8.6260   -6.1991 C   0  0  0  0  0  0  0  0  0  0  0  0
   10.8861    9.9549   -6.2637 N   0  0  0  0  0  0  0  0  0  0  0  0
   11.2860   10.4438   -4.9971 O   0  0  0  0  0  0  0  0  0  0  0  0
   11.6253    9.3864   -4.1723 C   0  0  0  0  0  0  0  0  0  0  0  0
   12.0863    9.3716   -2.8501 C   0  0  0  0  0  0  0  0  0  0  0  0
   12.3415    8.1239   -2.2521 C   0  0  0  0  0  0  0  0  0  0  0  0
   12.1339    6.9341   -2.9869 C   0  0  0  0  0  0  0  0  0  0  0  0
   11.6734    6.9740   -4.3232 C   0  0  0  0  0  0  0  0  0  0  0  0
   11.3952    8.2281   -4.9237 C   0  0  0  0  0  0  0  0  0  0  0  0
   10.2837    6.3910   -7.1207 C   0  0  0  0  0  0  0  0  0  0  0  0
    9.2988    5.8213   -8.1595 C   0  0  0  0  0  0  0  0  0  0  0  0
   10.9502    1.9319  -14.7662 H   0  0  0  0  0  0  0  0  0  0  0  0
    7.7384   -0.3319  -16.0189 H   0  0  0  0  0  0  0  0  0  0  0  0
    6.0879    1.2436  -15.0001 H   0  0  0  0  0  0  0  0  0  0  0  0
    5.6870    3.4228  -13.6866 H   0  0  0  0  0  0  0  0  0  0  0  0
    6.6937    5.3131  -12.4141 H   0  0  0  0  0  0  0  0  0  0  0  0
   10.2030    6.0578  -12.0390 H   0  0  0  0  0  0  0  0  0  0  0  0
    8.6394    6.7911  -12.2282 H   0  0  0  0  0  0  0  0  0  0  0  0
    7.7606    5.7700  -10.2463 H   0  0  0  0  0  0  0  0  0  0  0  0
    8.9287    4.4683  -10.3045 H   0  0  0  0  0  0  0  0  0  0  0  0
    9.7753    8.0337  -10.5941 H   0  0  0  0  0  0  0  0  0  0  0  0
    8.5709    8.0029   -9.3220 H   0  0  0  0  0  0  0  0  0  0  0  0
   11.6282    8.0592   -8.9549 H   0  0  0  0  0  0  0  0  0  0  0  0
   10.5274    9.3934   -8.6878 H   0  0  0  0  0  0  0  0  0  0  0  0
   12.2252   10.2900   -2.3029 H   0  0  0  0  0  0  0  0  0  0  0  0
   12.6950    8.0811   -1.2329 H   0  0  0  0  0  0  0  0  0  0  0  0
   12.3334    5.9785   -2.5233 H   0  0  0  0  0  0  0  0  0  0  0  0
   11.5451    6.0442   -4.8523 H   0  0  0  0  0  0  0  0  0  0  0  0
   11.2598    5.9120   -7.2115 H   0  0  0  0  0  0  0  0  0  0  0  0
    9.8775    6.1720   -6.1345 H   0  0  0  0  0  0  0  0  0  0  0  0
    8.2841    6.1666   -7.9453 H   0  0  0  0  0  0  0  0  0  0  0  0
    9.2841    4.7340   -8.0807 H   0  0  0  0  0  0  0  0  0  0  0  0
  2  1  2  0
  3  2  1  0
  4  3  2  0
  5  4  1  0
  6  5  2  0
  7  6  1  0
  8  3  1  0
  8  7  2  0
  9  8  1  0
 10  9  2  0
 11  2  1  0
 11 10  1  0
 12 11  1  0
 13 12  1  0
 14 13  1  0
 15 14  1  0
 16 15  1  0
 17 16  1  0
 18 17  1  0
 19 18  2  0
 20 19  1  0
 21 20  1  0
 22 21  2  0
 23 22  1  0
 24 23  2  0
 25 24  1  0
 26 18  1  0
 26 21  1  0
 26 25  2  0
 27 17  1  0
 28 14  1  0
 28 27  1  0
 29  4  1  0
 30  6  1  0
 31  7  1  0
 32  9  1  0
 33 10  1  0
 34 12  1  0
 35 12  1  0
 36 13  1  0
 37 13  1  0
 38 15  1  0
 39 15  1  0
 40 16  1  0
 41 16  1  0
 42 22  1  0
 43 23  1  0
 44 24  1  0
 45 25  1  0
 46 27  1  0
 47 27  1  0
 48 28  1  0
 49 28  1  0
M  END
>  <b_m_subgroup_collapsed>  (524) 
0

>  <r_i_docking_score>  (524) 
-7.8546572705377899

>  <s_m_subgroup_title>  (524) 
glide-dock_SP_D22_pv

>  <s_m_subgroupid>  (524) 
glide-dock_SP_D22_pv

>  <Molecule ChEMBL ID>  (524) 
CHEMBL6008815

>  <Standard Type>  (524) 
Ki

>  <Standard Value>  (524) 
10000.0

>  <label>  (524) 
0

$$$$
CHEMBL3759205
     RDKit          3D

 63 66  0  0  1  0  0  0  0  0999 V2000
   11.7647    6.6009   -2.4620 C   0  0  0  0  0  0  0  0  0  0  0  0
   12.4391    7.7414   -3.2292 C   0  0  0  0  0  0  0  0  0  0  0  0
   12.7105    8.9046   -2.2562 C   0  0  0  0  0  0  0  0  0  0  0  0
   11.6908    8.1485   -4.5057 C   0  0  0  0  0  0  0  0  0  0  0  0
   11.4605    9.5088   -4.8112 C   0  0  0  0  0  0  0  0  0  0  0  0
   10.8848    9.8779   -6.0340 C   0  0  0  0  0  0  0  0  0  0  0  0
   10.4514    8.8959   -6.9451 C   0  0  0  0  0  0  0  0  0  0  0  0
   10.6348    7.5222   -6.6519 C   0  0  0  0  0  0  0  0  0  0  0  0
   10.2344    6.4943   -7.4872 O   0  0  0  0  0  0  0  0  0  0  0  0
    9.4307    6.8135   -8.6198 C   0  0  0  0  0  0  0  0  0  0  0  0
    9.1624    5.5362   -9.4392 C   0  0  0  0  0  0  0  0  0  0  0  0
    8.2775    5.7724  -10.6152 N   0  0  1  0  0  0  0  0  0  0  0  0
    8.6677    6.7809  -11.6226 C   0  0  2  0  0  0  0  0  0  0  0  0
    7.5087    6.6953  -12.6292 C   0  0  0  0  0  0  0  0  0  0  0  0
    6.9945    5.2466  -12.5048 C   0  0  0  0  0  0  0  0  0  0  0  0
    7.9114    4.6094  -11.4440 C   0  0  1  0  0  0  0  0  0  0  0  0
    9.1782    3.9754  -12.0859 C   0  0  0  0  0  0  0  0  0  0  0  0
   10.0484    4.9821  -12.8743 C   0  0  1  0  0  0  0  0  0  0  0  0
    9.6431    4.9713  -14.2864 N   0  0  0  0  0  0  0  0  0  0  0  0
   10.4822    4.0497  -15.4766 S   0  0  0  0  0  0  0  0  0  0  0  0
   11.1794    2.9532  -14.7905 O   0  0  0  0  0  0  0  0  0  0  0  0
    9.5302    3.7746  -16.5603 O   0  0  0  0  0  0  0  0  0  0  0  0
   11.6871    5.2257  -16.0757 C   0  0  0  0  0  0  0  0  0  0  0  0
   12.9358    5.3394  -15.4380 C   0  0  0  0  0  0  0  0  0  0  0  0
   13.8854    6.2597  -15.9280 C   0  0  0  0  0  0  0  0  0  0  0  0
   13.5776    7.0625  -17.0455 C   0  0  0  0  0  0  0  0  0  0  0  0
   14.4861    7.9460  -17.5158 F   0  0  0  0  0  0  0  0  0  0  0  0
   12.3261    6.9457  -17.6784 C   0  0  0  0  0  0  0  0  0  0  0  0
   11.3765    6.0247  -17.1942 C   0  0  0  0  0  0  0  0  0  0  0  0
   10.0267    6.4136  -12.2794 C   0  0  0  0  0  0  0  0  0  0  0  0
   11.2801    7.1702   -5.4443 C   0  0  0  0  0  0  0  0  0  0  0  0
   11.5241    5.7731   -3.1162 H   0  0  0  0  0  0  0  0  0  0  0  0
   12.4305    6.2087   -1.6928 H   0  0  0  0  0  0  0  0  0  0  0  0
   10.8463    6.9246   -1.9794 H   0  0  0  0  0  0  0  0  0  0  0  0
   13.4046    7.3722   -3.5714 H   0  0  0  0  0  0  0  0  0  0  0  0
   13.2858    9.6948   -2.7361 H   0  0  0  0  0  0  0  0  0  0  0  0
   11.7828    9.3444   -1.8887 H   0  0  0  0  0  0  0  0  0  0  0  0
   13.2773    8.5721   -1.3888 H   0  0  0  0  0  0  0  0  0  0  0  0
   11.7320   10.3001   -4.1330 H   0  0  0  0  0  0  0  0  0  0  0  0
   10.7412   10.9245   -6.2521 H   0  0  0  0  0  0  0  0  0  0  0  0
    9.9762    9.2295   -7.8568 H   0  0  0  0  0  0  0  0  0  0  0  0
    8.4886    7.2602   -8.2954 H   0  0  0  0  0  0  0  0  0  0  0  0
    9.9549    7.5332   -9.2479 H   0  0  0  0  0  0  0  0  0  0  0  0
   10.1089    5.0977   -9.7423 H   0  0  0  0  0  0  0  0  0  0  0  0
    8.6766    4.8020   -8.7947 H   0  0  0  0  0  0  0  0  0  0  0  0
    8.7169    7.7777  -11.1893 H   0  0  0  0  0  0  0  0  0  0  0  0
    7.8154    6.9612  -13.6343 H   0  0  0  0  0  0  0  0  0  0  0  0
    6.7151    7.3896  -12.3531 H   0  0  0  0  0  0  0  0  0  0  0  0
    7.0040    4.7040  -13.4517 H   0  0  0  0  0  0  0  0  0  0  0  0
    5.9621    5.2560  -12.1482 H   0  0  0  0  0  0  0  0  0  0  0  0
    7.3625    3.8687  -10.8607 H   0  0  0  0  0  0  0  0  0  0  0  0
    9.7928    3.5168  -11.3132 H   0  0  0  0  0  0  0  0  0  0  0  0
    8.8920    3.1512  -12.7414 H   0  0  0  0  0  0  0  0  0  0  0  0
   11.0801    4.6334  -12.8476 H   0  0  0  0  0  0  0  0  0  0  0  0
    9.1536    5.7933  -14.6361 H   0  0  0  0  0  0  0  0  0  0  0  0
   13.1677    4.7259  -14.5792 H   0  0  0  0  0  0  0  0  0  0  0  0
   14.8467    6.3489  -15.4479 H   0  0  0  0  0  0  0  0  0  0  0  0
   12.0946    7.5703  -18.5293 H   0  0  0  0  0  0  0  0  0  0  0  0
   10.4163    5.9370  -17.6809 H   0  0  0  0  0  0  0  0  0  0  0  0
   10.3145    7.1311  -13.0465 H   0  0  0  0  0  0  0  0  0  0  0  0
   10.8078    6.5193  -11.5277 H   0  0  0  0  0  0  0  0  0  0  0  0
   11.4556    6.1223   -5.2501 H   0  0  0  0  0  0  0  0  0  0  0  0
    7.4032    6.1348  -10.2438 H   0  0  0  0  0  0  0  0  0  0  0  0
  2  1  1  0
  3  2  1  0
  4  2  1  0
  5  4  2  0
  6  5  1  0
  7  6  2  0
  8  7  1  0
  9  8  1  0
 10  9  1  0
 11 10  1  0
 12 11  1  0
 13 12  1  0
 14 13  1  0
 15 14  1  0
 16 12  1  0
 16 15  1  0
 17 16  1  0
 18 17  1  0
 19 18  1  0
 20 19  1  0
 21 20  2  0
 22 20  2  0
 23 20  1  0
 24 23  1  0
 25 24  2  0
 26 25  1  0
 27 26  1  0
 28 26  2  0
 29 23  2  0
 29 28  1  0
 30 13  1  0
 30 18  1  0
 31  4  1  0
 31  8  2  0
 32  1  1  0
 33  1  1  0
 34  1  1  0
 35  2  1  0
 36  3  1  0
 37  3  1  0
 38  3  1  0
 39  5  1  0
 40  6  1  0
 41  7  1  0
 42 10  1  0
 43 10  1  0
 44 11  1  0
 45 11  1  0
 13 46  1  1
 47 14  1  0
 48 14  1  0
 49 15  1  0
 50 15  1  0
 16 51  1  1
 52 17  1  0
 53 17  1  0
 18 54  1  6
 55 19  1  0
 56 24  1  0
 57 25  1  0
 58 28  1  0
 59 29  1  0
 60 30  1  0
 61 30  1  0
 62 31  1  0
 12 63  1  1
M  CHG  1  12   1
M  END
>  <b_m_subgroup_collapsed>  (525) 
0

>  <r_i_docking_score>  (525) 
-7.8537288378517296

>  <s_m_subgroup_title>  (525) 
glide-dock_SP_D22_pv

>  <s_m_subgroupid>  (525) 
glide-dock_SP_D22_pv

>  <Molecule ChEMBL ID>  (525) 
CHEMBL3759205

>  <Standard Type>  (525) 
Ki

>  <Standard Value>  (525) 
60.0

>  <label>  (525) 
1

$$$$
CHEMBL5266180
     RDKit          3D

 62 66  0  0  1  0  0  0  0  0999 V2000
    8.4983    2.5344  -15.3994 C   0  0  0  0  0  0  0  0  0  0  0  0
    9.3178    2.5250  -14.0907 C   0  0  1  0  0  0  0  0  0  0  0  0
   10.7692    2.0945  -14.3791 C   0  0  0  0  0  0  0  0  0  0  0  0
   11.4581    3.1233  -15.0853 O   0  0  0  0  0  0  0  0  0  0  0  0
   11.5011    4.3683  -14.3860 C   0  0  1  0  0  0  0  0  0  0  0  0
   12.1918    5.4572  -15.1925 C   0  0  0  0  0  0  0  0  0  0  0  0
   12.3557    6.7514  -14.6525 C   0  0  0  0  0  0  0  0  0  0  0  0
   12.8860    7.7676  -15.4674 C   0  0  0  0  0  0  0  0  0  0  0  0
   13.2562    7.4435  -16.7876 C   0  0  0  0  0  0  0  0  0  0  0  0
   13.7336    8.4248  -17.6439 N   0  0  0  0  0  0  0  0  0  0  0  0
   13.1518    6.2030  -17.2982 N   0  0  0  0  0  0  0  0  0  0  0  0
   12.6262    5.2346  -16.5167 C   0  0  0  0  0  0  0  0  0  0  0  0
   10.0636    4.8018  -14.0444 C   0  0  0  0  0  0  0  0  0  0  0  0
    9.3016    3.7774  -13.3292 N   0  0  0  0  0  0  0  0  0  0  0  0
    7.9510    4.2290  -12.9629 C   0  0  0  0  0  0  0  0  0  0  0  0
    7.8175    4.9203  -11.5917 C   0  0  0  0  0  0  0  0  0  0  0  0
    8.6666    6.0829  -11.4219 N   0  0  0  0  0  0  0  0  0  0  0  0
    9.6850    6.2670  -10.5114 C   0  0  0  0  0  0  0  0  0  0  0  0
   10.1384    7.5224  -10.7946 C   0  0  0  0  0  0  0  0  0  0  0  0
   11.2478    8.3139  -10.1636 C   0  0  0  0  0  0  0  0  0  0  0  0
   11.3751    8.1476   -8.7190 N   0  0  0  0  0  0  0  0  0  0  0  0
   10.4758    8.5657   -7.8180 C   0  0  0  0  0  0  0  0  0  0  0  0
    9.3527    8.9735   -8.1027 O   0  0  0  0  0  0  0  0  0  0  0  0
   10.9606    8.5989   -6.4328 C   0  0  0  0  0  0  0  0  0  0  0  0
   11.1848    9.6304   -5.5543 C   0  0  0  0  0  0  0  0  0  0  0  0
   11.6683    9.0430   -4.3327 C   0  0  0  0  0  0  0  0  0  0  0  0
   12.0857    9.5372   -3.0743 C   0  0  0  0  0  0  0  0  0  0  0  0
   12.4862    8.6710   -2.0403 C   0  0  0  0  0  0  0  0  0  0  0  0
   12.4849    7.2807   -2.2468 C   0  0  0  0  0  0  0  0  0  0  0  0
   12.0856    6.7607   -3.4845 C   0  0  0  0  0  0  0  0  0  0  0  0
   11.6862    7.6305   -4.5096 C   0  0  0  0  0  0  0  0  0  0  0  0
   11.2510    7.4043   -5.7996 N   0  0  0  0  0  0  0  0  0  0  0  0
    9.3848    8.0422  -11.8459 N   0  0  0  0  0  0  0  0  0  0  0  0
    8.4863    7.1770  -12.1986 N   0  0  0  0  0  0  0  0  0  0  0  0
    8.5402    1.5609  -15.8836 H   0  0  0  0  0  0  0  0  0  0  0  0
    7.4467    2.7508  -15.2212 H   0  0  0  0  0  0  0  0  0  0  0  0
    8.8824    3.2621  -16.1129 H   0  0  0  0  0  0  0  0  0  0  0  0
    8.8860    1.7527  -13.4518 H   0  0  0  0  0  0  0  0  0  0  0  0
   10.7938    1.1771  -14.9684 H   0  0  0  0  0  0  0  0  0  0  0  0
   11.2904    1.8780  -13.4490 H   0  0  0  0  0  0  0  0  0  0  0  0
   12.0671    4.2278  -13.4626 H   0  0  0  0  0  0  0  0  0  0  0  0
   12.0431    6.9752  -13.6425 H   0  0  0  0  0  0  0  0  0  0  0  0
   12.9859    8.7729  -15.0922 H   0  0  0  0  0  0  0  0  0  0  0  0
   13.4930    9.3906  -17.4576 H   0  0  0  0  0  0  0  0  0  0  0  0
   13.8068    8.2005  -18.6272 H   0  0  0  0  0  0  0  0  0  0  0  0
   12.5252    4.2657  -16.9844 H   0  0  0  0  0  0  0  0  0  0  0  0
   10.1240    5.7037  -13.4479 H   0  0  0  0  0  0  0  0  0  0  0  0
    9.5402    5.0807  -14.9618 H   0  0  0  0  0  0  0  0  0  0  0  0
    7.5510    4.8728  -13.7478 H   0  0  0  0  0  0  0  0  0  0  0  0
    7.2780    3.3725  -12.9333 H   0  0  0  0  0  0  0  0  0  0  0  0
    6.7846    5.2331  -11.4421 H   0  0  0  0  0  0  0  0  0  0  0  0
    8.0399    4.2102  -10.7934 H   0  0  0  0  0  0  0  0  0  0  0  0
    9.9768    5.5267   -9.7828 H   0  0  0  0  0  0  0  0  0  0  0  0
   12.1983    8.0371  -10.6202 H   0  0  0  0  0  0  0  0  0  0  0  0
   11.1176    9.3724  -10.3764 H   0  0  0  0  0  0  0  0  0  0  0  0
   12.2761    7.8560   -8.3712 H   0  0  0  0  0  0  0  0  0  0  0  0
   11.0452   10.6831   -5.7478 H   0  0  0  0  0  0  0  0  0  0  0  0
   12.0859   10.5990   -2.8892 H   0  0  0  0  0  0  0  0  0  0  0  0
   12.7958    9.0807   -1.0907 H   0  0  0  0  0  0  0  0  0  0  0  0
   12.7948    6.6117   -1.4572 H   0  0  0  0  0  0  0  0  0  0  0  0
   12.0849    5.6995   -3.6515 H   0  0  0  0  0  0  0  0  0  0  0  0
   11.1151    6.5038   -6.2343 H   0  0  0  0  0  0  0  0  0  0  0  0
  2  1  1  0
  3  2  1  0
  4  3  1  0
  5  4  1  0
  6  5  1  0
  7  6  2  0
  8  7  1  0
  9  8  2  0
 10  9  1  0
 11  9  1  0
 12  6  1  0
 12 11  2  0
 13  5  1  0
 14  2  1  0
 14 13  1  0
 15 14  1  0
 16 15  1  0
 17 16  1  0
 18 17  1  0
 19 18  2  0
 20 19  1  0
 21 20  1  0
 22 21  1  0
 23 22  2  0
 24 22  1  0
 25 24  2  0
 26 25  1  0
 27 26  2  0
 28 27  1  0
 29 28  2  0
 30 29  1  0
 31 26  1  0
 31 30  2  0
 32 24  1  0
 32 31  1  0
 33 19  1  0
 34 17  1  0
 34 33  2  0
 35  1  1  0
 36  1  1  0
 37  1  1  0
  2 38  1  1
 39  3  1  0
 40  3  1  0
  5 41  1  1
 42  7  1  0
 43  8  1  0
 44 10  1  0
 45 10  1  0
 46 12  1  0
 47 13  1  0
 48 13  1  0
 49 15  1  0
 50 15  1  0
 51 16  1  0
 52 16  1  0
 53 18  1  0
 54 20  1  0
 55 20  1  0
 56 21  1  0
 57 25  1  0
 58 27  1  0
 59 28  1  0
 60 29  1  0
 61 30  1  0
 62 32  1  0
M  END
>  <b_m_subgroup_collapsed>  (526) 
0

>  <r_i_docking_score>  (526) 
-7.8488854528143204

>  <s_m_subgroup_title>  (526) 
glide-dock_SP_D22_pv

>  <s_m_subgroupid>  (526) 
glide-dock_SP_D22_pv

>  <Molecule ChEMBL ID>  (526) 
CHEMBL5266180

>  <Standard Type>  (526) 
Ki

>  <Standard Value>  (526) 
13500.0

>  <label>  (526) 
0

$$$$
CHEMBL3290021
     RDKit          3D

 59 63  0  0  1  0  0  0  0  0999 V2000
   10.3535    2.2820  -16.5682 O   0  0  0  0  0  0  0  0  0  0  0  0
   10.5868    3.3035  -15.5335 S   0  0  0  0  0  0  0  0  0  0  0  0
   11.3300    2.9682  -14.3079 O   0  0  0  0  0  0  0  0  0  0  0  0
    9.0441    3.9009  -15.0427 N   0  0  0  0  0  0  0  0  0  0  0  0
    8.9729    4.8319  -13.9149 C   0  0  0  0  0  0  0  0  0  0  0  0
    8.7968    4.0644  -12.5937 C   0  0  0  0  0  0  0  0  0  0  0  0
    9.2932    4.8469  -11.3731 C   0  0  0  0  0  0  0  0  0  0  0  0
    8.3800    6.0160  -10.9593 C   0  0  0  0  0  0  0  0  0  0  0  0
    8.8863    6.7931   -9.7979 N   0  0  2  0  0  0  0  0  0  0  0  0
   10.2463    7.3675  -10.0049 C   0  0  0  0  0  0  0  0  0  0  0  0
   10.6550    8.3012   -8.8613 C   0  0  0  0  0  0  0  0  0  0  0  0
   10.5479    7.5949   -7.4899 C   0  0  1  0  0  0  0  0  0  0  0  0
   10.9687    8.4900   -6.3480 C   0  0  0  0  0  0  0  0  0  0  0  0
   10.8829    9.8141   -6.4530 N   0  0  0  0  0  0  0  0  0  0  0  0
   11.2846   10.3832   -5.2173 O   0  0  0  0  0  0  0  0  0  0  0  0
   11.6334    9.3715   -4.3441 C   0  0  0  0  0  0  0  0  0  0  0  0
   12.0908    9.4044   -3.0241 C   0  0  0  0  0  0  0  0  0  0  0  0
   12.3829    8.1805   -2.3969 C   0  0  0  0  0  0  0  0  0  0  0  0
   12.8848    8.1725   -1.1409 F   0  0  0  0  0  0  0  0  0  0  0  0
   12.1629    6.9623   -3.0795 C   0  0  0  0  0  0  0  0  0  0  0  0
   11.6860    6.9515   -4.4111 C   0  0  0  0  0  0  0  0  0  0  0  0
   11.4303    8.1844   -5.0502 C   0  0  0  0  0  0  0  0  0  0  0  0
    9.1144    7.0613   -7.3228 C   0  0  0  0  0  0  0  0  0  0  0  0
    8.7433    6.1124   -8.4839 C   0  0  0  0  0  0  0  0  0  0  0  0
   11.3542    4.7420  -16.2862 C   0  0  0  0  0  0  0  0  0  0  0  0
   12.5203    5.2710  -15.6922 C   0  0  0  0  0  0  0  0  0  0  0  0
   13.1500    6.3972  -16.2521 C   0  0  0  0  0  0  0  0  0  0  0  0
   12.6251    6.9902  -17.4147 C   0  0  0  0  0  0  0  0  0  0  0  0
   11.4612    6.4600  -18.0051 C   0  0  0  0  0  0  0  0  0  0  0  0
   10.6152    7.0236  -19.4474 S   0  0  0  0  0  0  0  0  0  0  0  0
    9.4368    5.7392  -19.1828 C   0  0  0  0  0  0  0  0  0  0  0  0
    9.6383    4.9283  -18.1405 N   0  0  0  0  0  0  0  0  0  0  0  0
   10.7886    5.3239  -17.4534 C   0  0  0  0  0  0  0  0  0  0  0  0
    8.3833    3.1310  -14.9422 H   0  0  0  0  0  0  0  0  0  0  0  0
    9.8838    5.4359  -13.9030 H   0  0  0  0  0  0  0  0  0  0  0  0
    8.1385    5.5202  -14.0673 H   0  0  0  0  0  0  0  0  0  0  0  0
    7.7545    3.7727  -12.4636 H   0  0  0  0  0  0  0  0  0  0  0  0
    9.3678    3.1352  -12.6360 H   0  0  0  0  0  0  0  0  0  0  0  0
    9.4083    4.1719  -10.5286 H   0  0  0  0  0  0  0  0  0  0  0  0
   10.2901    5.2103  -11.6164 H   0  0  0  0  0  0  0  0  0  0  0  0
    8.2603    6.7052  -11.7957 H   0  0  0  0  0  0  0  0  0  0  0  0
    7.3778    5.6465  -10.7313 H   0  0  0  0  0  0  0  0  0  0  0  0
   10.9876    6.5723  -10.0670 H   0  0  0  0  0  0  0  0  0  0  0  0
   10.2778    7.9069  -10.9523 H   0  0  0  0  0  0  0  0  0  0  0  0
   11.6721    8.6558   -9.0228 H   0  0  0  0  0  0  0  0  0  0  0  0
   10.0095    9.1825   -8.8838 H   0  0  0  0  0  0  0  0  0  0  0  0
   11.2241    6.7382   -7.5024 H   0  0  0  0  0  0  0  0  0  0  0  0
   12.2344   10.3456   -2.5151 H   0  0  0  0  0  0  0  0  0  0  0  0
   12.3754    6.0271   -2.5812 H   0  0  0  0  0  0  0  0  0  0  0  0
   11.5183    6.0161   -4.9262 H   0  0  0  0  0  0  0  0  0  0  0  0
    9.0238    6.5291   -6.3735 H   0  0  0  0  0  0  0  0  0  0  0  0
    8.4080    7.8930   -7.2736 H   0  0  0  0  0  0  0  0  0  0  0  0
    7.7157    5.7723   -8.3571 H   0  0  0  0  0  0  0  0  0  0  0  0
    9.3755    5.2246   -8.4542 H   0  0  0  0  0  0  0  0  0  0  0  0
   12.9385    4.8185  -14.8058 H   0  0  0  0  0  0  0  0  0  0  0  0
   14.0383    6.8031  -15.7897 H   0  0  0  0  0  0  0  0  0  0  0  0
   13.0982    7.8606  -17.8480 H   0  0  0  0  0  0  0  0  0  0  0  0
    8.5791    5.5743  -19.8183 H   0  0  0  0  0  0  0  0  0  0  0  0
    8.2248    7.5670   -9.7602 H   0  0  0  0  0  0  0  0  0  0  0  0
  2  1  2  0
  3  2  2  0
  4  2  1  0
  5  4  1  0
  6  5  1  0
  7  6  1  0
  8  7  1  0
  9  8  1  0
 10  9  1  0
 11 10  1  0
 12 11  1  0
 13 12  1  0
 14 13  2  0
 15 14  1  0
 16 15  1  0
 17 16  2  0
 18 17  1  0
 19 18  1  0
 20 18  2  0
 21 20  1  0
 22 13  1  0
 22 16  1  0
 22 21  2  0
 23 12  1  0
 24  9  1  0
 24 23  1  0
 25  2  1  0
 26 25  1  0
 27 26  2  0
 28 27  1  0
 29 28  2  0
 30 29  1  0
 31 30  1  0
 32 31  2  0
 33 25  2  0
 33 29  1  0
 33 32  1  0
 34  4  1  0
 35  5  1  0
 36  5  1  0
 37  6  1  0
 38  6  1  0
 39  7  1  0
 40  7  1  0
 41  8  1  0
 42  8  1  0
 43 10  1  0
 44 10  1  0
 45 11  1  0
 46 11  1  0
 12 47  1  6
 48 17  1  0
 49 20  1  0
 50 21  1  0
 51 23  1  0
 52 23  1  0
 53 24  1  0
 54 24  1  0
 55 26  1  0
 56 27  1  0
 57 28  1  0
 58 31  1  0
  9 59  1  1
M  CHG  1   9   1
M  END
>  <b_m_subgroup_collapsed>  (527) 
0

>  <r_i_docking_score>  (527) 
-7.8470177959759901

>  <s_m_subgroup_title>  (527) 
glide-dock_SP_D22_pv

>  <s_m_subgroupid>  (527) 
glide-dock_SP_D22_pv

>  <Molecule ChEMBL ID>  (527) 
CHEMBL3290021

>  <Standard Type>  (527) 
Ki

>  <Standard Value>  (527) 
25.0

>  <label>  (527) 
1

$$$$
CHEMBL3758920
     RDKit          3D

 59 62  0  0  1  0  0  0  0  0999 V2000
   10.1789    1.9617  -14.7931 O   0  0  0  0  0  0  0  0  0  0  0  0
    8.9708    2.1381  -14.6435 C   0  0  0  0  0  0  0  0  0  0  0  0
    8.4235    3.1867  -14.0190 N   0  0  0  0  0  0  0  0  0  0  0  0
    9.0876    4.2118  -13.2380 C   0  0  0  0  0  0  0  0  0  0  0  0
    8.1750    5.4509  -13.1827 C   0  0  0  0  0  0  0  0  0  0  0  0
    8.0900    6.1137  -11.8055 C   0  0  0  0  0  0  0  0  0  0  0  0
    9.3856    6.8056  -11.3506 C   0  0  0  0  0  0  0  0  0  0  0  0
    9.2860    7.3461   -9.9705 N   0  0  0  0  0  0  0  0  0  0  0  0
   10.2911    8.4169   -9.7276 C   0  0  0  0  0  0  0  0  0  0  0  0
   10.2266    8.9732   -8.2950 C   0  0  0  0  0  0  0  0  0  0  0  0
   10.2938    7.8808   -7.3374 N   0  0  0  0  0  0  0  0  0  0  0  0
   10.8173    8.0832   -6.0474 C   0  0  0  0  0  0  0  0  0  0  0  0
   10.8973    9.3699   -5.4620 C   0  0  0  0  0  0  0  0  0  0  0  0
   11.4220    9.5296   -4.1640 C   0  0  0  0  0  0  0  0  0  0  0  0
   11.8726    8.4081   -3.4421 C   0  0  0  0  0  0  0  0  0  0  0  0
   12.4860    8.5838   -1.8466 Cl  0  0  0  0  0  0  0  0  0  0  0  0
   11.8005    7.1279   -4.0138 C   0  0  0  0  0  0  0  0  0  0  0  0
   11.2843    6.9715   -5.3107 C   0  0  0  0  0  0  0  0  0  0  0  0
    9.2636    6.8618   -7.5052 C   0  0  0  0  0  0  0  0  0  0  0  0
    9.3211    6.2812   -8.9272 C   0  0  0  0  0  0  0  0  0  0  0  0
    7.9434    1.1954  -15.1922 C   0  0  0  0  0  0  0  0  0  0  0  0
    8.1115    0.6034  -16.4624 C   0  0  0  0  0  0  0  0  0  0  0  0
    7.0963   -0.2122  -17.0039 C   0  0  0  0  0  0  0  0  0  0  0  0
    5.9120   -0.4468  -16.2739 C   0  0  0  0  0  0  0  0  0  0  0  0
    4.8730   -1.2248  -16.8218 C   0  0  0  0  0  0  0  0  0  0  0  0
    3.6869   -1.4276  -16.0908 C   0  0  0  0  0  0  0  0  0  0  0  0
    3.5354   -0.8713  -14.8067 C   0  0  0  0  0  0  0  0  0  0  0  0
    4.5772   -0.1117  -14.2459 C   0  0  0  0  0  0  0  0  0  0  0  0
    5.7600    0.1087  -14.9803 C   0  0  0  0  0  0  0  0  0  0  0  0
    6.7799    0.9104  -14.4405 C   0  0  0  0  0  0  0  0  0  0  0  0
    7.4152    3.2161  -14.0168 H   0  0  0  0  0  0  0  0  0  0  0  0
   10.0625    4.4641  -13.6588 H   0  0  0  0  0  0  0  0  0  0  0  0
    9.2622    3.8052  -12.2402 H   0  0  0  0  0  0  0  0  0  0  0  0
    7.1538    5.1725  -13.4480 H   0  0  0  0  0  0  0  0  0  0  0  0
    8.4857    6.1722  -13.9367 H   0  0  0  0  0  0  0  0  0  0  0  0
    7.7608    5.3638  -11.0873 H   0  0  0  0  0  0  0  0  0  0  0  0
    7.2922    6.8542  -11.8472 H   0  0  0  0  0  0  0  0  0  0  0  0
    9.5903    7.6215  -12.0458 H   0  0  0  0  0  0  0  0  0  0  0  0
   10.2378    6.1295  -11.4158 H   0  0  0  0  0  0  0  0  0  0  0  0
   10.1443    9.2295  -10.4363 H   0  0  0  0  0  0  0  0  0  0  0  0
   11.2892    8.0149   -9.9118 H   0  0  0  0  0  0  0  0  0  0  0  0
    9.2926    9.5160   -8.1427 H   0  0  0  0  0  0  0  0  0  0  0  0
   11.0478    9.6754   -8.1430 H   0  0  0  0  0  0  0  0  0  0  0  0
   10.5435   10.2442   -5.9872 H   0  0  0  0  0  0  0  0  0  0  0  0
   11.4634   10.5106   -3.7139 H   0  0  0  0  0  0  0  0  0  0  0  0
   12.1412    6.2643   -3.4607 H   0  0  0  0  0  0  0  0  0  0  0  0
   11.2608    5.9806   -5.7375 H   0  0  0  0  0  0  0  0  0  0  0  0
    9.3497    6.0562   -6.7775 H   0  0  0  0  0  0  0  0  0  0  0  0
    8.2917    7.3247   -7.3280 H   0  0  0  0  0  0  0  0  0  0  0  0
    8.4848    5.5932   -9.0504 H   0  0  0  0  0  0  0  0  0  0  0  0
   10.2344    5.6935   -9.0399 H   0  0  0  0  0  0  0  0  0  0  0  0
    9.0055    0.7968  -17.0375 H   0  0  0  0  0  0  0  0  0  0  0  0
    7.2246   -0.6445  -17.9855 H   0  0  0  0  0  0  0  0  0  0  0  0
    4.9746   -1.6631  -17.8038 H   0  0  0  0  0  0  0  0  0  0  0  0
    2.8936   -2.0242  -16.5147 H   0  0  0  0  0  0  0  0  0  0  0  0
    2.6198   -1.0262  -14.2543 H   0  0  0  0  0  0  0  0  0  0  0  0
    4.4553    0.3232  -13.2651 H   0  0  0  0  0  0  0  0  0  0  0  0
    6.6465    1.3308  -13.4538 H   0  0  0  0  0  0  0  0  0  0  0  0
    8.3611    7.7695   -9.8997 H   0  0  0  0  0  0  0  0  0  0  0  0
  2  1  2  0
  3  2  1  0
  4  3  1  0
  5  4  1  0
  6  5  1  0
  7  6  1  0
  8  7  1  0
  9  8  1  0
 10  9  1  0
 11 10  1  0
 12 11  1  0
 13 12  1  0
 14 13  2  0
 15 14  1  0
 16 15  1  0
 17 15  2  0
 18 12  2  0
 18 17  1  0
 19 11  1  0
 20  8  1  0
 20 19  1  0
 21  2  1  0
 22 21  1  0
 23 22  2  0
 24 23  1  0
 25 24  2  0
 26 25  1  0
 27 26  2  0
 28 27  1  0
 29 24  1  0
 29 28  2  0
 30 21  2  0
 30 29  1  0
 31  3  1  0
 32  4  1  0
 33  4  1  0
 34  5  1  0
 35  5  1  0
 36  6  1  0
 37  6  1  0
 38  7  1  0
 39  7  1  0
 40  9  1  0
 41  9  1  0
 42 10  1  0
 43 10  1  0
 44 13  1  0
 45 14  1  0
 46 17  1  0
 47 18  1  0
 48 19  1  0
 49 19  1  0
 50 20  1  0
 51 20  1  0
 52 22  1  0
 53 23  1  0
 54 25  1  0
 55 26  1  0
 56 27  1  0
 57 28  1  0
 58 30  1  0
 59  8  1  0
M  CHG  1   8   1
M  END
>  <b_m_subgroup_collapsed>  (528) 
0

>  <r_i_docking_score>  (528) 
-7.8426460900509998

>  <s_m_subgroup_title>  (528) 
glide-dock_SP_D22_pv

>  <s_m_subgroupid>  (528) 
glide-dock_SP_D22_pv

>  <Molecule ChEMBL ID>  (528) 
CHEMBL3758920

>  <Standard Type>  (528) 
Ki

>  <Standard Value>  (528) 
12143.0

>  <label>  (528) 
0

$$$$
CHEMBL4451063
     RDKit          3D

 61 65  0  0  1  0  0  0  0  0999 V2000
   11.6328    3.8614  -14.4981 C   0  0  0  0  0  0  0  0  0  0  0  0
   10.3002    3.1730  -14.8604 C   0  0  1  0  0  0  0  0  0  0  0  0
   10.5032    1.6458  -14.9798 C   0  0  0  0  0  0  0  0  0  0  0  0
    9.2888    1.0135  -15.3615 O   0  0  0  0  0  0  0  0  0  0  0  0
    8.2776    1.1795  -14.3767 C   0  0  2  0  0  0  0  0  0  0  0  0
    6.9847    0.4595  -14.7200 C   0  0  0  0  0  0  0  0  0  0  0  0
    6.7194   -0.0284  -16.0161 C   0  0  0  0  0  0  0  0  0  0  0  0
    5.4716   -0.6259  -16.2745 C   0  0  0  0  0  0  0  0  0  0  0  0
    4.5314   -0.6996  -15.2306 C   0  0  0  0  0  0  0  0  0  0  0  0
    3.2865   -1.2694  -15.4502 N   0  0  0  0  0  0  0  0  0  0  0  0
    4.7645   -0.2279  -13.9884 N   0  0  0  0  0  0  0  0  0  0  0  0
    5.9733    0.3199  -13.7447 C   0  0  0  0  0  0  0  0  0  0  0  0
    7.9928    2.6844  -14.2232 C   0  0  0  0  0  0  0  0  0  0  0  0
    9.2045    3.4825  -13.8915 N   0  0  2  0  0  0  0  0  0  0  0  0
    8.8962    4.9432  -13.7968 C   0  0  0  0  0  0  0  0  0  0  0  0
    7.9274    5.3086  -12.6725 C   0  0  2  0  0  0  0  0  0  0  0  0
    7.5601    6.7548  -12.4707 C   0  0  0  0  0  0  0  0  0  0  0  0
    8.3401    6.0337  -11.3959 C   0  0  2  0  0  0  0  0  0  0  0  0
    9.7757    6.4360  -11.1082 C   0  0  0  0  0  0  0  0  0  0  0  0
   10.0844    6.6692   -9.7033 N   0  0  0  0  0  0  0  0  0  0  0  0
   10.1329    7.8675   -9.1021 C   0  0  0  0  0  0  0  0  0  0  0  0
    9.8943    8.9293   -9.6766 O   0  0  0  0  0  0  0  0  0  0  0  0
   10.5484    7.8461   -7.6828 C   0  0  0  0  0  0  0  0  0  0  0  0
   10.8712    6.8389   -6.8072 C   0  0  0  0  0  0  0  0  0  0  0  0
   11.2436    7.4613   -5.5650 C   0  0  0  0  0  0  0  0  0  0  0  0
   11.6866    6.9944   -4.3029 C   0  0  0  0  0  0  0  0  0  0  0  0
   12.0139    7.8919   -3.2644 C   0  0  0  0  0  0  0  0  0  0  0  0
   11.8704    9.2813   -3.4543 C   0  0  0  0  0  0  0  0  0  0  0  0
   11.4072    9.7723   -4.6889 C   0  0  0  0  0  0  0  0  0  0  0  0
   11.1147    8.8703   -5.7267 C   0  0  0  0  0  0  0  0  0  0  0  0
   10.6803    9.0557   -7.0210 N   0  0  0  0  0  0  0  0  0  0  0  0
   12.4605    3.4572  -15.0852 H   0  0  0  0  0  0  0  0  0  0  0  0
   11.6122    4.9298  -14.7124 H   0  0  0  0  0  0  0  0  0  0  0  0
   11.8857    3.7402  -13.4474 H   0  0  0  0  0  0  0  0  0  0  0  0
    9.9960    3.5381  -15.8419 H   0  0  0  0  0  0  0  0  0  0  0  0
   10.8842    1.2216  -14.0486 H   0  0  0  0  0  0  0  0  0  0  0  0
   11.2478    1.4289  -15.7470 H   0  0  0  0  0  0  0  0  0  0  0  0
    8.6422    0.7534  -13.4468 H   0  0  0  0  0  0  0  0  0  0  0  0
    7.4513    0.0577  -16.8056 H   0  0  0  0  0  0  0  0  0  0  0  0
    5.2411   -1.0097  -17.2568 H   0  0  0  0  0  0  0  0  0  0  0  0
    3.1833   -1.9638  -16.1816 H   0  0  0  0  0  0  0  0  0  0  0  0
    2.6807   -1.4078  -14.6571 H   0  0  0  0  0  0  0  0  0  0  0  0
    6.1251    0.6873  -12.7383 H   0  0  0  0  0  0  0  0  0  0  0  0
    7.5569    3.0470  -15.1543 H   0  0  0  0  0  0  0  0  0  0  0  0
    7.2362    2.8096  -13.4504 H   0  0  0  0  0  0  0  0  0  0  0  0
    9.7990    5.5300  -13.6577 H   0  0  0  0  0  0  0  0  0  0  0  0
    8.4736    5.2818  -14.7425 H   0  0  0  0  0  0  0  0  0  0  0  0
    7.0653    4.6573  -12.5849 H   0  0  0  0  0  0  0  0  0  0  0  0
    8.0856    7.5141  -13.0461 H   0  0  0  0  0  0  0  0  0  0  0  0
    6.5176    6.9741  -12.2559 H   0  0  0  0  0  0  0  0  0  0  0  0
    7.7728    5.7614  -10.5024 H   0  0  0  0  0  0  0  0  0  0  0  0
   10.4248    5.6329  -11.4493 H   0  0  0  0  0  0  0  0  0  0  0  0
   10.0430    7.3077  -11.7107 H   0  0  0  0  0  0  0  0  0  0  0  0
   10.2893    5.8610   -9.1352 H   0  0  0  0  0  0  0  0  0  0  0  0
   10.8700    5.7761   -7.0028 H   0  0  0  0  0  0  0  0  0  0  0  0
   11.7851    5.9310   -4.1380 H   0  0  0  0  0  0  0  0  0  0  0  0
   12.3569    7.5134   -2.3121 H   0  0  0  0  0  0  0  0  0  0  0  0
   12.1094    9.9663   -2.6520 H   0  0  0  0  0  0  0  0  0  0  0  0
   11.2860   10.8344   -4.8475 H   0  0  0  0  0  0  0  0  0  0  0  0
   10.4795    9.9317   -7.4803 H   0  0  0  0  0  0  0  0  0  0  0  0
    9.5201    3.1793  -12.9824 H   0  0  0  0  0  0  0  0  0  0  0  0
  2  1  1  0
  3  2  1  0
  4  3  1  0
  5  4  1  0
  6  5  1  0
  7  6  2  0
  8  7  1  0
  9  8  2  0
 10  9  1  0
 11  9  1  0
 12  6  1  0
 12 11  2  0
 13  5  1  0
 14  2  1  0
 14 13  1  0
 15 14  1  0
 16 15  1  0
 17 16  1  0
 18 16  1  0
 18 17  1  0
 19 18  1  0
 20 19  1  0
 21 20  1  0
 22 21  2  0
 23 21  1  0
 24 23  2  0
 25 24  1  0
 26 25  2  0
 27 26  1  0
 28 27  2  0
 29 28  1  0
 30 25  1  0
 30 29  2  0
 31 23  1  0
 31 30  1  0
 32  1  1  0
 33  1  1  0
 34  1  1  0
  2 35  1  6
 36  3  1  0
 37  3  1  0
  5 38  1  1
 39  7  1  0
 40  8  1  0
 41 10  1  0
 42 10  1  0
 43 12  1  0
 44 13  1  0
 45 13  1  0
 46 15  1  0
 47 15  1  0
 16 48  1  1
 49 17  1  0
 50 17  1  0
 18 51  1  1
 52 19  1  0
 53 19  1  0
 54 20  1  0
 55 24  1  0
 56 26  1  0
 57 27  1  0
 58 28  1  0
 59 29  1  0
 60 31  1  0
 14 61  1  1
M  CHG  1  14   1
M  END
>  <b_m_subgroup_collapsed>  (529) 
0

>  <r_i_docking_score>  (529) 
-7.8419604346622203

>  <s_m_subgroup_title>  (529) 
glide-dock_SP_D22_pv

>  <s_m_subgroupid>  (529) 
glide-dock_SP_D22_pv

>  <Molecule ChEMBL ID>  (529) 
CHEMBL4451063

>  <Standard Type>  (529) 
Ki

>  <Standard Value>  (529) 
14100.0

>  <label>  (529) 
0

$$$$
CHEMBL198599
     RDKit          3D

 58 62  0  0  1  0  0  0  0  0999 V2000
   12.3528    4.1696  -15.1300 C   0  0  0  0  0  0  0  0  0  0  0  0
   10.9330    4.0955  -14.6069 C   0  0  0  0  0  0  0  0  0  0  0  0
   10.5133    4.9933  -13.6097 C   0  0  0  0  0  0  0  0  0  0  0  0
    9.1932    4.9605  -13.1163 C   0  0  0  0  0  0  0  0  0  0  0  0
    8.8214    5.9545  -12.0225 C   0  0  0  0  0  0  0  0  0  0  0  0
    9.1652    5.3995  -10.6245 C   0  0  0  0  0  0  0  0  0  0  0  0
    9.2867    6.4329   -9.5945 N   0  0  0  0  0  0  0  0  0  0  0  0
    9.3355    5.7821   -8.2802 C   0  0  0  0  0  0  0  0  0  0  0  0
    9.4662    6.8239   -7.1470 C   0  0  0  0  0  0  0  0  0  0  0  0
   10.6565    7.6450   -7.3467 N   0  0  0  0  0  0  0  0  0  0  0  0
   10.9505    8.5127   -6.2813 C   0  0  0  0  0  0  0  0  0  0  0  0
   10.8864    9.8400   -6.3587 N   0  0  0  0  0  0  0  0  0  0  0  0
   11.2859   10.3522   -5.0954 O   0  0  0  0  0  0  0  0  0  0  0  0
   11.6226    9.3076   -4.2513 C   0  0  0  0  0  0  0  0  0  0  0  0
   12.0859    9.2951   -2.9289 C   0  0  0  0  0  0  0  0  0  0  0  0
   12.3210    8.0427   -2.3269 C   0  0  0  0  0  0  0  0  0  0  0  0
   12.1026    6.8489   -3.0554 C   0  0  0  0  0  0  0  0  0  0  0  0
   11.6593    6.8899   -4.3983 C   0  0  0  0  0  0  0  0  0  0  0  0
   11.4004    8.1440   -4.9935 C   0  0  0  0  0  0  0  0  0  0  0  0
   10.6396    8.2783   -8.6619 C   0  0  0  0  0  0  0  0  0  0  0  0
   10.5161    7.2187   -9.7685 C   0  0  0  0  0  0  0  0  0  0  0  0
    8.2852    4.0022  -13.6301 C   0  0  0  0  0  0  0  0  0  0  0  0
    8.7022    3.0836  -14.6304 C   0  0  0  0  0  0  0  0  0  0  0  0
   10.0282    3.1446  -15.1168 C   0  0  0  0  0  0  0  0  0  0  0  0
    7.6839    2.0850  -15.1946 C   0  0  1  0  0  0  0  0  0  0  0  0
    8.3119    0.7794  -15.7223 C   0  0  0  0  0  0  0  0  0  0  0  0
    6.5857    1.7504  -14.1650 C   0  0  0  0  0  0  0  0  0  0  0  0
    6.0860    2.9734  -13.3857 C   0  0  0  0  0  0  0  0  0  0  0  0
    4.9388    3.0000  -12.9523 O   0  0  0  0  0  0  0  0  0  0  0  0
    6.9512    3.9691  -13.1537 N   0  0  0  0  0  0  0  0  0  0  0  0
   12.5860    3.3231  -15.7756 H   0  0  0  0  0  0  0  0  0  0  0  0
   12.4943    5.0850  -15.7035 H   0  0  0  0  0  0  0  0  0  0  0  0
   13.0621    4.1730  -14.3025 H   0  0  0  0  0  0  0  0  0  0  0  0
   11.2140    5.7176  -13.2200 H   0  0  0  0  0  0  0  0  0  0  0  0
    9.3522    6.8797  -12.2378 H   0  0  0  0  0  0  0  0  0  0  0  0
    7.7650    6.2224  -12.0668 H   0  0  0  0  0  0  0  0  0  0  0  0
    8.3836    4.6902  -10.3449 H   0  0  0  0  0  0  0  0  0  0  0  0
   10.0860    4.8216  -10.6624 H   0  0  0  0  0  0  0  0  0  0  0  0
    8.4233    5.2029   -8.1295 H   0  0  0  0  0  0  0  0  0  0  0  0
   10.1708    5.0810   -8.2467 H   0  0  0  0  0  0  0  0  0  0  0  0
    8.5804    7.4625   -7.1242 H   0  0  0  0  0  0  0  0  0  0  0  0
    9.5111    6.3130   -6.1853 H   0  0  0  0  0  0  0  0  0  0  0  0
   12.2405   10.2129   -2.3841 H   0  0  0  0  0  0  0  0  0  0  0  0
   12.6683    7.9993   -1.3058 H   0  0  0  0  0  0  0  0  0  0  0  0
   12.2852    5.8923   -2.5856 H   0  0  0  0  0  0  0  0  0  0  0  0
   11.5066    5.9759   -4.9529 H   0  0  0  0  0  0  0  0  0  0  0  0
    9.8070    8.9812   -8.7265 H   0  0  0  0  0  0  0  0  0  0  0  0
   11.5569    8.8505   -8.8087 H   0  0  0  0  0  0  0  0  0  0  0  0
   11.3917    6.5723   -9.7583 H   0  0  0  0  0  0  0  0  0  0  0  0
   10.5170    7.7329  -10.7274 H   0  0  0  0  0  0  0  0  0  0  0  0
   10.3651    2.4724  -15.8901 H   0  0  0  0  0  0  0  0  0  0  0  0
    7.2004    2.5719  -16.0412 H   0  0  0  0  0  0  0  0  0  0  0  0
    8.9553    0.9523  -16.5844 H   0  0  0  0  0  0  0  0  0  0  0  0
    8.9019    0.2821  -14.9509 H   0  0  0  0  0  0  0  0  0  0  0  0
    7.5409    0.0792  -16.0462 H   0  0  0  0  0  0  0  0  0  0  0  0
    6.9779    1.0337  -13.4469 H   0  0  0  0  0  0  0  0  0  0  0  0
    5.7449    1.2516  -14.6467 H   0  0  0  0  0  0  0  0  0  0  0  0
    6.6451    4.7274  -12.5605 H   0  0  0  0  0  0  0  0  0  0  0  0
  2  1  1  0
  3  2  2  0
  4  3  1  0
  5  4  1  0
  6  5  1  0
  7  6  1  0
  8  7  1  0
  9  8  1  0
 10  9  1  0
 11 10  1  0
 12 11  2  0
 13 12  1  0
 14 13  1  0
 15 14  2  0
 16 15  1  0
 17 16  2  0
 18 17  1  0
 19 11  1  0
 19 14  1  0
 19 18  2  0
 20 10  1  0
 21  7  1  0
 21 20  1  0
 22  4  2  0
 23 22  1  0
 24  2  1  0
 24 23  2  0
 25 23  1  0
 26 25  1  0
 27 25  1  0
 28 27  1  0
 29 28  2  0
 30 22  1  0
 30 28  1  0
 31  1  1  0
 32  1  1  0
 33  1  1  0
 34  3  1  0
 35  5  1  0
 36  5  1  0
 37  6  1  0
 38  6  1  0
 39  8  1  0
 40  8  1  0
 41  9  1  0
 42  9  1  0
 43 15  1  0
 44 16  1  0
 45 17  1  0
 46 18  1  0
 47 20  1  0
 48 20  1  0
 49 21  1  0
 50 21  1  0
 51 24  1  0
 25 52  1  6
 53 26  1  0
 54 26  1  0
 55 26  1  0
 56 27  1  0
 57 27  1  0
 58 30  1  0
M  END
>  <b_m_subgroup_collapsed>  (530) 
0

>  <r_i_docking_score>  (530) 
-7.8392505901274303

>  <s_m_subgroup_title>  (530) 
glide-dock_SP_D22_pv

>  <s_m_subgroupid>  (530) 
glide-dock_SP_D22_pv

>  <Molecule ChEMBL ID>  (530) 
CHEMBL198599

>  <Standard Type>  (530) 
Ki

>  <Standard Value>  (530) 
35.0

>  <label>  (530) 
1

$$$$
CHEMBL3613878
     RDKit          3D

 51 55  0  0  1  0  0  0  0  0999 V2000
   12.0861    9.7196   -3.0476 Cl  0  0  0  0  0  0  0  0  0  0  0  0
   11.6860    8.7303   -4.3979 C   0  0  0  0  0  0  0  0  0  0  0  0
   11.6851    7.3466   -4.2151 C   0  0  0  0  0  0  0  0  0  0  0  0
   11.2868    6.5248   -5.2718 C   0  0  0  0  0  0  0  0  0  0  0  0
   10.9217    7.0411   -6.5262 C   0  0  0  0  0  0  0  0  0  0  0  0
   10.9555    8.4299   -6.7323 C   0  0  0  0  0  0  0  0  0  0  0  0
   10.6751    8.9698   -7.9970 N   0  0  0  0  0  0  0  0  0  0  0  0
   11.7812    9.0704   -8.9412 C   0  0  0  0  0  0  0  0  0  0  0  0
   11.7363    7.9677  -10.0107 C   0  0  0  0  0  0  0  0  0  0  0  0
   10.4725    8.1216  -10.7213 N   0  0  0  0  0  0  0  0  0  0  0  0
   10.4115    7.3763  -11.9825 C   0  0  0  0  0  0  0  0  0  0  0  0
   10.0419    5.8860  -11.8435 C   0  0  0  0  0  0  0  0  0  0  0  0
   10.4043    5.0568  -13.0434 C   0  0  0  0  0  0  0  0  0  0  0  0
    9.7286    4.0042  -13.5884 C   0  0  0  0  0  0  0  0  0  0  0  0
   10.6184    3.4803  -14.5095 N   0  0  0  0  0  0  0  0  0  0  0  0
   10.4710    2.3236  -15.3155 C   0  0  0  0  0  0  0  0  0  0  0  0
    9.5519    1.3084  -14.9277 C   0  0  0  0  0  0  0  0  0  0  0  0
    9.3919    0.1734  -15.6878 C   0  0  0  0  0  0  0  0  0  0  0  0
   10.1327    0.0319  -16.8179 N   0  0  0  0  0  0  0  0  0  0  0  0
   10.0853   -1.0327  -17.6776 N   0  0  0  0  0  0  0  0  0  0  0  0
   10.9588   -0.7254  -18.6097 C   0  0  0  0  0  0  0  0  0  0  0  0
   11.6115    0.5136  -18.4052 C   0  0  0  0  0  0  0  0  0  0  0  0
   11.0641    0.9971  -17.2494 C   0  0  0  0  0  0  0  0  0  0  0  0
   11.2226    2.1667  -16.4658 C   0  0  0  0  0  0  0  0  0  0  0  0
   11.7562    4.2194  -14.5516 N   0  0  0  0  0  0  0  0  0  0  0  0
   11.6491    5.1507  -13.6617 N   0  0  0  0  0  0  0  0  0  0  0  0
    9.3929    7.8077   -9.7857 C   0  0  0  0  0  0  0  0  0  0  0  0
    9.3568    8.7997   -8.6025 C   0  0  0  0  0  0  0  0  0  0  0  0
   11.3186    9.2704   -5.6508 C   0  0  0  0  0  0  0  0  0  0  0  0
   11.2860   10.9692   -5.8469 Cl  0  0  0  0  0  0  0  0  0  0  0  0
   11.9582    6.9156   -3.2627 H   0  0  0  0  0  0  0  0  0  0  0  0
   11.2862    5.4660   -5.1005 H   0  0  0  0  0  0  0  0  0  0  0  0
   10.6438    6.3706   -7.3261 H   0  0  0  0  0  0  0  0  0  0  0  0
   12.7388    9.0459   -8.4192 H   0  0  0  0  0  0  0  0  0  0  0  0
   11.6883   10.0331   -9.4462 H   0  0  0  0  0  0  0  0  0  0  0  0
   11.8222    6.9740   -9.5718 H   0  0  0  0  0  0  0  0  0  0  0  0
   12.5727    8.1018  -10.6977 H   0  0  0  0  0  0  0  0  0  0  0  0
   11.3718    7.4897  -12.4866 H   0  0  0  0  0  0  0  0  0  0  0  0
    9.6771    7.8570  -12.6291 H   0  0  0  0  0  0  0  0  0  0  0  0
    8.9668    5.8127  -11.6746 H   0  0  0  0  0  0  0  0  0  0  0  0
   10.4853    5.4634  -10.9464 H   0  0  0  0  0  0  0  0  0  0  0  0
    8.7649    3.5747  -13.3617 H   0  0  0  0  0  0  0  0  0  0  0  0
    8.9749    1.4051  -14.0140 H   0  0  0  0  0  0  0  0  0  0  0  0
    8.7015   -0.6264  -15.4414 H   0  0  0  0  0  0  0  0  0  0  0  0
   11.1141   -1.4118  -19.4281 H   0  0  0  0  0  0  0  0  0  0  0  0
   12.3642    0.9727  -19.0284 H   0  0  0  0  0  0  0  0  0  0  0  0
   11.9354    2.9172  -16.7901 H   0  0  0  0  0  0  0  0  0  0  0  0
    8.4860    7.8749  -10.3611 H   0  0  0  0  0  0  0  0  0  0  0  0
    9.4714    6.7874   -9.4098 H   0  0  0  0  0  0  0  0  0  0  0  0
    8.6287    8.4724   -7.8584 H   0  0  0  0  0  0  0  0  0  0  0  0
    9.0193    9.7717   -8.9578 H   0  0  0  0  0  0  0  0  0  0  0  0
  2  1  1  0
  3  2  1  0
  4  3  2  0
  5  4  1  0
  6  5  2  0
  7  6  1  0
  8  7  1  0
  9  8  1  0
 10  9  1  0
 11 10  1  0
 12 11  1  0
 13 12  1  0
 14 13  2  0
 15 14  1  0
 16 15  1  0
 17 16  1  0
 18 17  2  0
 19 18  1  0
 20 19  1  0
 21 20  2  0
 22 21  1  0
 23 19  1  0
 23 22  2  0
 24 16  2  0
 24 23  1  0
 25 15  1  0
 26 13  1  0
 26 25  2  0
 27 10  1  0
 28  7  1  0
 28 27  1  0
 29  2  2  0
 29  6  1  0
 30 29  1  0
 31  3  1  0
 32  4  1  0
 33  5  1  0
 34  8  1  0
 35  8  1  0
 36  9  1  0
 37  9  1  0
 38 11  1  0
 39 11  1  0
 40 12  1  0
 41 12  1  0
 42 14  1  0
 43 17  1  0
 44 18  1  0
 45 21  1  0
 46 22  1  0
 47 24  1  0
 48 27  1  0
 49 27  1  0
 50 28  1  0
 51 28  1  0
M  END
>  <b_m_subgroup_collapsed>  (531) 
0

>  <r_i_docking_score>  (531) 
-7.8385847442144998

>  <s_m_subgroup_title>  (531) 
glide-dock_SP_D22_pv

>  <s_m_subgroupid>  (531) 
glide-dock_SP_D22_pv

>  <Molecule ChEMBL ID>  (531) 
CHEMBL3613878

>  <Standard Type>  (531) 
Ki

>  <Standard Value>  (531) 
10.0

>  <label>  (531) 
1

$$$$
CHEMBL208018
     RDKit          3D

 50 53  0  0  1  0  0  0  0  0999 V2000
   11.4929    6.6819  -12.9670 C   0  0  0  0  0  0  0  0  0  0  0  0
   10.1145    6.1730  -12.6467 C   0  0  0  0  0  0  0  0  0  0  0  0
    9.6482    5.1109  -13.2799 N   0  0  0  0  0  0  0  0  0  0  0  0
    8.3815    4.9416  -12.8309 N   0  0  0  0  0  0  0  0  0  0  0  0
    7.5783    3.8581  -13.2785 C   0  0  0  0  0  0  0  0  0  0  0  0
    6.3014    3.6333  -12.7075 C   0  0  0  0  0  0  0  0  0  0  0  0
    5.5644    2.4830  -13.0470 C   0  0  0  0  0  0  0  0  0  0  0  0
    6.0864    1.5554  -13.9682 C   0  0  0  0  0  0  0  0  0  0  0  0
    7.3259    1.8013  -14.5872 C   0  0  0  0  0  0  0  0  0  0  0  0
    8.0683    2.9470  -14.2461 C   0  0  0  0  0  0  0  0  0  0  0  0
    8.0710    5.9148  -11.9005 C   0  0  0  0  0  0  0  0  0  0  0  0
    9.1626    6.7185  -11.7379 C   0  0  0  0  0  0  0  0  0  0  0  0
    9.2960    7.9219  -10.8407 C   0  0  0  0  0  0  0  0  0  0  0  0
    9.2866    7.5706   -9.3942 N   0  0  0  0  0  0  0  0  0  0  0  0
    9.2080    8.7954   -8.5553 C   0  0  0  0  0  0  0  0  0  0  0  0
    9.2516    8.4645   -7.0566 C   0  0  0  0  0  0  0  0  0  0  0  0
   10.4589    7.7087   -6.7585 N   0  0  0  0  0  0  0  0  0  0  0  0
   11.0601    7.8825   -5.4921 C   0  0  0  0  0  0  0  0  0  0  0  0
   11.2859    9.1845   -4.9818 C   0  0  0  0  0  0  0  0  0  0  0  0
   11.8417    9.3736   -3.7007 C   0  0  0  0  0  0  0  0  0  0  0  0
   12.2078    8.2679   -2.9160 C   0  0  0  0  0  0  0  0  0  0  0  0
   12.0144    6.9705   -3.4178 C   0  0  0  0  0  0  0  0  0  0  0  0
   11.4410    6.7822   -4.6901 C   0  0  0  0  0  0  0  0  0  0  0  0
   10.5381    6.4450   -7.4830 C   0  0  0  0  0  0  0  0  0  0  0  0
   10.4227    6.6805   -9.0071 C   0  0  0  0  0  0  0  0  0  0  0  0
   11.4405    7.6575  -13.4525 H   0  0  0  0  0  0  0  0  0  0  0  0
   12.0963    6.8025  -12.0649 H   0  0  0  0  0  0  0  0  0  0  0  0
   12.0260    6.0048  -13.6368 H   0  0  0  0  0  0  0  0  0  0  0  0
    5.8853    4.3041  -11.9708 H   0  0  0  0  0  0  0  0  0  0  0  0
    4.6007    2.3046  -12.5914 H   0  0  0  0  0  0  0  0  0  0  0  0
    5.5224    0.6689  -14.2228 H   0  0  0  0  0  0  0  0  0  0  0  0
    7.7163    1.0989  -15.3095 H   0  0  0  0  0  0  0  0  0  0  0  0
    9.0346    3.0948  -14.7060 H   0  0  0  0  0  0  0  0  0  0  0  0
    7.1070    5.9740  -11.4203 H   0  0  0  0  0  0  0  0  0  0  0  0
    8.4857    8.6222  -11.0443 H   0  0  0  0  0  0  0  0  0  0  0  0
   10.2107    8.4710  -11.0636 H   0  0  0  0  0  0  0  0  0  0  0  0
    8.3016    9.3593   -8.7826 H   0  0  0  0  0  0  0  0  0  0  0  0
   10.0520    9.4398   -8.8045 H   0  0  0  0  0  0  0  0  0  0  0  0
    8.3774    7.8731   -6.7769 H   0  0  0  0  0  0  0  0  0  0  0  0
    9.2052    9.3723   -6.4685 H   0  0  0  0  0  0  0  0  0  0  0  0
   11.0314   10.0578   -5.5623 H   0  0  0  0  0  0  0  0  0  0  0  0
   11.9846   10.3674   -3.3065 H   0  0  0  0  0  0  0  0  0  0  0  0
   12.6337    8.4167   -1.9339 H   0  0  0  0  0  0  0  0  0  0  0  0
   12.2910    6.1143   -2.8216 H   0  0  0  0  0  0  0  0  0  0  0  0
   11.2803    5.7724   -5.0304 H   0  0  0  0  0  0  0  0  0  0  0  0
   11.4752    5.9315   -7.2651 H   0  0  0  0  0  0  0  0  0  0  0  0
    9.7301    5.7942   -7.1430 H   0  0  0  0  0  0  0  0  0  0  0  0
   10.3380    5.7187   -9.5141 H   0  0  0  0  0  0  0  0  0  0  0  0
   11.3512    7.1355   -9.3544 H   0  0  0  0  0  0  0  0  0  0  0  0
    8.4145    7.0745   -9.2313 H   0  0  0  0  0  0  0  0  0  0  0  0
  2  1  1  0
  3  2  2  0
  4  3  1  0
  5  4  1  0
  6  5  2  0
  7  6  1  0
  8  7  2  0
  9  8  1  0
 10  5  1  0
 10  9  2  0
 11  4  1  0
 12  2  1  0
 12 11  2  0
 13 12  1  0
 14 13  1  0
 15 14  1  0
 16 15  1  0
 17 16  1  0
 18 17  1  0
 19 18  2  0
 20 19  1  0
 21 20  2  0
 22 21  1  0
 23 18  1  0
 23 22  2  0
 24 17  1  0
 25 14  1  0
 25 24  1  0
 26  1  1  0
 27  1  1  0
 28  1  1  0
 29  6  1  0
 30  7  1  0
 31  8  1  0
 32  9  1  0
 33 10  1  0
 34 11  1  0
 35 13  1  0
 36 13  1  0
 37 15  1  0
 38 15  1  0
 39 16  1  0
 40 16  1  0
 41 19  1  0
 42 20  1  0
 43 21  1  0
 44 22  1  0
 45 23  1  0
 46 24  1  0
 47 24  1  0
 48 25  1  0
 49 25  1  0
 50 14  1  0
M  CHG  1  14   1
M  END
>  <b_m_subgroup_collapsed>  (532) 
0

>  <r_i_docking_score>  (532) 
-7.8379538820201997

>  <s_m_subgroup_title>  (532) 
glide-dock_SP_D22_pv

>  <s_m_subgroupid>  (532) 
glide-dock_SP_D22_pv

>  <Molecule ChEMBL ID>  (532) 
CHEMBL208018

>  <Standard Type>  (532) 
Ki

>  <Standard Value>  (532) 
43.0

>  <label>  (532) 
1

$$$$
CHEMBL3335535
     RDKit          3D

 47 50  0  0  1  0  0  0  0  0999 V2000
   12.3207    9.1066   -2.2335 C   0  0  0  0  0  0  0  0  0  0  0  0
   11.7754    9.7705   -3.3465 C   0  0  0  0  0  0  0  0  0  0  0  0
   11.3872    9.0418   -4.4846 C   0  0  0  0  0  0  0  0  0  0  0  0
   11.5279    7.6376   -4.4968 C   0  0  0  0  0  0  0  0  0  0  0  0
   10.8826    6.7963   -5.5718 C   0  0  0  0  0  0  0  0  0  0  0  0
   11.4299    6.8667   -7.0135 C   0  0  0  0  0  0  0  0  0  0  0  0
   11.2262    8.2096   -7.7549 C   0  0  1  0  0  0  0  0  0  0  0  0
   11.2665    8.0794   -9.2942 C   0  0  0  0  0  0  0  0  0  0  0  0
   10.1745    7.2576   -9.8213 N   0  0  0  0  0  0  0  0  0  0  0  0
   10.2153    7.2004  -11.2888 C   0  0  0  0  0  0  0  0  0  0  0  0
    9.3353    6.1663  -11.9407 C   0  0  0  0  0  0  0  0  0  0  0  0
    9.8199    5.1995  -12.7229 N   0  0  0  0  0  0  0  0  0  0  0  0
    8.6786    4.5183  -13.1153 C   0  0  0  0  0  0  0  0  0  0  0  0
    8.5204    3.3939  -13.9570 C   0  0  0  0  0  0  0  0  0  0  0  0
    7.2357    2.8674  -14.2119 C   0  0  0  0  0  0  0  0  0  0  0  0
    6.0953    3.4482  -13.6167 C   0  0  0  0  0  0  0  0  0  0  0  0
    6.2272    4.5750  -12.7824 C   0  0  0  0  0  0  0  0  0  0  0  0
    7.5092    5.1004  -12.5479 C   0  0  0  0  0  0  0  0  0  0  0  0
    7.9913    6.1718  -11.8206 N   0  0  0  0  0  0  0  0  0  0  0  0
    8.8866    7.7541   -9.3332 C   0  0  0  0  0  0  0  0  0  0  0  0
    8.8466    8.0838   -7.8381 C   0  0  0  0  0  0  0  0  0  0  0  0
    9.9873    8.8207   -7.4221 O   0  0  0  0  0  0  0  0  0  0  0  0
   12.0862    6.9794   -3.3818 C   0  0  0  0  0  0  0  0  0  0  0  0
   12.4847    7.7136   -2.2540 C   0  0  0  0  0  0  0  0  0  0  0  0
   12.5986    9.6705   -1.3562 H   0  0  0  0  0  0  0  0  0  0  0  0
   11.6219   10.8363   -3.3001 H   0  0  0  0  0  0  0  0  0  0  0  0
   10.9175    9.5613   -5.3056 H   0  0  0  0  0  0  0  0  0  0  0  0
   10.9562    5.7722   -5.2426 H   0  0  0  0  0  0  0  0  0  0  0  0
    9.8187    7.0134   -5.5248 H   0  0  0  0  0  0  0  0  0  0  0  0
   12.4762    6.5703   -7.0469 H   0  0  0  0  0  0  0  0  0  0  0  0
   10.9111    6.0836   -7.5674 H   0  0  0  0  0  0  0  0  0  0  0  0
   12.0115    8.8975   -7.4403 H   0  0  0  0  0  0  0  0  0  0  0  0
   11.2164    9.0777   -9.7317 H   0  0  0  0  0  0  0  0  0  0  0  0
   12.2273    7.6622   -9.5974 H   0  0  0  0  0  0  0  0  0  0  0  0
    9.9661    8.1756  -11.7096 H   0  0  0  0  0  0  0  0  0  0  0  0
   11.2379    6.9937  -11.6073 H   0  0  0  0  0  0  0  0  0  0  0  0
    9.3927    2.9356  -14.3971 H   0  0  0  0  0  0  0  0  0  0  0  0
    7.1258    2.0044  -14.8527 H   0  0  0  0  0  0  0  0  0  0  0  0
    5.1186    3.0301  -13.8060 H   0  0  0  0  0  0  0  0  0  0  0  0
    5.3609    5.0300  -12.3248 H   0  0  0  0  0  0  0  0  0  0  0  0
    7.4513    6.8235  -11.2405 H   0  0  0  0  0  0  0  0  0  0  0  0
    8.1420    6.9720   -9.4774 H   0  0  0  0  0  0  0  0  0  0  0  0
    8.5837    8.6371   -9.8983 H   0  0  0  0  0  0  0  0  0  0  0  0
    8.7154    7.1588   -7.2828 H   0  0  0  0  0  0  0  0  0  0  0  0
    7.9837    8.6978   -7.6026 H   0  0  0  0  0  0  0  0  0  0  0  0
   12.1662    5.9017   -3.3608 H   0  0  0  0  0  0  0  0  0  0  0  0
   12.8855    7.1991   -1.3974 H   0  0  0  0  0  0  0  0  0  0  0  0
  2  1  2  0
  3  2  1  0
  4  3  2  0
  5  4  1  0
  6  5  1  0
  7  6  1  0
  8  7  1  0
  9  8  1  0
 10  9  1  0
 11 10  1  0
 12 11  2  0
 13 12  1  0
 14 13  2  0
 15 14  1  0
 16 15  2  0
 17 16  1  0
 18 13  1  0
 18 17  2  0
 19 11  1  0
 19 18  1  0
 20  9  1  0
 21 20  1  0
 22  7  1  0
 22 21  1  0
 23  4  1  0
 24  1  1  0
 24 23  2  0
 25  1  1  0
 26  2  1  0
 27  3  1  0
 28  5  1  0
 29  5  1  0
 30  6  1  0
 31  6  1  0
  7 32  1  1
 33  8  1  0
 34  8  1  0
 35 10  1  0
 36 10  1  0
 37 14  1  0
 38 15  1  0
 39 16  1  0
 40 17  1  0
 41 19  1  0
 42 20  1  0
 43 20  1  0
 44 21  1  0
 45 21  1  0
 46 23  1  0
 47 24  1  0
M  END
>  <b_m_subgroup_collapsed>  (533) 
0

>  <r_i_docking_score>  (533) 
-7.8347978746537699

>  <s_m_subgroup_title>  (533) 
glide-dock_SP_D22_pv

>  <s_m_subgroupid>  (533) 
glide-dock_SP_D22_pv

>  <Molecule ChEMBL ID>  (533) 
CHEMBL3335535

>  <Standard Type>  (533) 
Ki

>  <Standard Value>  (533) 
100000.0

>  <label>  (533) 
0

$$$$
CHEMBL3335536
     RDKit          3D

 47 50  0  0  1  0  0  0  0  0999 V2000
   12.3207    9.1066   -2.2335 C   0  0  0  0  0  0  0  0  0  0  0  0
   11.7754    9.7705   -3.3465 C   0  0  0  0  0  0  0  0  0  0  0  0
   11.3872    9.0418   -4.4846 C   0  0  0  0  0  0  0  0  0  0  0  0
   11.5279    7.6376   -4.4968 C   0  0  0  0  0  0  0  0  0  0  0  0
   10.8826    6.7963   -5.5718 C   0  0  0  0  0  0  0  0  0  0  0  0
   11.4299    6.8667   -7.0135 C   0  0  0  0  0  0  0  0  0  0  0  0
   11.2262    8.2096   -7.7549 C   0  0  1  0  0  0  0  0  0  0  0  0
   11.2665    8.0794   -9.2942 C   0  0  0  0  0  0  0  0  0  0  0  0
   10.1745    7.2576   -9.8213 N   0  0  0  0  0  0  0  0  0  0  0  0
   10.2153    7.2004  -11.2888 C   0  0  0  0  0  0  0  0  0  0  0  0
    9.3353    6.1663  -11.9407 C   0  0  0  0  0  0  0  0  0  0  0  0
    9.8199    5.1995  -12.7229 N   0  0  0  0  0  0  0  0  0  0  0  0
    8.6786    4.5183  -13.1153 C   0  0  0  0  0  0  0  0  0  0  0  0
    8.5204    3.3939  -13.9570 C   0  0  0  0  0  0  0  0  0  0  0  0
    7.2357    2.8674  -14.2119 C   0  0  0  0  0  0  0  0  0  0  0  0
    6.0953    3.4482  -13.6167 C   0  0  0  0  0  0  0  0  0  0  0  0
    6.2272    4.5750  -12.7824 C   0  0  0  0  0  0  0  0  0  0  0  0
    7.5092    5.1004  -12.5479 C   0  0  0  0  0  0  0  0  0  0  0  0
    7.9913    6.1718  -11.8206 N   0  0  0  0  0  0  0  0  0  0  0  0
    8.8866    7.7541   -9.3332 C   0  0  0  0  0  0  0  0  0  0  0  0
    8.8466    8.0838   -7.8381 C   0  0  0  0  0  0  0  0  0  0  0  0
    9.9873    8.8207   -7.4221 O   0  0  0  0  0  0  0  0  0  0  0  0
   12.0862    6.9794   -3.3818 C   0  0  0  0  0  0  0  0  0  0  0  0
   12.4847    7.7136   -2.2540 C   0  0  0  0  0  0  0  0  0  0  0  0
   12.5986    9.6705   -1.3562 H   0  0  0  0  0  0  0  0  0  0  0  0
   11.6219   10.8363   -3.3001 H   0  0  0  0  0  0  0  0  0  0  0  0
   10.9175    9.5613   -5.3056 H   0  0  0  0  0  0  0  0  0  0  0  0
   10.9562    5.7722   -5.2426 H   0  0  0  0  0  0  0  0  0  0  0  0
    9.8187    7.0134   -5.5248 H   0  0  0  0  0  0  0  0  0  0  0  0
   12.4762    6.5703   -7.0469 H   0  0  0  0  0  0  0  0  0  0  0  0
   10.9111    6.0836   -7.5674 H   0  0  0  0  0  0  0  0  0  0  0  0
   12.0115    8.8975   -7.4403 H   0  0  0  0  0  0  0  0  0  0  0  0
   11.2164    9.0777   -9.7317 H   0  0  0  0  0  0  0  0  0  0  0  0
   12.2273    7.6622   -9.5974 H   0  0  0  0  0  0  0  0  0  0  0  0
    9.9661    8.1756  -11.7096 H   0  0  0  0  0  0  0  0  0  0  0  0
   11.2379    6.9937  -11.6073 H   0  0  0  0  0  0  0  0  0  0  0  0
    9.3927    2.9356  -14.3971 H   0  0  0  0  0  0  0  0  0  0  0  0
    7.1258    2.0044  -14.8527 H   0  0  0  0  0  0  0  0  0  0  0  0
    5.1186    3.0301  -13.8060 H   0  0  0  0  0  0  0  0  0  0  0  0
    5.3609    5.0300  -12.3248 H   0  0  0  0  0  0  0  0  0  0  0  0
    7.4513    6.8235  -11.2405 H   0  0  0  0  0  0  0  0  0  0  0  0
    8.1420    6.9720   -9.4774 H   0  0  0  0  0  0  0  0  0  0  0  0
    8.5837    8.6371   -9.8983 H   0  0  0  0  0  0  0  0  0  0  0  0
    8.7154    7.1588   -7.2828 H   0  0  0  0  0  0  0  0  0  0  0  0
    7.9837    8.6978   -7.6026 H   0  0  0  0  0  0  0  0  0  0  0  0
   12.1662    5.9017   -3.3608 H   0  0  0  0  0  0  0  0  0  0  0  0
   12.8855    7.1991   -1.3974 H   0  0  0  0  0  0  0  0  0  0  0  0
  2  1  2  0
  3  2  1  0
  4  3  2  0
  5  4  1  0
  6  5  1  0
  7  6  1  0
  8  7  1  0
  9  8  1  0
 10  9  1  0
 11 10  1  0
 12 11  2  0
 13 12  1  0
 14 13  2  0
 15 14  1  0
 16 15  2  0
 17 16  1  0
 18 13  1  0
 18 17  2  0
 19 11  1  0
 19 18  1  0
 20  9  1  0
 21 20  1  0
 22  7  1  0
 22 21  1  0
 23  4  1  0
 24  1  1  0
 24 23  2  0
 25  1  1  0
 26  2  1  0
 27  3  1  0
 28  5  1  0
 29  5  1  0
 30  6  1  0
 31  6  1  0
  7 32  1  1
 33  8  1  0
 34  8  1  0
 35 10  1  0
 36 10  1  0
 37 14  1  0
 38 15  1  0
 39 16  1  0
 40 17  1  0
 41 19  1  0
 42 20  1  0
 43 20  1  0
 44 21  1  0
 45 21  1  0
 46 23  1  0
 47 24  1  0
M  END
>  <b_m_subgroup_collapsed>  (534) 
0

>  <r_i_docking_score>  (534) 
-7.8347978746537699

>  <s_m_subgroup_title>  (534) 
glide-dock_SP_D22_pv

>  <s_m_subgroupid>  (534) 
glide-dock_SP_D22_pv

>  <Molecule ChEMBL ID>  (534) 
CHEMBL3335536

>  <Standard Type>  (534) 
Ki

>  <Standard Value>  (534) 
100000.0

>  <label>  (534) 
0

$$$$
CHEMBL2062852
     RDKit          3D

 54 56  0  0  1  0  0  0  0  0999 V2000
    6.0837    4.8200  -12.6470 C   0  0  0  0  0  0  0  0  0  0  0  0
    7.5353    4.3518  -12.8462 C   0  0  0  0  0  0  0  0  0  0  0  0
    8.5148    5.4522  -13.0845 N   0  0  0  0  0  0  0  0  0  0  0  0
    9.7962    4.9261  -13.6468 C   0  0  0  0  0  0  0  0  0  0  0  0
    9.6870    4.5488  -15.1327 C   0  0  0  0  0  0  0  0  0  0  0  0
    8.6419    6.3339  -11.8805 C   0  0  2  0  0  0  0  0  0  0  0  0
    9.5081    7.6064  -11.9627 C   0  0  1  0  0  0  0  0  0  0  0  0
    8.8345    8.9723  -11.8874 C   0  0  0  0  0  0  0  0  0  0  0  0
    7.4876    8.9022  -12.2469 O   0  0  0  0  0  0  0  0  0  0  0  0
   10.3508    7.0881  -10.7830 C   0  0  1  0  0  0  0  0  0  0  0  0
   10.3042    7.6784   -9.3849 C   0  0  0  0  0  0  0  0  0  0  0  0
    9.1077    7.0611   -8.7613 N   0  0  2  0  0  0  0  0  0  0  0  0
    8.9095    7.2099   -7.2869 C   0  0  0  0  0  0  0  0  0  0  0  0
   10.0738    7.7752   -6.4716 C   0  0  0  0  0  0  0  0  0  0  0  0
   10.4233    9.1395   -6.5729 C   0  0  0  0  0  0  0  0  0  0  0  0
   11.3928    9.7026   -5.7210 C   0  0  0  0  0  0  0  0  0  0  0  0
   12.0155    8.9041   -4.7443 C   0  0  0  0  0  0  0  0  0  0  0  0
   11.6860    7.5378   -4.6469 C   0  0  0  0  0  0  0  0  0  0  0  0
   10.7365    6.9723   -5.5194 C   0  0  0  0  0  0  0  0  0  0  0  0
    8.8860    5.7212   -9.3834 C   0  0  2  0  0  0  0  0  0  0  0  0
    9.5336    4.5723   -8.6469 C   0  0  0  0  0  0  0  0  0  0  0  0
    9.5130    5.8192  -10.7525 C   0  0  1  0  0  0  0  0  0  0  0  0
    5.4107    3.9621  -12.6384 H   0  0  0  0  0  0  0  0  0  0  0  0
    5.7533    5.4806  -13.4469 H   0  0  0  0  0  0  0  0  0  0  0  0
    5.9299    5.3350  -11.6990 H   0  0  0  0  0  0  0  0  0  0  0  0
    7.8523    3.7723  -11.9791 H   0  0  0  0  0  0  0  0  0  0  0  0
    7.5367    3.6619  -13.6887 H   0  0  0  0  0  0  0  0  0  0  0  0
   10.5972    5.6562  -13.5591 H   0  0  0  0  0  0  0  0  0  0  0  0
   10.1269    4.0534  -13.0815 H   0  0  0  0  0  0  0  0  0  0  0  0
   10.6680    4.2852  -15.5292 H   0  0  0  0  0  0  0  0  0  0  0  0
    9.3048    5.3723  -15.7334 H   0  0  0  0  0  0  0  0  0  0  0  0
    9.0403    3.6879  -15.2985 H   0  0  0  0  0  0  0  0  0  0  0  0
    7.6635    6.5723  -11.4830 H   0  0  0  0  0  0  0  0  0  0  0  0
   10.1789    7.5812  -12.8140 H   0  0  0  0  0  0  0  0  0  0  0  0
    8.8859    9.4189  -10.8985 H   0  0  0  0  0  0  0  0  0  0  0  0
    9.2860    9.6598  -12.6000 H   0  0  0  0  0  0  0  0  0  0  0  0
    6.9852    8.5236  -11.5172 H   0  0  0  0  0  0  0  0  0  0  0  0
   11.3739    6.9205  -11.1201 H   0  0  0  0  0  0  0  0  0  0  0  0
   11.2013    7.3776   -8.8416 H   0  0  0  0  0  0  0  0  0  0  0  0
   10.2679    8.7661   -9.3742 H   0  0  0  0  0  0  0  0  0  0  0  0
    8.0860    7.9107   -7.1517 H   0  0  0  0  0  0  0  0  0  0  0  0
    8.5527    6.2832   -6.8380 H   0  0  0  0  0  0  0  0  0  0  0  0
    9.9196    9.7723   -7.2871 H   0  0  0  0  0  0  0  0  0  0  0  0
   11.6434   10.7504   -5.8037 H   0  0  0  0  0  0  0  0  0  0  0  0
   12.7489    9.3352   -4.0780 H   0  0  0  0  0  0  0  0  0  0  0  0
   12.1650    6.9196   -3.9014 H   0  0  0  0  0  0  0  0  0  0  0  0
   10.4860    5.9300   -5.4104 H   0  0  0  0  0  0  0  0  0  0  0  0
    7.8138    5.5377   -9.4543 H   0  0  0  0  0  0  0  0  0  0  0  0
    9.6866    3.7046   -9.2835 H   0  0  0  0  0  0  0  0  0  0  0  0
    8.8860    4.2350   -7.8469 H   0  0  0  0  0  0  0  0  0  0  0  0
   10.5045    4.8644   -8.2469 H   0  0  0  0  0  0  0  0  0  0  0  0
   10.0860    4.9433  -11.0447 H   0  0  0  0  0  0  0  0  0  0  0  0
    8.1152    6.0405  -13.8021 H   0  0  0  0  0  0  0  0  0  0  0  0
    8.3251    7.5825   -9.1442 H   0  0  0  0  0  0  0  0  0  0  0  0
  2  1  1  0
  3  2  1  0
  4  3  1  0
  5  4  1  0
  6  3  1  0
  7  6  1  0
  8  7  1  0
  9  8  1  0
 10  7  1  0
 11 10  1  0
 12 11  1  0
 13 12  1  0
 14 13  1  0
 15 14  2  0
 16 15  1  0
 17 16  2  0
 18 17  1  0
 19 14  1  0
 19 18  2  0
 20 12  1  0
 21 20  1  0
 22  6  1  0
 22 10  1  0
 22 20  1  0
 23  1  1  0
 24  1  1  0
 25  1  1  0
 26  2  1  0
 27  2  1  0
 28  4  1  0
 29  4  1  0
 30  5  1  0
 31  5  1  0
 32  5  1  0
  6 33  1  1
  7 34  1  6
 35  8  1  0
 36  8  1  0
 37  9  1  0
 10 38  1  6
 39 11  1  0
 40 11  1  0
 41 13  1  0
 42 13  1  0
 43 15  1  0
 44 16  1  0
 45 17  1  0
 46 18  1  0
 47 19  1  0
 20 48  1  6
 49 21  1  0
 50 21  1  0
 51 21  1  0
 22 52  1  6
 53  3  1  0
 12 54  1  6
M  CHG  2   3   1  12   1
M  END
>  <b_m_subgroup_collapsed>  (535) 
0

>  <r_i_docking_score>  (535) 
-7.8340494267885896

>  <s_m_subgroup_title>  (535) 
glide-dock_SP_D22_pv

>  <s_m_subgroupid>  (535) 
glide-dock_SP_D22_pv

>  <Molecule ChEMBL ID>  (535) 
CHEMBL2062852

>  <Standard Type>  (535) 
Ki

>  <Standard Value>  (535) 
38000.0

>  <label>  (535) 
0

$$$$
CHEMBL1779060
     RDKit          3D

 54 60  0  0  1  0  0  0  0  0999 V2000
    5.1583    1.9954  -13.1173 C   0  0  0  0  0  0  0  0  0  0  0  0
    6.0858    2.9000  -13.7017 O   0  0  0  0  0  0  0  0  0  0  0  0
    7.2375    2.3723  -14.2469 C   0  0  0  0  0  0  0  0  0  0  0  0
    7.2507    1.0934  -14.8560 C   0  0  0  0  0  0  0  0  0  0  0  0
    8.4323    0.5723  -15.4094 C   0  0  0  0  0  0  0  0  0  0  0  0
    9.6186    1.3248  -15.3737 C   0  0  0  0  0  0  0  0  0  0  0  0
   10.8862    0.7522  -15.9684 C   0  0  0  0  0  0  0  0  0  0  0  0
    9.6179    2.6004  -14.7764 C   0  0  0  0  0  0  0  0  0  0  0  0
    8.4428    3.1293  -14.1956 C   0  0  0  0  0  0  0  0  0  0  0  0
    8.5195    4.4748  -13.5187 C   0  0  0  0  0  0  0  0  0  0  0  0
    9.2651    5.3588  -13.9387 O   0  0  0  0  0  0  0  0  0  0  0  0
    7.7998    4.6051  -12.3956 N   0  0  0  0  0  0  0  0  0  0  0  0
    7.7523    5.7734  -11.5268 C   0  0  0  0  0  0  0  0  0  0  0  0
    9.0494    5.9475  -10.7173 C   0  0  0  0  0  0  0  0  0  0  0  0
    8.8860    6.9723   -9.6451 N   0  0  2  0  0  0  0  0  0  0  0  0
    9.9180    8.0277   -9.5854 C   0  0  1  0  0  0  0  0  0  0  0  0
    9.5506    8.8494   -8.3095 C   0  0  2  0  0  0  0  0  0  0  0  0
   10.8717    9.2147   -7.5824 C   0  0  1  0  0  0  0  0  0  0  0  0
   10.5372    9.0562   -6.0984 C   0  0  0  0  0  0  0  0  0  0  0  0
   10.0361    7.6234   -6.2469 C   0  0  2  0  0  0  0  0  0  0  0  0
   11.1601    6.9098   -6.9822 C   0  0  2  0  0  0  0  0  0  0  0  0
   11.7331    7.9984   -7.8934 C   0  0  1  0  0  0  0  0  0  0  0  0
   11.1585    7.2821   -9.1027 C   0  0  1  0  0  0  0  0  0  0  0  0
   10.5702    6.1999   -8.1860 C   0  0  2  0  0  0  0  0  0  0  0  0
    9.0874    6.5108   -8.2569 C   0  0  2  0  0  0  0  0  0  0  0  0
    8.1313    5.5057   -8.0436 O   0  0  0  0  0  0  0  0  0  0  0  0
    8.9601    7.7574   -7.3606 C   0  0  2  0  0  0  0  0  0  0  0  0
    4.3695    2.5724  -12.6388 H   0  0  0  0  0  0  0  0  0  0  0  0
    5.6346    1.3755  -12.3564 H   0  0  0  0  0  0  0  0  0  0  0  0
    4.6712    1.3517  -13.8469 H   0  0  0  0  0  0  0  0  0  0  0  0
    6.3578    0.4914  -14.9205 H   0  0  0  0  0  0  0  0  0  0  0  0
    8.4220   -0.4069  -15.8657 H   0  0  0  0  0  0  0  0  0  0  0  0
   11.7175    1.4526  -15.8846 H   0  0  0  0  0  0  0  0  0  0  0  0
   10.7408    0.5194  -17.0233 H   0  0  0  0  0  0  0  0  0  0  0  0
   11.1585   -0.1650  -15.4469 H   0  0  0  0  0  0  0  0  0  0  0  0
   10.5357    3.1704  -14.7423 H   0  0  0  0  0  0  0  0  0  0  0  0
    7.2029    3.8281  -12.1484 H   0  0  0  0  0  0  0  0  0  0  0  0
    7.5506    6.6664  -12.1207 H   0  0  0  0  0  0  0  0  0  0  0  0
    6.9001    5.6529  -10.8610 H   0  0  0  0  0  0  0  0  0  0  0  0
    9.3454    4.9860  -10.2946 H   0  0  0  0  0  0  0  0  0  0  0  0
    9.8555    6.2392  -11.3918 H   0  0  0  0  0  0  0  0  0  0  0  0
   10.0561    8.6158  -10.4935 H   0  0  0  0  0  0  0  0  0  0  0  0
    8.8583    9.6752   -8.4714 H   0  0  0  0  0  0  0  0  0  0  0  0
   11.2860   10.1723   -7.8767 H   0  0  0  0  0  0  0  0  0  0  0  0
   11.4188    9.1291   -5.4594 H   0  0  0  0  0  0  0  0  0  0  0  0
    9.7797    9.7481   -5.7371 H   0  0  0  0  0  0  0  0  0  0  0  0
    9.7001    7.1167   -5.3437 H   0  0  0  0  0  0  0  0  0  0  0  0
   11.8956    6.3557   -6.3978 H   0  0  0  0  0  0  0  0  0  0  0  0
   12.8173    8.1104   -7.8547 H   0  0  0  0  0  0  0  0  0  0  0  0
   11.8736    6.9446   -9.8514 H   0  0  0  0  0  0  0  0  0  0  0  0
   10.8860    5.1767   -8.3803 H   0  0  0  0  0  0  0  0  0  0  0  0
    7.3130    5.9521   -7.8433 H   0  0  0  0  0  0  0  0  0  0  0  0
    7.9628    8.0045   -7.0020 H   0  0  0  0  0  0  0  0  0  0  0  0
    7.9498    7.3765   -9.7542 H   0  0  0  0  0  0  0  0  0  0  0  0
  2  1  1  0
  3  2  1  0
  4  3  1  0
  5  4  2  0
  6  5  1  0
  7  6  1  0
  8  6  2  0
  9  3  2  0
  9  8  1  0
 10  9  1  0
 11 10  2  0
 12 10  1  0
 13 12  1  0
 14 13  1  0
 15 14  1  0
 16 15  1  0
 17 16  1  0
 18 17  1  0
 19 18  1  0
 20 19  1  0
 21 20  1  0
 22 18  1  0
 22 21  1  0
 23 16  1  0
 23 22  1  0
 24 21  1  0
 24 23  1  0
 25 15  1  0
 25 24  1  0
 25 26  1  1
 27 17  1  0
 27 20  1  0
 27 25  1  0
 28  1  1  0
 29  1  1  0
 30  1  1  0
 31  4  1  0
 32  5  1  0
 33  7  1  0
 34  7  1  0
 35  7  1  0
 36  8  1  0
 37 12  1  0
 38 13  1  0
 39 13  1  0
 40 14  1  0
 41 14  1  0
 16 42  1  6
 17 43  1  6
 18 44  1  1
 45 19  1  0
 46 19  1  0
 20 47  1  1
 21 48  1  1
 22 49  1  6
 23 50  1  6
 24 51  1  6
 52 26  1  0
 27 53  1  1
 15 54  1  1
M  CHG  1  15   1
M  END
>  <b_m_subgroup_collapsed>  (536) 
0

>  <r_i_docking_score>  (536) 
-7.8336316250609102

>  <s_m_subgroup_title>  (536) 
glide-dock_SP_D22_pv

>  <s_m_subgroupid>  (536) 
glide-dock_SP_D22_pv

>  <Molecule ChEMBL ID>  (536) 
CHEMBL1779060

>  <Standard Type>  (536) 
Ki

>  <Standard Value>  (536) 
10000.0

>  <label>  (536) 
0

$$$$
CHEMBL6060787
     RDKit          3D

 53 57  0  0  1  0  0  0  0  0999 V2000
    7.1461   -0.2275  -16.2692 C   0  0  0  0  0  0  0  0  0  0  0  0
    7.7471    0.8982  -15.4590 C   0  0  0  0  0  0  0  0  0  0  0  0
    9.0769    0.9295  -15.3468 N   0  0  0  0  0  0  0  0  0  0  0  0
    9.6058    1.9603  -14.6515 C   0  0  0  0  0  0  0  0  0  0  0  0
    8.7921    2.9566  -14.0736 C   0  0  0  0  0  0  0  0  0  0  0  0
    7.4065    2.8044  -14.2475 C   0  0  0  0  0  0  0  0  0  0  0  0
    6.8860    1.7755  -14.9431 N   0  0  0  0  0  0  0  0  0  0  0  0
    6.4465    3.7980  -13.6300 C   0  0  0  0  0  0  0  0  0  0  0  0
    7.0591    4.4677  -12.3895 C   0  0  0  0  0  0  0  0  0  0  0  0
    8.4889    4.8068  -12.5306 N   0  0  0  0  0  0  0  0  0  0  0  0
    8.9414    5.9074  -11.6739 C   0  0  0  0  0  0  0  0  0  0  0  0
    8.7378    5.5485  -10.1913 C   0  0  0  0  0  0  0  0  0  0  0  0
    9.6811    6.2141   -9.2998 N   0  0  0  0  0  0  0  0  0  0  0  0
    9.5813    7.6753   -9.3719 C   0  0  0  0  0  0  0  0  0  0  0  0
   10.6589    8.2945   -8.4645 C   0  0  0  0  0  0  0  0  0  0  0  0
   10.5065    7.8143   -7.0944 N   0  0  0  0  0  0  0  0  0  0  0  0
   10.9432    8.6204   -6.0315 C   0  0  0  0  0  0  0  0  0  0  0  0
   10.8858    9.9475   -6.0925 N   0  0  0  0  0  0  0  0  0  0  0  0
   11.2698   10.4370   -4.8206 O   0  0  0  0  0  0  0  0  0  0  0  0
   11.6352    9.3844   -4.0015 C   0  0  0  0  0  0  0  0  0  0  0  0
   12.0903    9.3723   -2.6806 C   0  0  0  0  0  0  0  0  0  0  0  0
   12.4656    8.1383   -2.1185 C   0  0  0  0  0  0  0  0  0  0  0  0
   12.2875    6.9464   -2.8579 C   0  0  0  0  0  0  0  0  0  0  0  0
   11.7723    6.9779   -4.1748 C   0  0  0  0  0  0  0  0  0  0  0  0
   11.4509    8.2274   -4.7619 C   0  0  0  0  0  0  0  0  0  0  0  0
   10.3490    6.3783   -6.9344 C   0  0  0  0  0  0  0  0  0  0  0  0
    9.3240    5.8238   -7.9345 C   0  0  0  0  0  0  0  0  0  0  0  0
    9.3571    4.1179  -13.3149 C   0  0  0  0  0  0  0  0  0  0  0  0
   10.5558    4.3807  -13.4152 O   0  0  0  0  0  0  0  0  0  0  0  0
    6.7925   -1.0168  -15.6061 H   0  0  0  0  0  0  0  0  0  0  0  0
    6.2983    0.1297  -16.8536 H   0  0  0  0  0  0  0  0  0  0  0  0
    7.8785   -0.6501  -16.9572 H   0  0  0  0  0  0  0  0  0  0  0  0
   10.6825    1.9826  -14.5639 H   0  0  0  0  0  0  0  0  0  0  0  0
    6.2039    4.5611  -14.3656 H   0  0  0  0  0  0  0  0  0  0  0  0
    5.5089    3.3056  -13.3692 H   0  0  0  0  0  0  0  0  0  0  0  0
    6.9756    3.7768  -11.5492 H   0  0  0  0  0  0  0  0  0  0  0  0
    6.4717    5.3463  -12.1167 H   0  0  0  0  0  0  0  0  0  0  0  0
    9.9901    6.1518  -11.8530 H   0  0  0  0  0  0  0  0  0  0  0  0
    8.3802    6.8101  -11.9203 H   0  0  0  0  0  0  0  0  0  0  0  0
    7.7073    5.7703   -9.9002 H   0  0  0  0  0  0  0  0  0  0  0  0
    8.8760    4.4744  -10.0617 H   0  0  0  0  0  0  0  0  0  0  0  0
    9.7430    8.0251  -10.3914 H   0  0  0  0  0  0  0  0  0  0  0  0
    8.5860    8.0093   -9.0722 H   0  0  0  0  0  0  0  0  0  0  0  0
   11.6537    8.0300   -8.8250 H   0  0  0  0  0  0  0  0  0  0  0  0
   10.5821    9.3790   -8.5194 H   0  0  0  0  0  0  0  0  0  0  0  0
   12.1849   10.2918   -2.1290 H   0  0  0  0  0  0  0  0  0  0  0  0
   12.8579    8.1042   -1.1132 H   0  0  0  0  0  0  0  0  0  0  0  0
   12.5514    5.9973   -2.4131 H   0  0  0  0  0  0  0  0  0  0  0  0
   11.6743    6.0492   -4.7123 H   0  0  0  0  0  0  0  0  0  0  0  0
   11.3144    5.8837   -7.0517 H   0  0  0  0  0  0  0  0  0  0  0  0
    9.9685    6.1717   -5.9361 H   0  0  0  0  0  0  0  0  0  0  0  0
    8.3247    6.1897   -7.6872 H   0  0  0  0  0  0  0  0  0  0  0  0
    9.2871    4.7373   -7.8498 H   0  0  0  0  0  0  0  0  0  0  0  0
  2  1  1  0
  3  2  2  0
  4  3  1  0
  5  4  2  0
  6  5  1  0
  7  2  1  0
  7  6  2  0
  8  6  1  0
  9  8  1  0
 10  9  1  0
 11 10  1  0
 12 11  1  0
 13 12  1  0
 14 13  1  0
 15 14  1  0
 16 15  1  0
 17 16  1  0
 18 17  2  0
 19 18  1  0
 20 19  1  0
 21 20  2  0
 22 21  1  0
 23 22  2  0
 24 23  1  0
 25 17  1  0
 25 20  1  0
 25 24  2  0
 26 16  1  0
 27 13  1  0
 27 26  1  0
 28  5  1  0
 28 10  1  0
 29 28  2  0
 30  1  1  0
 31  1  1  0
 32  1  1  0
 33  4  1  0
 34  8  1  0
 35  8  1  0
 36  9  1  0
 37  9  1  0
 38 11  1  0
 39 11  1  0
 40 12  1  0
 41 12  1  0
 42 14  1  0
 43 14  1  0
 44 15  1  0
 45 15  1  0
 46 21  1  0
 47 22  1  0
 48 23  1  0
 49 24  1  0
 50 26  1  0
 51 26  1  0
 52 27  1  0
 53 27  1  0
M  END
>  <b_m_subgroup_collapsed>  (537) 
0

>  <r_i_docking_score>  (537) 
-7.83230554065916

>  <s_m_subgroup_title>  (537) 
glide-dock_SP_D22_pv

>  <s_m_subgroupid>  (537) 
glide-dock_SP_D22_pv

>  <Molecule ChEMBL ID>  (537) 
CHEMBL6060787

>  <Standard Type>  (537) 
Ki

>  <Standard Value>  (537) 
10000.0

>  <label>  (537) 
0

$$$$
CHEMBL3265324
     RDKit          3D

124126  0  0  1  0  0  0  0  0999 V2000
   11.6942    9.3200   -5.4787 C   0  0  0  0  0  0  0  0  0  0  0  0
   11.3142    9.9082   -6.6264 C   0  0  0  0  0  0  0  0  0  0  0  0
   10.9346    9.2031   -7.9229 C   0  0  0  0  0  0  0  0  0  0  0  0
   10.3925    7.8457   -7.7125 N   0  0  1  0  0  0  0  0  0  0  0  0
    9.1270    7.7650   -6.9619 C   0  0  0  0  0  0  0  0  0  0  0  0
    8.7565    6.2963   -7.0834 C   0  0  0  0  0  0  0  0  0  0  0  0
    9.3848    5.8177   -8.3974 C   0  0  0  0  0  0  0  0  0  0  0  0
   10.2054    7.0070   -8.9202 C   0  0  1  0  0  0  0  0  0  0  0  0
    9.4850    7.7372  -10.0842 C   0  0  0  0  0  0  0  0  0  0  0  0
    9.3456    6.8549  -11.2351 N   0  0  0  0  0  0  0  0  0  0  0  0
   10.2760    6.6809  -12.1850 C   0  0  0  0  0  0  0  0  0  0  0  0
   11.2987    7.3718  -12.2131 O   0  0  0  0  0  0  0  0  0  0  0  0
   10.0984    5.5243  -13.1499 C   0  0  0  0  0  0  0  0  0  0  0  0
   11.2385    5.1325  -13.8840 C   0  0  0  0  0  0  0  0  0  0  0  0
   11.1919    4.0711  -14.7960 C   0  0  0  0  0  0  0  0  0  0  0  0
   12.4385    3.6991  -15.5709 C   0  0  0  0  0  0  0  0  0  0  0  0
   12.6819    4.5900  -16.7985 C   0  0  0  0  0  0  0  0  0  0  0  0
   14.0410    4.2866  -17.4465 C   0  0  0  0  0  0  0  0  0  0  0  0
   14.3019    5.1475  -19.0231 S   0  0  0  0  0  0  0  0  0  0  0  0
   15.3034    6.5599  -18.4670 C   0  0  2  0  0  0  0  0  0  0  0  0
   14.4635    7.6717  -17.8294 C   0  0  0  0  0  0  0  0  0  0  0  0
   14.8976    8.9075  -18.6034 C   0  0  0  0  0  0  0  0  0  0  0  0
   14.4906   10.0334  -18.3297 O   0  0  0  0  0  0  0  0  0  0  0  0
   15.7343    8.5904  -19.6007 N   0  0  0  0  0  0  0  0  0  0  0  0
   16.2053    9.5418  -20.6182 C   0  0  0  0  0  0  0  0  0  0  0  0
   15.4452    9.3907  -21.9554 C   0  0  0  0  0  0  0  0  0  0  0  0
   13.9197    9.5520  -21.8179 C   0  0  0  0  0  0  0  0  0  0  0  0
   13.1254    9.1652  -23.0820 C   0  0  0  0  0  0  0  0  0  0  0  0
   11.6633    8.7587  -22.7845 C   0  0  0  0  0  0  0  0  0  0  0  0
   11.5675    7.4891  -21.9270 C   0  0  0  0  0  0  0  0  0  0  0  0
   12.3419    6.5528  -22.1339 O   0  0  0  0  0  0  0  0  0  0  0  0
   10.6589    7.4693  -20.9385 N   0  0  0  0  0  0  0  0  0  0  0  0
   10.6009    6.4340  -19.9069 C   0  0  0  0  0  0  0  0  0  0  0  0
   10.0474    5.0947  -20.4252 C   0  0  0  0  0  0  0  0  0  0  0  0
   10.3513    4.0829  -19.4792 O   0  0  0  0  0  0  0  0  0  0  0  0
    9.8503    2.8073  -19.8432 C   0  0  0  0  0  0  0  0  0  0  0  0
   10.4525    1.7350  -18.9225 C   0  0  0  0  0  0  0  0  0  0  0  0
   11.6569    1.2292  -19.4837 O   0  0  0  0  0  0  0  0  0  0  0  0
   12.2748    0.2500  -18.6630 C   0  0  0  0  0  0  0  0  0  0  0  0
   13.3607   -0.5143  -19.4358 C   0  0  0  0  0  0  0  0  0  0  0  0
   14.5813    0.2134  -19.4467 O   0  0  0  0  0  0  0  0  0  0  0  0
   15.6999   -0.6032  -19.7701 C   0  0  0  0  0  0  0  0  0  0  0  0
   16.9963    0.2036  -19.6330 C   0  0  0  0  0  0  0  0  0  0  0  0
   17.3927    0.7737  -20.8707 O   0  0  0  0  0  0  0  0  0  0  0  0
   18.6077    1.5111  -20.7591 C   0  0  0  0  0  0  0  0  0  0  0  0
   19.2817    1.7341  -22.1270 C   0  0  0  0  0  0  0  0  0  0  0  0
   18.5569    2.7407  -23.0215 C   0  0  0  0  0  0  0  0  0  0  0  0
   19.2859    3.6988  -23.5991 N   0  0  0  0  0  0  0  0  0  0  0  0
   17.3479    2.6535  -23.2119 O   0  0  0  0  0  0  0  0  0  0  0  0
   16.0208    7.2812  -19.6025 C   0  0  0  0  0  0  0  0  0  0  0  0
   16.7614    6.7033  -20.3931 O   0  0  0  0  0  0  0  0  0  0  0  0
    9.9970    3.3541  -14.9550 C   0  0  0  0  0  0  0  0  0  0  0  0
    8.8228    3.7166  -14.2474 C   0  0  0  0  0  0  0  0  0  0  0  0
    7.6399    3.0262  -14.4314 O   0  0  0  0  0  0  0  0  0  0  0  0
    7.6266    1.8675  -15.2551 C   0  0  0  0  0  0  0  0  0  0  0  0
    8.8614    4.8350  -13.3515 C   0  0  0  0  0  0  0  0  0  0  0  0
    7.7506    5.3283  -12.6865 O   0  0  0  0  0  0  0  0  0  0  0  0
    6.6136    4.5199  -12.4222 C   0  0  0  0  0  0  0  0  0  0  0  0
   11.7570    8.2472   -5.3683 H   0  0  0  0  0  0  0  0  0  0  0  0
   11.9539    9.9170   -4.6168 H   0  0  0  0  0  0  0  0  0  0  0  0
   11.2911   10.9886   -6.6561 H   0  0  0  0  0  0  0  0  0  0  0  0
   10.1720    9.7723   -8.4429 H   0  0  0  0  0  0  0  0  0  0  0  0
   11.8117    9.1627   -8.5721 H   0  0  0  0  0  0  0  0  0  0  0  0
    9.2348    8.0648   -5.9201 H   0  0  0  0  0  0  0  0  0  0  0  0
    8.3632    8.3965   -7.4206 H   0  0  0  0  0  0  0  0  0  0  0  0
    9.2073    5.7740   -6.2482 H   0  0  0  0  0  0  0  0  0  0  0  0
    7.6857    6.1328   -7.0459 H   0  0  0  0  0  0  0  0  0  0  0  0
   10.0458    4.9723   -8.2073 H   0  0  0  0  0  0  0  0  0  0  0  0
    8.6225    5.4755   -9.0983 H   0  0  0  0  0  0  0  0  0  0  0  0
   11.1871    6.6741   -9.2628 H   0  0  0  0  0  0  0  0  0  0  0  0
    8.4860    8.0562   -9.7801 H   0  0  0  0  0  0  0  0  0  0  0  0
   10.0143    8.6403  -10.3924 H   0  0  0  0  0  0  0  0  0  0  0  0
    8.4961    6.3076  -11.3094 H   0  0  0  0  0  0  0  0  0  0  0  0
   12.1760    5.6583  -13.7583 H   0  0  0  0  0  0  0  0  0  0  0  0
   13.2843    3.7751  -14.8905 H   0  0  0  0  0  0  0  0  0  0  0  0
   12.3838    2.6548  -15.8763 H   0  0  0  0  0  0  0  0  0  0  0  0
   11.8816    4.4390  -17.5191 H   0  0  0  0  0  0  0  0  0  0  0  0
   12.6481    5.6412  -16.5092 H   0  0  0  0  0  0  0  0  0  0  0  0
   14.8419    4.5691  -16.7633 H   0  0  0  0  0  0  0  0  0  0  0  0
   14.1298    3.2174  -17.6354 H   0  0  0  0  0  0  0  0  0  0  0  0
   16.0684    6.2106  -17.7733 H   0  0  0  0  0  0  0  0  0  0  0  0
   13.3919    7.5193  -17.9730 H   0  0  0  0  0  0  0  0  0  0  0  0
   14.6565    7.7734  -16.7607 H   0  0  0  0  0  0  0  0  0  0  0  0
   16.1055   10.5681  -20.2600 H   0  0  0  0  0  0  0  0  0  0  0  0
   17.2730    9.3879  -20.7848 H   0  0  0  0  0  0  0  0  0  0  0  0
   15.8241   10.1157  -22.6767 H   0  0  0  0  0  0  0  0  0  0  0  0
   15.6676    8.4076  -22.3767 H   0  0  0  0  0  0  0  0  0  0  0  0
   13.5798    8.9272  -20.9962 H   0  0  0  0  0  0  0  0  0  0  0  0
   13.6866   10.5729  -21.5221 H   0  0  0  0  0  0  0  0  0  0  0  0
   13.1431    9.9988  -23.7857 H   0  0  0  0  0  0  0  0  0  0  0  0
   13.6204    8.3401  -23.5965 H   0  0  0  0  0  0  0  0  0  0  0  0
   11.1399    9.5809  -22.2939 H   0  0  0  0  0  0  0  0  0  0  0  0
   11.1400    8.5731  -23.7235 H   0  0  0  0  0  0  0  0  0  0  0  0
   10.0538    8.2686  -20.8284 H   0  0  0  0  0  0  0  0  0  0  0  0
   11.6046    6.2890  -19.5063 H   0  0  0  0  0  0  0  0  0  0  0  0
    9.9922    6.7917  -19.0761 H   0  0  0  0  0  0  0  0  0  0  0  0
    8.9691    5.1668  -20.5845 H   0  0  0  0  0  0  0  0  0  0  0  0
   10.5037    4.8269  -21.3797 H   0  0  0  0  0  0  0  0  0  0  0  0
    8.7648    2.8267  -19.7289 H   0  0  0  0  0  0  0  0  0  0  0  0
   10.0625    2.5672  -20.8854 H   0  0  0  0  0  0  0  0  0  0  0  0
   10.6178    2.1340  -17.9216 H   0  0  0  0  0  0  0  0  0  0  0  0
    9.7413    0.9113  -18.8300 H   0  0  0  0  0  0  0  0  0  0  0  0
   12.6850    0.7066  -17.7628 H   0  0  0  0  0  0  0  0  0  0  0  0
   11.5237   -0.4727  -18.3394 H   0  0  0  0  0  0  0  0  0  0  0  0
   13.5168   -1.4645  -18.9271 H   0  0  0  0  0  0  0  0  0  0  0  0
   13.0390   -0.7485  -20.4507 H   0  0  0  0  0  0  0  0  0  0  0  0
   15.7457   -1.4129  -19.0476 H   0  0  0  0  0  0  0  0  0  0  0  0
   15.6095   -1.0475  -20.7613 H   0  0  0  0  0  0  0  0  0  0  0  0
   16.8863    0.9719  -18.8727 H   0  0  0  0  0  0  0  0  0  0  0  0
   17.7887   -0.4634  -19.2906 H   0  0  0  0  0  0  0  0  0  0  0  0
   18.4201    2.4580  -20.2504 H   0  0  0  0  0  0  0  0  0  0  0  0
   19.3123    0.9718  -20.1280 H   0  0  0  0  0  0  0  0  0  0  0  0
   20.3035    2.0807  -21.9628 H   0  0  0  0  0  0  0  0  0  0  0  0
   19.3688    0.7887  -22.6584 H   0  0  0  0  0  0  0  0  0  0  0  0
   20.3034    3.7722  -23.4472 H   0  0  0  0  0  0  0  0  0  0  0  0
   18.8281    4.3701  -24.1912 H   0  0  0  0  0  0  0  0  0  0  0  0
   10.0096    2.5295  -15.6475 H   0  0  0  0  0  0  0  0  0  0  0  0
    6.6300    1.4266  -15.2367 H   0  0  0  0  0  0  0  0  0  0  0  0
    7.8585    2.1078  -16.2935 H   0  0  0  0  0  0  0  0  0  0  0  0
    8.3252    1.1109  -14.8914 H   0  0  0  0  0  0  0  0  0  0  0  0
    6.0214    5.0023  -11.6428 H   0  0  0  0  0  0  0  0  0  0  0  0
    5.9725    4.4297  -13.2978 H   0  0  0  0  0  0  0  0  0  0  0  0
    6.8853    3.5301  -12.0529 H   0  0  0  0  0  0  0  0  0  0  0  0
   11.0702    7.3528   -7.1534 H   0  0  0  0  0  0  0  0  0  0  0  0
  2  1  2  0
  3  2  1  0
  4  3  1  0
  5  4  1  0
  6  5  1  0
  7  6  1  0
  8  4  1  0
  8  7  1  0
  9  8  1  0
 10  9  1  0
 11 10  1  0
 12 11  2  0
 13 11  1  0
 14 13  1  0
 15 14  2  0
 16 15  1  0
 17 16  1  0
 18 17  1  0
 19 18  1  0
 20 19  1  0
 21 20  1  0
 22 21  1  0
 23 22  2  0
 24 22  1  0
 25 24  1  0
 26 25  1  0
 27 26  1  0
 28 27  1  0
 29 28  1  0
 30 29  1  0
 31 30  2  0
 32 30  1  0
 33 32  1  0
 34 33  1  0
 35 34  1  0
 36 35  1  0
 37 36  1  0
 38 37  1  0
 39 38  1  0
 40 39  1  0
 41 40  1  0
 42 41  1  0
 43 42  1  0
 44 43  1  0
 45 44  1  0
 46 45  1  0
 47 46  1  0
 48 47  1  0
 49 47  2  0
 50 20  1  0
 50 24  1  0
 51 50  2  0
 52 15  1  0
 53 52  2  0
 54 53  1  0
 55 54  1  0
 56 13  2  0
 56 53  1  0
 57 56  1  0
 58 57  1  0
 59  1  1  0
 60  1  1  0
 61  2  1  0
 62  3  1  0
 63  3  1  0
 64  5  1  0
 65  5  1  0
 66  6  1  0
 67  6  1  0
 68  7  1  0
 69  7  1  0
  8 70  1  6
 71  9  1  0
 72  9  1  0
 73 10  1  0
 74 14  1  0
 75 16  1  0
 76 16  1  0
 77 17  1  0
 78 17  1  0
 79 18  1  0
 80 18  1  0
 20 81  1  1
 82 21  1  0
 83 21  1  0
 84 25  1  0
 85 25  1  0
 86 26  1  0
 87 26  1  0
 88 27  1  0
 89 27  1  0
 90 28  1  0
 91 28  1  0
 92 29  1  0
 93 29  1  0
 94 32  1  0
 95 33  1  0
 96 33  1  0
 97 34  1  0
 98 34  1  0
 99 36  1  0
100 36  1  0
101 37  1  0
102 37  1  0
103 39  1  0
104 39  1  0
105 40  1  0
106 40  1  0
107 42  1  0
108 42  1  0
109 43  1  0
110 43  1  0
111 45  1  0
112 45  1  0
113 46  1  0
114 46  1  0
115 48  1  0
116 48  1  0
117 52  1  0
118 55  1  0
119 55  1  0
120 55  1  0
121 58  1  0
122 58  1  0
123 58  1  0
  4124  1  1
M  CHG  1   4   1
M  END
>  <b_m_subgroup_collapsed>  (538) 
0

>  <r_i_docking_score>  (538) 
-7.8312449783604299

>  <s_m_subgroup_title>  (538) 
glide-dock_SP_D22_pv

>  <s_m_subgroupid>  (538) 
glide-dock_SP_D22_pv

>  <Molecule ChEMBL ID>  (538) 
CHEMBL3265324

>  <Standard Type>  (538) 
Ki

>  <Standard Value>  (538) 
7.31

>  <label>  (538) 
1

$$$$
CHEMBL325772
     RDKit          3D

 52 55  0  0  1  0  0  0  0  0999 V2000
   12.0988    4.9210  -14.8100 C   0  0  0  0  0  0  0  0  0  0  0  0
   11.5792    4.4140  -13.5867 O   0  0  0  0  0  0  0  0  0  0  0  0
   10.2068    4.3481  -13.5450 C   0  0  0  0  0  0  0  0  0  0  0  0
    9.4593    5.3709  -12.9007 C   0  0  0  0  0  0  0  0  0  0  0  0
   10.1378    6.5472  -12.2469 C   0  0  0  0  0  0  0  0  0  0  0  0
   11.1809    7.0262  -12.6909 O   0  0  0  0  0  0  0  0  0  0  0  0
    9.5696    6.9854  -11.1139 N   0  0  0  0  0  0  0  0  0  0  0  0
   10.1023    8.0354  -10.2505 C   0  0  2  0  0  0  0  0  0  0  0  0
   11.5634    7.8471   -9.7907 C   0  0  0  0  0  0  0  0  0  0  0  0
   11.5021    7.7795   -8.2675 C   0  0  0  0  0  0  0  0  0  0  0  0
   10.2496    8.4671   -7.8944 N   0  0  2  0  0  0  0  0  0  0  0  0
    9.7428    8.1552   -6.5389 C   0  0  0  0  0  0  0  0  0  0  0  0
   10.8027    8.1883   -5.4468 C   0  0  0  0  0  0  0  0  0  0  0  0
   11.1883    9.4085   -4.8485 C   0  0  0  0  0  0  0  0  0  0  0  0
   11.9943    9.3995   -3.6923 C   0  0  0  0  0  0  0  0  0  0  0  0
   12.4384    8.1850   -3.1420 C   0  0  0  0  0  0  0  0  0  0  0  0
   12.0861    6.9720   -3.7563 C   0  0  0  0  0  0  0  0  0  0  0  0
   11.2859    6.9727   -4.9137 C   0  0  0  0  0  0  0  0  0  0  0  0
    9.2806    8.1364   -8.9603 C   0  0  0  0  0  0  0  0  0  0  0  0
    8.0497    5.2805  -12.8825 C   0  0  0  0  0  0  0  0  0  0  0  0
    7.3812    4.1884  -13.4629 C   0  0  0  0  0  0  0  0  0  0  0  0
    5.2861    4.1724  -13.3580 I   0  0  0  0  0  0  0  0  0  0  0  0
    8.1214    3.1484  -14.0742 C   0  0  0  0  0  0  0  0  0  0  0  0
    7.4766    2.0223  -14.6404 C   0  0  0  0  0  0  0  0  0  0  0  0
    8.2274    0.9684  -15.1937 C   0  0  0  0  0  0  0  0  0  0  0  0
    9.6308    1.0327  -15.1962 C   0  0  0  0  0  0  0  0  0  0  0  0
   10.2822    2.1550  -14.6544 C   0  0  0  0  0  0  0  0  0  0  0  0
    9.5404    3.2240  -14.0975 C   0  0  0  0  0  0  0  0  0  0  0  0
   13.1657    5.1114  -14.6980 H   0  0  0  0  0  0  0  0  0  0  0  0
   11.9714    4.2127  -15.6272 H   0  0  0  0  0  0  0  0  0  0  0  0
   11.6217    5.8596  -15.0929 H   0  0  0  0  0  0  0  0  0  0  0  0
    8.6919    6.5648  -10.8351 H   0  0  0  0  0  0  0  0  0  0  0  0
   10.0269    8.9722  -10.7997 H   0  0  0  0  0  0  0  0  0  0  0  0
   12.1513    8.7137  -10.0990 H   0  0  0  0  0  0  0  0  0  0  0  0
   12.0570    6.9723  -10.2095 H   0  0  0  0  0  0  0  0  0  0  0  0
   12.3785    8.2303   -7.7987 H   0  0  0  0  0  0  0  0  0  0  0  0
   11.4439    6.7354   -7.9519 H   0  0  0  0  0  0  0  0  0  0  0  0
    9.2812    7.1660   -6.5334 H   0  0  0  0  0  0  0  0  0  0  0  0
    8.9435    8.8532   -6.2916 H   0  0  0  0  0  0  0  0  0  0  0  0
   10.8116   10.3484   -5.2255 H   0  0  0  0  0  0  0  0  0  0  0  0
   12.2447   10.3222   -3.1918 H   0  0  0  0  0  0  0  0  0  0  0  0
   13.0373    8.1881   -2.2439 H   0  0  0  0  0  0  0  0  0  0  0  0
   12.4164    6.0361   -3.3283 H   0  0  0  0  0  0  0  0  0  0  0  0
   10.9879    6.0301   -5.3479 H   0  0  0  0  0  0  0  0  0  0  0  0
    8.7988    7.1798   -8.7433 H   0  0  0  0  0  0  0  0  0  0  0  0
    8.4896    8.8858   -9.0289 H   0  0  0  0  0  0  0  0  0  0  0  0
    7.4556    6.0546  -12.4160 H   0  0  0  0  0  0  0  0  0  0  0  0
    6.4020    1.9340  -14.6416 H   0  0  0  0  0  0  0  0  0  0  0  0
    7.7258    0.1036  -15.6050 H   0  0  0  0  0  0  0  0  0  0  0  0
   10.2095    0.2199  -15.6097 H   0  0  0  0  0  0  0  0  0  0  0  0
   11.3615    2.1747  -14.6568 H   0  0  0  0  0  0  0  0  0  0  0  0
   10.4348    9.4582   -7.9448 H   0  0  0  0  0  0  0  0  0  0  0  0
  2  1  1  0
  3  2  1  0
  4  3  2  0
  5  4  1  0
  6  5  2  0
  7  5  1  0
  8  7  1  0
  9  8  1  0
 10  9  1  0
 11 10  1  0
 12 11  1  0
 13 12  1  0
 14 13  2  0
 15 14  1  0
 16 15  2  0
 17 16  1  0
 18 13  1  0
 18 17  2  0
 19  8  1  0
 19 11  1  0
 20  4  1  0
 21 20  2  0
 22 21  1  0
 23 21  1  0
 24 23  2  0
 25 24  1  0
 26 25  2  0
 27 26  1  0
 28  3  1  0
 28 23  1  0
 28 27  2  0
 29  1  1  0
 30  1  1  0
 31  1  1  0
 32  7  1  0
  8 33  1  6
 34  9  1  0
 35  9  1  0
 36 10  1  0
 37 10  1  0
 38 12  1  0
 39 12  1  0
 40 14  1  0
 41 15  1  0
 42 16  1  0
 43 17  1  0
 44 18  1  0
 45 19  1  0
 46 19  1  0
 47 20  1  0
 48 24  1  0
 49 25  1  0
 50 26  1  0
 51 27  1  0
 11 52  1  1
M  CHG  1  11   1
M  END
>  <b_m_subgroup_collapsed>  (539) 
0

>  <r_i_docking_score>  (539) 
-7.8259319641909997

>  <s_m_subgroup_title>  (539) 
glide-dock_SP_D22_pv

>  <s_m_subgroupid>  (539) 
glide-dock_SP_D22_pv

>  <Molecule ChEMBL ID>  (539) 
CHEMBL325772

>  <Standard Type>  (539) 
Ki

>  <Standard Value>  (539) 
70.0

>  <label>  (539) 
1

$$$$
CHEMBL5722942
     RDKit          3D

 46 48  0  0  1  0  0  0  0  0999 V2000
   11.4807    6.1739   -3.6433 C   0  0  0  0  0  0  0  0  0  0  0  0
   11.6856    7.5347   -4.1956 C   0  0  0  0  0  0  0  0  0  0  0  0
   12.4861    8.3513   -3.5498 N   0  0  0  0  0  0  0  0  0  0  0  0
   12.4862    9.4490   -4.3093 N   0  0  0  0  0  0  0  0  0  0  0  0
   11.6513    9.3660   -5.3942 C   0  0  0  0  0  0  0  0  0  0  0  0
   11.4638   10.4933   -6.3426 C   0  0  0  0  0  0  0  0  0  0  0  0
   11.0805    8.1273   -5.3454 C   0  0  0  0  0  0  0  0  0  0  0  0
   10.0146    7.5525   -6.2432 C   0  0  0  0  0  0  0  0  0  0  0  0
   10.5804    6.8058   -7.4629 C   0  0  0  0  0  0  0  0  0  0  0  0
    9.4669    6.3439   -8.4233 C   0  0  0  0  0  0  0  0  0  0  0  0
    8.8861    7.4831   -9.1716 N   0  0  0  0  0  0  0  0  0  0  0  0
    9.5248    7.8063  -10.4682 C   0  0  0  0  0  0  0  0  0  0  0  0
    9.3476    6.6983  -11.4983 C   0  0  0  0  0  0  0  0  0  0  0  0
   10.3636    6.2278  -12.2480 C   0  0  0  0  0  0  0  0  0  0  0  0
   10.1688    5.1026  -13.1897 C   0  0  0  0  0  0  0  0  0  0  0  0
   11.1046    4.6521  -13.8502 O   0  0  0  0  0  0  0  0  0  0  0  0
    8.7841    4.5539  -13.2735 C   0  0  0  0  0  0  0  0  0  0  0  0
    8.4824    3.4776  -14.1378 C   0  0  0  0  0  0  0  0  0  0  0  0
    7.1688    2.9722  -14.2047 C   0  0  0  0  0  0  0  0  0  0  0  0
    6.8863    1.9387  -15.0319 F   0  0  0  0  0  0  0  0  0  0  0  0
    6.1526    3.5440  -13.4131 C   0  0  0  0  0  0  0  0  0  0  0  0
    6.4475    4.6143  -12.5472 C   0  0  0  0  0  0  0  0  0  0  0  0
    7.7614    5.1158  -12.4705 C   0  0  0  0  0  0  0  0  0  0  0  0
    8.0677    6.1724  -11.6069 N   0  0  0  0  0  0  0  0  0  0  0  0
   11.1191    5.5347   -4.4414 H   0  0  0  0  0  0  0  0  0  0  0  0
   12.4144    5.7719   -3.2490 H   0  0  0  0  0  0  0  0  0  0  0  0
   10.7440    6.1732   -2.8383 H   0  0  0  0  0  0  0  0  0  0  0  0
   13.0497   10.2493   -4.0646 H   0  0  0  0  0  0  0  0  0  0  0  0
   11.4608   10.1289   -7.3677 H   0  0  0  0  0  0  0  0  0  0  0  0
   10.5039   10.9719   -6.1574 H   0  0  0  0  0  0  0  0  0  0  0  0
   12.2492   11.2426   -6.2471 H   0  0  0  0  0  0  0  0  0  0  0  0
    9.3471    8.3492   -6.5740 H   0  0  0  0  0  0  0  0  0  0  0  0
    9.3788    6.8675   -5.6809 H   0  0  0  0  0  0  0  0  0  0  0  0
   11.1389    5.9372   -7.1084 H   0  0  0  0  0  0  0  0  0  0  0  0
   11.3011    7.4313   -7.9922 H   0  0  0  0  0  0  0  0  0  0  0  0
    8.6709    5.8631   -7.8513 H   0  0  0  0  0  0  0  0  0  0  0  0
    9.8481    5.5824   -9.1027 H   0  0  0  0  0  0  0  0  0  0  0  0
    8.9187    8.2938   -8.5741 H   0  0  0  0  0  0  0  0  0  0  0  0
   10.5822    8.0157  -10.3090 H   0  0  0  0  0  0  0  0  0  0  0  0
    9.0726    8.7173  -10.8591 H   0  0  0  0  0  0  0  0  0  0  0  0
   11.3582    6.6401  -12.1631 H   0  0  0  0  0  0  0  0  0  0  0  0
    9.2522    3.0339  -14.7556 H   0  0  0  0  0  0  0  0  0  0  0  0
    5.1460    3.1558  -13.4642 H   0  0  0  0  0  0  0  0  0  0  0  0
    5.6694    5.0435  -11.9325 H   0  0  0  0  0  0  0  0  0  0  0  0
    7.2961    6.6359  -11.1210 H   0  0  0  0  0  0  0  0  0  0  0  0
    7.8971    7.3220   -9.3672 H   0  0  0  0  0  0  0  0  0  0  0  0
  2  1  1  0
  3  2  2  0
  4  3  1  0
  5  4  1  0
  6  5  1  0
  7  2  1  0
  7  5  2  0
  8  7  1  0
  9  8  1  0
 10  9  1  0
 11 10  1  0
 12 11  1  0
 13 12  1  0
 14 13  2  0
 15 14  1  0
 16 15  2  0
 17 15  1  0
 18 17  2  0
 19 18  1  0
 20 19  1  0
 21 19  2  0
 22 21  1  0
 23 17  1  0
 23 22  2  0
 24 13  1  0
 24 23  1  0
 25  1  1  0
 26  1  1  0
 27  1  1  0
 28  4  1  0
 29  6  1  0
 30  6  1  0
 31  6  1  0
 32  8  1  0
 33  8  1  0
 34  9  1  0
 35  9  1  0
 36 10  1  0
 37 10  1  0
 38 11  1  0
 39 12  1  0
 40 12  1  0
 41 14  1  0
 42 18  1  0
 43 21  1  0
 44 22  1  0
 45 24  1  0
 46 11  1  0
M  CHG  1  11   1
M  END
>  <b_m_subgroup_collapsed>  (540) 
0

>  <r_i_docking_score>  (540) 
-7.82094457096255

>  <s_m_subgroup_title>  (540) 
glide-dock_SP_D22_pv

>  <s_m_subgroupid>  (540) 
glide-dock_SP_D22_pv

>  <Molecule ChEMBL ID>  (540) 
CHEMBL5722942

>  <Standard Type>  (540) 
Ki

>  <Standard Value>  (540) 
10000.0

>  <label>  (540) 
0

$$$$
CHEMBL156851
     RDKit          3D

 48 51  0  0  1  0  0  0  0  0999 V2000
    9.0644    1.4407  -15.3195 C   0  0  0  0  0  0  0  0  0  0  0  0
    8.5837    2.3482  -14.6591 C   0  0  0  0  0  0  0  0  0  0  0  0
    7.9992    3.4088  -13.8474 C   0  0  0  0  0  0  0  0  0  0  0  0
    6.6577    3.3734  -13.5354 C   0  0  0  0  0  0  0  0  0  0  0  0
    6.0830    4.3756  -12.7205 C   0  0  0  0  0  0  0  0  0  0  0  0
    6.8512    5.4092  -12.2383 C   0  0  0  0  0  0  0  0  0  0  0  0
    8.2337    5.4659  -12.5565 C   0  0  0  0  0  0  0  0  0  0  0  0
    9.2691    6.3222  -12.2678 C   0  0  0  0  0  0  0  0  0  0  0  0
    9.2487    7.6010  -11.4721 C   0  0  0  0  0  0  0  0  0  0  0  0
    9.2859    7.3935  -10.0012 N   0  0  0  0  0  0  0  0  0  0  0  0
   10.3789    6.5001   -9.5237 C   0  0  0  0  0  0  0  0  0  0  0  0
   10.3959    6.3451   -7.9885 C   0  0  0  0  0  0  0  0  0  0  0  0
   10.3374    7.6505   -7.3394 N   0  0  0  0  0  0  0  0  0  0  0  0
   10.8872    7.8661   -6.0563 C   0  0  0  0  0  0  0  0  0  0  0  0
   11.0679    9.1816   -5.5621 C   0  0  0  0  0  0  0  0  0  0  0  0
   11.5756    9.4022   -4.2667 C   0  0  0  0  0  0  0  0  0  0  0  0
   11.9214    8.3129   -3.4489 C   0  0  0  0  0  0  0  0  0  0  0  0
   12.4862    8.5727   -1.8460 Cl  0  0  0  0  0  0  0  0  0  0  0  0
   11.7833    7.0033   -3.9343 C   0  0  0  0  0  0  0  0  0  0  0  0
   11.2827    6.7883   -5.2303 C   0  0  0  0  0  0  0  0  0  0  0  0
    9.1834    8.4376   -7.7505 C   0  0  0  0  0  0  0  0  0  0  0  0
    9.2470    8.6819   -9.2637 C   0  0  0  0  0  0  0  0  0  0  0  0
   10.3794    5.7710  -12.9714 C   0  0  0  0  0  0  0  0  0  0  0  0
   11.7565    6.3560  -13.0710 C   0  0  0  0  0  0  0  0  0  0  0  0
   10.1016    4.6493  -13.5963 N   0  0  0  0  0  0  0  0  0  0  0  0
    8.7629    4.4412  -13.3689 N   0  0  0  0  0  0  0  0  0  0  0  0
    9.4838    0.6425  -15.8892 H   0  0  0  0  0  0  0  0  0  0  0  0
    6.0377    2.5610  -13.9026 H   0  0  0  0  0  0  0  0  0  0  0  0
    5.0293    4.3273  -12.4641 H   0  0  0  0  0  0  0  0  0  0  0  0
    6.4107    6.1724  -11.6035 H   0  0  0  0  0  0  0  0  0  0  0  0
   10.0845    8.2384  -11.7612 H   0  0  0  0  0  0  0  0  0  0  0  0
    8.3493    8.1662  -11.7218 H   0  0  0  0  0  0  0  0  0  0  0  0
   10.2796    5.5117   -9.9710 H   0  0  0  0  0  0  0  0  0  0  0  0
   11.3340    6.9113   -9.8525 H   0  0  0  0  0  0  0  0  0  0  0  0
    9.5380    5.7545   -7.6627 H   0  0  0  0  0  0  0  0  0  0  0  0
   11.2866    5.7925   -7.6990 H   0  0  0  0  0  0  0  0  0  0  0  0
   10.8208   10.0405   -6.1671 H   0  0  0  0  0  0  0  0  0  0  0  0
   11.6818   10.4084   -3.8911 H   0  0  0  0  0  0  0  0  0  0  0  0
   12.0473    6.1620   -3.3106 H   0  0  0  0  0  0  0  0  0  0  0  0
   11.1717    5.7723   -5.5602 H   0  0  0  0  0  0  0  0  0  0  0  0
    8.2764    7.8868   -7.4958 H   0  0  0  0  0  0  0  0  0  0  0  0
    9.1099    9.3724   -7.2149 H   0  0  0  0  0  0  0  0  0  0  0  0
   10.1338    9.2706   -9.5053 H   0  0  0  0  0  0  0  0  0  0  0  0
    8.3861    9.2722   -9.5782 H   0  0  0  0  0  0  0  0  0  0  0  0
   12.0224    6.9381  -12.1886 H   0  0  0  0  0  0  0  0  0  0  0  0
   12.5111    5.5770  -13.1878 H   0  0  0  0  0  0  0  0  0  0  0  0
   11.8344    7.0174  -13.9343 H   0  0  0  0  0  0  0  0  0  0  0  0
    8.4022    6.9493   -9.7755 H   0  0  0  0  0  0  0  0  0  0  0  0
  2  1  3  0
  3  2  1  0
  4  3  2  0
  5  4  1  0
  6  5  2  0
  7  6  1  0
  8  7  2  0
  9  8  1  0
 10  9  1  0
 11 10  1  0
 12 11  1  0
 13 12  1  0
 14 13  1  0
 15 14  1  0
 16 15  2  0
 17 16  1  0
 18 17  1  0
 19 17  2  0
 20 14  2  0
 20 19  1  0
 21 13  1  0
 22 10  1  0
 22 21  1  0
 23  8  1  0
 24 23  1  0
 25 23  2  0
 26  3  1  0
 26  7  1  0
 26 25  1  0
 27  1  1  0
 28  4  1  0
 29  5  1  0
 30  6  1  0
 31  9  1  0
 32  9  1  0
 33 11  1  0
 34 11  1  0
 35 12  1  0
 36 12  1  0
 37 15  1  0
 38 16  1  0
 39 19  1  0
 40 20  1  0
 41 21  1  0
 42 21  1  0
 43 22  1  0
 44 22  1  0
 45 24  1  0
 46 24  1  0
 47 24  1  0
 48 10  1  0
M  CHG  1  10   1
M  END
>  <b_m_subgroup_collapsed>  (541) 
0

>  <r_i_docking_score>  (541) 
-7.8185186277374896

>  <s_m_subgroup_title>  (541) 
glide-dock_SP_D22_pv

>  <s_m_subgroupid>  (541) 
glide-dock_SP_D22_pv

>  <Molecule ChEMBL ID>  (541) 
CHEMBL156851

>  <Standard Type>  (541) 
Ki

>  <Standard Value>  (541) 
21000.0

>  <label>  (541) 
0

$$$$
CHEMBL5722985
     RDKit          3D

 47 49  0  0  1  0  0  0  0  0999 V2000
    6.8440    1.3829  -15.0867 C   0  0  0  0  0  0  0  0  0  0  0  0
    7.1074    2.6152  -14.2468 C   0  0  0  0  0  0  0  0  0  0  0  0
    6.0848    3.1720  -13.4492 C   0  0  0  0  0  0  0  0  0  0  0  0
    6.3372    4.3119  -12.6604 C   0  0  0  0  0  0  0  0  0  0  0  0
    7.6169    4.8991  -12.6634 C   0  0  0  0  0  0  0  0  0  0  0  0
    7.8838    6.0298  -11.8815 N   0  0  0  0  0  0  0  0  0  0  0  0
    9.1393    6.6185  -11.8439 C   0  0  0  0  0  0  0  0  0  0  0  0
    9.2834    7.7827  -10.8879 C   0  0  0  0  0  0  0  0  0  0  0  0
    8.8865    7.3518   -9.5304 N   0  0  0  0  0  0  0  0  0  0  0  0
    9.3500    8.2109   -8.4212 C   0  0  0  0  0  0  0  0  0  0  0  0
   10.8697    8.0858   -8.2050 C   0  0  0  0  0  0  0  0  0  0  0  0
   11.4120    8.8324   -6.9774 C   0  0  0  0  0  0  0  0  0  0  0  0
   11.0032    8.2460   -5.6120 C   0  0  1  0  0  0  0  0  0  0  0  0
   11.2112    6.7501   -5.4401 C   0  0  0  0  0  0  0  0  0  0  0  0
   11.4269    6.5736   -3.9359 C   0  0  0  0  0  0  0  0  0  0  0  0
   11.6891    7.8675   -3.3999 O   0  0  0  0  0  0  0  0  0  0  0  0
   11.8214    8.8136   -4.4507 C   0  0  0  0  0  0  0  0  0  0  0  0
   10.1693    6.1518  -12.5801 C   0  0  0  0  0  0  0  0  0  0  0  0
   10.0062    4.9693  -13.4511 C   0  0  0  0  0  0  0  0  0  0  0  0
   10.9468    4.5325  -14.1149 O   0  0  0  0  0  0  0  0  0  0  0  0
    8.6514    4.3453  -13.4591 C   0  0  0  0  0  0  0  0  0  0  0  0
    8.3898    3.2024  -14.2478 C   0  0  0  0  0  0  0  0  0  0  0  0
    7.7134    0.7257  -15.0901 H   0  0  0  0  0  0  0  0  0  0  0  0
    5.9976    0.8163  -14.6985 H   0  0  0  0  0  0  0  0  0  0  0  0
    6.6236    1.6672  -16.1153 H   0  0  0  0  0  0  0  0  0  0  0  0
    5.1008    2.7248  -13.4405 H   0  0  0  0  0  0  0  0  0  0  0  0
    5.5500    4.7275  -12.0475 H   0  0  0  0  0  0  0  0  0  0  0  0
    7.1213    6.4440  -11.3456 H   0  0  0  0  0  0  0  0  0  0  0  0
   10.3123    8.1376  -10.9170 H   0  0  0  0  0  0  0  0  0  0  0  0
    8.6499    8.6114  -11.2107 H   0  0  0  0  0  0  0  0  0  0  0  0
    7.8621    7.3720   -9.5482 H   0  0  0  0  0  0  0  0  0  0  0  0
    9.0618    9.2467   -8.6064 H   0  0  0  0  0  0  0  0  0  0  0  0
    8.8177    7.8939   -7.5237 H   0  0  0  0  0  0  0  0  0  0  0  0
   11.1548    7.0351   -8.1533 H   0  0  0  0  0  0  0  0  0  0  0  0
   11.3958    8.4866   -9.0711 H   0  0  0  0  0  0  0  0  0  0  0  0
   12.4968    8.8380   -7.0494 H   0  0  0  0  0  0  0  0  0  0  0  0
   11.1160    9.8804   -7.0221 H   0  0  0  0  0  0  0  0  0  0  0  0
    9.9509    8.4570   -5.4480 H   0  0  0  0  0  0  0  0  0  0  0  0
   10.3624    6.1725   -5.8042 H   0  0  0  0  0  0  0  0  0  0  0  0
   12.0860    6.4066   -5.9856 H   0  0  0  0  0  0  0  0  0  0  0  0
   12.2504    5.8941   -3.7204 H   0  0  0  0  0  0  0  0  0  0  0  0
   10.5335    6.1723   -3.4608 H   0  0  0  0  0  0  0  0  0  0  0  0
   12.8783    8.8919   -4.7095 H   0  0  0  0  0  0  0  0  0  0  0  0
   11.4779    9.8011   -4.1381 H   0  0  0  0  0  0  0  0  0  0  0  0
   11.1449    6.6094  -12.5340 H   0  0  0  0  0  0  0  0  0  0  0  0
    9.1726    2.7701  -14.8535 H   0  0  0  0  0  0  0  0  0  0  0  0
    9.1819    6.4003   -9.3777 H   0  0  0  0  0  0  0  0  0  0  0  0
  2  1  1  0
  3  2  2  0
  4  3  1  0
  5  4  2  0
  6  5  1  0
  7  6  1  0
  8  7  1  0
  9  8  1  0
 10  9  1  0
 11 10  1  0
 12 11  1  0
 13 12  1  0
 14 13  1  0
 15 14  1  0
 16 15  1  0
 17 13  1  0
 17 16  1  0
 18  7  2  0
 19 18  1  0
 20 19  2  0
 21  5  1  0
 21 19  1  0
 22  2  1  0
 22 21  2  0
 23  1  1  0
 24  1  1  0
 25  1  1  0
 26  3  1  0
 27  4  1  0
 28  6  1  0
 29  8  1  0
 30  8  1  0
 31  9  1  0
 32 10  1  0
 33 10  1  0
 34 11  1  0
 35 11  1  0
 36 12  1  0
 37 12  1  0
 13 38  1  1
 39 14  1  0
 40 14  1  0
 41 15  1  0
 42 15  1  0
 43 17  1  0
 44 17  1  0
 45 18  1  0
 46 22  1  0
 47  9  1  0
M  CHG  1   9   1
M  END
>  <b_m_subgroup_collapsed>  (542) 
0

>  <r_i_docking_score>  (542) 
-7.8177585643458301

>  <s_m_subgroup_title>  (542) 
glide-dock_SP_D22_pv

>  <s_m_subgroupid>  (542) 
glide-dock_SP_D22_pv

>  <Molecule ChEMBL ID>  (542) 
CHEMBL5722985

>  <Standard Type>  (542) 
Ki

>  <Standard Value>  (542) 
10000.0

>  <label>  (542) 
0

$$$$
CHEMBL3358513
     RDKit          3D

 58 61  0  0  1  0  0  0  0  0999 V2000
   11.1608    9.5323   -6.9372 O   0  0  0  0  0  0  0  0  0  0  0  0
   10.8427    8.5573   -6.2577 C   0  0  0  0  0  0  0  0  0  0  0  0
    9.9676    7.6236   -6.6557 N   0  0  0  0  0  0  0  0  0  0  0  0
    9.3056    7.5896   -7.9526 C   0  0  0  0  0  0  0  0  0  0  0  0
   10.2938    7.1991   -9.0702 C   0  0  0  0  0  0  0  0  0  0  0  0
    9.6165    6.8966  -10.4144 C   0  0  0  0  0  0  0  0  0  0  0  0
    8.9191    5.5297  -10.4105 C   0  0  0  0  0  0  0  0  0  0  0  0
    8.2978    5.2315  -11.7233 N   0  0  0  0  0  0  0  0  0  0  0  0
    6.8902    4.7982  -11.5712 C   0  0  0  0  0  0  0  0  0  0  0  0
    6.2255    4.5712  -12.9217 C   0  0  0  0  0  0  0  0  0  0  0  0
    7.0088    3.6176  -13.6952 N   0  0  0  0  0  0  0  0  0  0  0  0
    6.4935    2.3339  -13.9694 C   0  0  0  0  0  0  0  0  0  0  0  0
    5.5168    1.7216  -13.1438 C   0  0  0  0  0  0  0  0  0  0  0  0
    4.8859    0.5695  -13.4474 N   0  0  0  0  0  0  0  0  0  0  0  0
    5.1782   -0.0381  -14.6174 C   0  0  0  0  0  0  0  0  0  0  0  0
    4.4256   -1.1528  -15.0307 C   0  0  0  0  0  0  0  0  0  0  0  0
    4.6761   -1.7808  -16.2634 C   0  0  0  0  0  0  0  0  0  0  0  0
    5.6964   -1.3015  -17.1032 C   0  0  0  0  0  0  0  0  0  0  0  0
    6.4672   -0.1921  -16.7075 C   0  0  0  0  0  0  0  0  0  0  0  0
    6.1985    0.4475  -15.4797 C   0  0  0  0  0  0  0  0  0  0  0  0
    6.8859    1.6284  -15.1297 C   0  0  0  0  0  0  0  0  0  0  0  0
    8.4194    3.9393  -13.8937 C   0  0  0  0  0  0  0  0  0  0  0  0
    9.1047    4.2905  -12.5533 C   0  0  0  0  0  0  0  0  0  0  0  0
   11.3746    8.3825   -4.8686 C   0  0  0  0  0  0  0  0  0  0  0  0
   11.5897    9.5166   -4.0610 C   0  0  0  0  0  0  0  0  0  0  0  0
   12.0861    9.3723   -2.7538 C   0  0  0  0  0  0  0  0  0  0  0  0
   12.3876    8.0979   -2.2452 C   0  0  0  0  0  0  0  0  0  0  0  0
   12.1832    6.9597   -3.0465 C   0  0  0  0  0  0  0  0  0  0  0  0
   11.6858    7.1002   -4.3569 C   0  0  0  0  0  0  0  0  0  0  0  0
    9.7305    6.8939   -5.9990 H   0  0  0  0  0  0  0  0  0  0  0  0
    8.8416    8.5553   -8.1670 H   0  0  0  0  0  0  0  0  0  0  0  0
    8.4907    6.8706   -7.8764 H   0  0  0  0  0  0  0  0  0  0  0  0
   10.8840    6.3336   -8.7617 H   0  0  0  0  0  0  0  0  0  0  0  0
   11.0043    8.0156   -9.2141 H   0  0  0  0  0  0  0  0  0  0  0  0
   10.3733    6.9125  -11.2001 H   0  0  0  0  0  0  0  0  0  0  0  0
    8.8975    7.6851  -10.6532 H   0  0  0  0  0  0  0  0  0  0  0  0
    8.1553    5.5292   -9.6315 H   0  0  0  0  0  0  0  0  0  0  0  0
    9.6213    4.7424  -10.1291 H   0  0  0  0  0  0  0  0  0  0  0  0
    6.3332    5.5737  -11.0469 H   0  0  0  0  0  0  0  0  0  0  0  0
    6.8794    3.8759  -10.9898 H   0  0  0  0  0  0  0  0  0  0  0  0
    6.1864    5.5217  -13.4468 H   0  0  0  0  0  0  0  0  0  0  0  0
    5.1875    4.2641  -12.8006 H   0  0  0  0  0  0  0  0  0  0  0  0
    5.2032    2.1762  -12.2156 H   0  0  0  0  0  0  0  0  0  0  0  0
    3.6225   -1.5177  -14.4082 H   0  0  0  0  0  0  0  0  0  0  0  0
    4.0791   -2.6275  -16.5690 H   0  0  0  0  0  0  0  0  0  0  0  0
    5.8869   -1.7870  -18.0497 H   0  0  0  0  0  0  0  0  0  0  0  0
    7.2422    0.1765  -17.3627 H   0  0  0  0  0  0  0  0  0  0  0  0
    7.6234    2.0395  -15.8014 H   0  0  0  0  0  0  0  0  0  0  0  0
    8.9591    3.1187  -14.3688 H   0  0  0  0  0  0  0  0  0  0  0  0
    8.4814    4.7900  -14.5745 H   0  0  0  0  0  0  0  0  0  0  0  0
   10.0877    4.7244  -12.7444 H   0  0  0  0  0  0  0  0  0  0  0  0
    9.2828    3.3729  -11.9917 H   0  0  0  0  0  0  0  0  0  0  0  0
   11.3540   10.5034   -4.4376 H   0  0  0  0  0  0  0  0  0  0  0  0
   12.2300   10.2420   -2.1373 H   0  0  0  0  0  0  0  0  0  0  0  0
   12.7744    7.9996   -1.2424 H   0  0  0  0  0  0  0  0  0  0  0  0
   12.4142    5.9774   -2.6610 H   0  0  0  0  0  0  0  0  0  0  0  0
   11.5461    6.2153   -4.9610 H   0  0  0  0  0  0  0  0  0  0  0  0
    8.2470    6.1082  -12.2221 H   0  0  0  0  0  0  0  0  0  0  0  0
  2  1  2  0
  3  2  1  0
  4  3  1  0
  5  4  1  0
  6  5  1  0
  7  6  1  0
  8  7  1  0
  9  8  1  0
 10  9  1  0
 11 10  1  0
 12 11  1  0
 13 12  1  0
 14 13  2  0
 15 14  1  0
 16 15  2  0
 17 16  1  0
 18 17  2  0
 19 18  1  0
 20 15  1  0
 20 19  2  0
 21 12  2  0
 21 20  1  0
 22 11  1  0
 23  8  1  0
 23 22  1  0
 24  2  1  0
 25 24  2  0
 26 25  1  0
 27 26  2  0
 28 27  1  0
 29 24  1  0
 29 28  2  0
 30  3  1  0
 31  4  1  0
 32  4  1  0
 33  5  1  0
 34  5  1  0
 35  6  1  0
 36  6  1  0
 37  7  1  0
 38  7  1  0
 39  9  1  0
 40  9  1  0
 41 10  1  0
 42 10  1  0
 43 13  1  0
 44 16  1  0
 45 17  1  0
 46 18  1  0
 47 19  1  0
 48 21  1  0
 49 22  1  0
 50 22  1  0
 51 23  1  0
 52 23  1  0
 53 25  1  0
 54 26  1  0
 55 27  1  0
 56 28  1  0
 57 29  1  0
 58  8  1  0
M  CHG  1   8   1
M  END
>  <b_m_subgroup_collapsed>  (543) 
0

>  <r_i_docking_score>  (543) 
-7.8172730239960302

>  <s_m_subgroup_title>  (543) 
glide-dock_SP_D22_pv

>  <s_m_subgroupid>  (543) 
glide-dock_SP_D22_pv

>  <Molecule ChEMBL ID>  (543) 
CHEMBL3358513

>  <Standard Type>  (543) 
Ki

>  <Standard Value>  (543) 
1.0

>  <label>  (543) 
1

$$$$
CHEMBL3676933
     RDKit          3D

 80 84  0  0  1  0  0  0  0  0999 V2000
   13.5519    7.4045  -18.6538 C   0  0  0  0  0  0  0  0  0  0  0  0
   13.5340    6.5269  -17.3845 C   0  0  0  0  0  0  0  0  0  0  0  0
   13.0959    7.3796  -16.1775 C   0  0  0  0  0  0  0  0  0  0  0  0
   14.9818    6.0485  -17.1311 C   0  0  0  0  0  0  0  0  0  0  0  0
   12.5394    5.3621  -17.5510 C   0  0  0  0  0  0  0  0  0  0  0  0
   12.9029    4.0100  -17.3202 C   0  0  0  0  0  0  0  0  0  0  0  0
   11.9426    2.9811  -17.3988 C   0  0  0  0  0  0  0  0  0  0  0  0
   10.6082    3.2971  -17.7095 C   0  0  0  0  0  0  0  0  0  0  0  0
    9.3415    2.0335  -17.6231 S   0  0  0  0  0  0  0  0  0  0  0  0
    8.0862    2.5713  -18.1696 O   0  0  0  0  0  0  0  0  0  0  0  0
    9.9038    0.7705  -18.1240 O   0  0  0  0  0  0  0  0  0  0  0  0
    9.1354    1.8567  -15.9165 N   0  0  0  0  0  0  0  0  0  0  0  0
    8.9111    3.0475  -15.0919 C   0  0  1  0  0  0  0  0  0  0  0  0
    7.6217    2.9309  -14.2605 C   0  0  0  0  0  0  0  0  0  0  0  0
    7.4377    4.1261  -13.2932 C   0  0  0  0  0  0  0  0  0  0  0  0
    8.7009    4.4707  -12.4698 C   0  0  2  0  0  0  0  0  0  0  0  0
    8.4892    5.7378  -11.5997 C   0  0  0  0  0  0  0  0  0  0  0  0
    9.7468    6.0690  -10.7770 C   0  0  0  0  0  0  0  0  0  0  0  0
    9.6510    7.2201   -9.8480 N   0  0  2  0  0  0  0  0  0  0  0  0
   11.0083    7.7483   -9.5238 C   0  0  0  0  0  0  0  0  0  0  0  0
   10.9610    8.9679   -8.5956 C   0  0  0  0  0  0  0  0  0  0  0  0
   10.1480    8.7256   -7.3135 C   0  0  2  0  0  0  0  0  0  0  0  0
   10.8610    7.9344   -6.2454 C   0  0  0  0  0  0  0  0  0  0  0  0
   11.1574    6.5897   -6.2290 C   0  0  0  0  0  0  0  0  0  0  0  0
   11.6860    6.1843   -5.0408 O   0  0  0  0  0  0  0  0  0  0  0  0
   11.8291    7.3057   -4.2688 C   0  0  0  0  0  0  0  0  0  0  0  0
   12.3793    7.3736   -2.9795 C   0  0  0  0  0  0  0  0  0  0  0  0
   12.4804    8.6318   -2.3646 C   0  0  0  0  0  0  0  0  0  0  0  0
   12.0119    9.7723   -3.0467 C   0  0  0  0  0  0  0  0  0  0  0  0
   11.4367    9.6785   -4.3323 C   0  0  0  0  0  0  0  0  0  0  0  0
   11.3481    8.4310   -4.9866 C   0  0  0  0  0  0  0  0  0  0  0  0
    8.7814    8.1257   -7.6827 C   0  0  0  0  0  0  0  0  0  0  0  0
    8.8852    6.9032   -8.6213 C   0  0  0  0  0  0  0  0  0  0  0  0
    9.9445    4.5595  -13.3847 C   0  0  0  0  0  0  0  0  0  0  0  0
   10.1271    3.2742  -14.1905 C   0  0  0  0  0  0  0  0  0  0  0  0
   10.2368    4.6259  -17.9857 C   0  0  0  0  0  0  0  0  0  0  0  0
   11.1967    5.6494  -17.8997 C   0  0  0  0  0  0  0  0  0  0  0  0
   13.8168    6.8201  -19.5369 H   0  0  0  0  0  0  0  0  0  0  0  0
   12.5891    7.8766  -18.8502 H   0  0  0  0  0  0  0  0  0  0  0  0
   14.2789    8.2141  -18.5679 H   0  0  0  0  0  0  0  0  0  0  0  0
   13.1051    6.7953  -15.2579 H   0  0  0  0  0  0  0  0  0  0  0  0
   13.7516    8.2379  -16.0363 H   0  0  0  0  0  0  0  0  0  0  0  0
   12.0871    7.7720  -16.3030 H   0  0  0  0  0  0  0  0  0  0  0  0
   15.3473    5.4218  -17.9444 H   0  0  0  0  0  0  0  0  0  0  0  0
   15.6657    6.8938  -17.0469 H   0  0  0  0  0  0  0  0  0  0  0  0
   15.0667    5.4836  -16.2025 H   0  0  0  0  0  0  0  0  0  0  0  0
   13.9114    3.7332  -17.0472 H   0  0  0  0  0  0  0  0  0  0  0  0
   12.2229    1.9618  -17.1773 H   0  0  0  0  0  0  0  0  0  0  0  0
    9.8554    1.2539  -15.5216 H   0  0  0  0  0  0  0  0  0  0  0  0
    8.8274    3.9157  -15.7437 H   0  0  0  0  0  0  0  0  0  0  0  0
    6.7570    2.8645  -14.9218 H   0  0  0  0  0  0  0  0  0  0  0  0
    7.6380    1.9961  -13.7042 H   0  0  0  0  0  0  0  0  0  0  0  0
    7.1421    5.0062  -13.8561 H   0  0  0  0  0  0  0  0  0  0  0  0
    6.6060    3.9188  -12.6190 H   0  0  0  0  0  0  0  0  0  0  0  0
    8.8850    3.6404  -11.7934 H   0  0  0  0  0  0  0  0  0  0  0  0
    8.2288    6.5888  -12.2319 H   0  0  0  0  0  0  0  0  0  0  0  0
    7.6339    5.5795  -10.9421 H   0  0  0  0  0  0  0  0  0  0  0  0
   10.0866    5.1836  -10.2373 H   0  0  0  0  0  0  0  0  0  0  0  0
   10.5035    6.3383  -11.5006 H   0  0  0  0  0  0  0  0  0  0  0  0
   11.6096    6.9683   -9.0607 H   0  0  0  0  0  0  0  0  0  0  0  0
   11.5238    8.0327  -10.4422 H   0  0  0  0  0  0  0  0  0  0  0  0
   11.9693    9.3086   -8.3551 H   0  0  0  0  0  0  0  0  0  0  0  0
   10.4928    9.7724   -9.1609 H   0  0  0  0  0  0  0  0  0  0  0  0
    9.9639    9.7162   -6.8964 H   0  0  0  0  0  0  0  0  0  0  0  0
   11.0262    5.7811   -6.9305 H   0  0  0  0  0  0  0  0  0  0  0  0
   12.7260    6.4786   -2.4829 H   0  0  0  0  0  0  0  0  0  0  0  0
   12.9073    8.7308   -1.3767 H   0  0  0  0  0  0  0  0  0  0  0  0
   12.0864   10.7406   -2.5730 H   0  0  0  0  0  0  0  0  0  0  0  0
   11.0779   10.5720   -4.8231 H   0  0  0  0  0  0  0  0  0  0  0  0
    8.2158    7.8696   -6.7853 H   0  0  0  0  0  0  0  0  0  0  0  0
    8.1949    8.8995   -8.1846 H   0  0  0  0  0  0  0  0  0  0  0  0
    7.8999    6.5646   -8.9183 H   0  0  0  0  0  0  0  0  0  0  0  0
    9.3167    6.0459   -8.1141 H   0  0  0  0  0  0  0  0  0  0  0  0
    9.8669    5.4162  -14.0561 H   0  0  0  0  0  0  0  0  0  0  0  0
   10.8575    4.6884  -12.8058 H   0  0  0  0  0  0  0  0  0  0  0  0
   10.2639    2.4304  -13.5128 H   0  0  0  0  0  0  0  0  0  0  0  0
   11.0383    3.3485  -14.7841 H   0  0  0  0  0  0  0  0  0  0  0  0
    9.2109    4.8731  -18.2146 H   0  0  0  0  0  0  0  0  0  0  0  0
   10.8804    6.6673  -18.0730 H   0  0  0  0  0  0  0  0  0  0  0  0
    9.1322    7.9486  -10.3251 H   0  0  0  0  0  0  0  0  0  0  0  0
  2  1  1  0
  3  2  1  0
  4  2  1  0
  5  2  1  0
  6  5  1  0
  7  6  2  0
  8  7  1  0
  9  8  1  0
 10  9  2  0
 11  9  2  0
 12  9  1  0
 13 12  1  0
 14 13  1  0
 15 14  1  0
 16 15  1  0
 17 16  1  0
 18 17  1  0
 19 18  1  0
 20 19  1  0
 21 20  1  0
 22 21  1  0
 23 22  1  0
 24 23  2  0
 25 24  1  0
 26 25  1  0
 27 26  2  0
 28 27  1  0
 29 28  2  0
 30 29  1  0
 31 23  1  0
 31 26  1  0
 31 30  2  0
 32 22  1  0
 33 19  1  0
 33 32  1  0
 34 16  1  0
 35 13  1  0
 35 34  1  0
 36  8  2  0
 37  5  2  0
 37 36  1  0
 38  1  1  0
 39  1  1  0
 40  1  1  0
 41  3  1  0
 42  3  1  0
 43  3  1  0
 44  4  1  0
 45  4  1  0
 46  4  1  0
 47  6  1  0
 48  7  1  0
 49 12  1  0
 13 50  1  6
 51 14  1  0
 52 14  1  0
 53 15  1  0
 54 15  1  0
 16 55  1  1
 56 17  1  0
 57 17  1  0
 58 18  1  0
 59 18  1  0
 60 20  1  0
 61 20  1  0
 62 21  1  0
 63 21  1  0
 22 64  1  1
 65 24  1  0
 66 27  1  0
 67 28  1  0
 68 29  1  0
 69 30  1  0
 70 32  1  0
 71 32  1  0
 72 33  1  0
 73 33  1  0
 74 34  1  0
 75 34  1  0
 76 35  1  0
 77 35  1  0
 78 36  1  0
 79 37  1  0
 19 80  1  6
M  CHG  1  19   1
M  END
>  <b_m_subgroup_collapsed>  (544) 
0

>  <r_i_docking_score>  (544) 
-7.8167813208073396

>  <s_m_subgroup_title>  (544) 
glide-dock_SP_D22_pv

>  <s_m_subgroupid>  (544) 
glide-dock_SP_D22_pv

>  <Molecule ChEMBL ID>  (544) 
CHEMBL3676933

>  <Standard Type>  (544) 
Ki

>  <Standard Value>  (544) 
70.03

>  <label>  (544) 
1

$$$$
CHEMBL4084262
     RDKit          3D

 73 77  0  0  1  0  0  0  0  0999 V2000
   13.1093    1.4042  -18.5593 C   0  0  0  0  0  0  0  0  0  0  0  0
   11.9233    1.1474  -17.8279 O   0  0  0  0  0  0  0  0  0  0  0  0
   10.9274    0.4075  -18.4324 C   0  0  0  0  0  0  0  0  0  0  0  0
   11.0743   -0.2108  -19.7000 C   0  0  0  0  0  0  0  0  0  0  0  0
   10.0009   -0.9084  -20.2891 C   0  0  0  0  0  0  0  0  0  0  0  0
    8.7808   -1.0313  -19.6004 C   0  0  0  0  0  0  0  0  0  0  0  0
    8.6281   -0.4311  -18.3396 C   0  0  0  0  0  0  0  0  0  0  0  0
    9.6862    0.2977  -17.7601 C   0  0  0  0  0  0  0  0  0  0  0  0
    9.4501    0.9660  -16.5471 N   0  0  0  0  0  0  0  0  0  0  0  0
   10.1695    0.6024  -15.3329 C   0  0  0  0  0  0  0  0  0  0  0  0
   10.9374    1.8078  -14.7575 C   0  0  0  0  0  0  0  0  0  0  0  0
   10.0888    3.0935  -14.6327 C   0  0  0  0  0  0  0  0  0  0  0  0
    8.9944    2.9179  -13.5592 C   0  0  0  0  0  0  0  0  0  0  0  0
    8.2129    4.2067  -13.2434 C   0  0  0  0  0  0  0  0  0  0  0  0
    9.1086    5.3188  -12.8398 N   0  0  0  0  0  0  0  0  0  0  0  0
    8.3191    6.5467  -12.5301 C   0  0  0  0  0  0  0  0  0  0  0  0
    9.1026    7.6385  -11.7784 C   0  0  0  0  0  0  0  0  0  0  0  0
    9.4398    7.2494  -10.3358 C   0  0  0  0  0  0  0  0  0  0  0  0
   10.4715    8.5148   -9.5408 S   0  0  0  0  0  0  0  0  0  0  0  0
   10.5090    7.8712   -7.8971 C   0  0  0  0  0  0  0  0  0  0  0  0
    9.7737    6.8481   -7.4628 N   0  0  0  0  0  0  0  0  0  0  0  0
   10.0838    6.7162   -6.1328 N   0  0  0  0  0  0  0  0  0  0  0  0
   10.9734    7.6701   -5.8605 C   0  0  0  0  0  0  0  0  0  0  0  0
   11.5112    7.8825   -4.5244 C   0  0  0  0  0  0  0  0  0  0  0  0
   11.9001    6.7755   -3.7465 C   0  0  0  0  0  0  0  0  0  0  0  0
   12.3888    6.9649   -2.4431 C   0  0  0  0  0  0  0  0  0  0  0  0
   12.4824    8.2627   -1.9081 C   0  0  0  0  0  0  0  0  0  0  0  0
   12.0854    9.3712   -2.6744 C   0  0  0  0  0  0  0  0  0  0  0  0
   11.6029    9.1839   -3.9799 C   0  0  0  0  0  0  0  0  0  0  0  0
   11.3040    8.3936   -6.9445 N   0  0  0  0  0  0  0  0  0  0  0  0
   12.2785    9.4531   -7.0494 C   0  0  0  0  0  0  0  0  0  0  0  0
   10.1929    5.5266  -13.8409 C   0  0  0  0  0  0  0  0  0  0  0  0
   10.9920    4.2466  -14.1440 C   0  0  0  0  0  0  0  0  0  0  0  0
    9.5079    3.3764  -16.0424 C   0  0  0  0  0  0  0  0  0  0  0  0
    8.6851    2.2022  -16.5981 C   0  0  0  0  0  0  0  0  0  0  0  0
   13.7117    2.1291  -18.0125 H   0  0  0  0  0  0  0  0  0  0  0  0
   13.6988    0.4944  -18.6777 H   0  0  0  0  0  0  0  0  0  0  0  0
   12.8958    1.8329  -19.5393 H   0  0  0  0  0  0  0  0  0  0  0  0
   11.9985   -0.1517  -20.2561 H   0  0  0  0  0  0  0  0  0  0  0  0
   10.1171   -1.3578  -21.2627 H   0  0  0  0  0  0  0  0  0  0  0  0
    7.9610   -1.5782  -20.0452 H   0  0  0  0  0  0  0  0  0  0  0  0
    7.6847   -0.5223  -17.8196 H   0  0  0  0  0  0  0  0  0  0  0  0
   10.8681   -0.2128  -15.5269 H   0  0  0  0  0  0  0  0  0  0  0  0
    9.4483    0.2268  -14.6057 H   0  0  0  0  0  0  0  0  0  0  0  0
   11.7939    2.0126  -15.3994 H   0  0  0  0  0  0  0  0  0  0  0  0
   11.3397    1.5384  -13.7833 H   0  0  0  0  0  0  0  0  0  0  0  0
    9.4764    2.5743  -12.6474 H   0  0  0  0  0  0  0  0  0  0  0  0
    8.2956    2.1322  -13.8467 H   0  0  0  0  0  0  0  0  0  0  0  0
    7.5067    4.0063  -12.4356 H   0  0  0  0  0  0  0  0  0  0  0  0
    7.6197    4.5105  -14.1064 H   0  0  0  0  0  0  0  0  0  0  0  0
    7.4544    6.2795  -11.9187 H   0  0  0  0  0  0  0  0  0  0  0  0
    7.9034    6.9651  -13.4456 H   0  0  0  0  0  0  0  0  0  0  0  0
    8.4876    8.5400  -11.7416 H   0  0  0  0  0  0  0  0  0  0  0  0
   10.0024    7.9267  -12.3180 H   0  0  0  0  0  0  0  0  0  0  0  0
    9.9758    6.3011  -10.3034 H   0  0  0  0  0  0  0  0  0  0  0  0
    8.5153    7.1160   -9.7695 H   0  0  0  0  0  0  0  0  0  0  0  0
   11.8165    5.7732   -4.1459 H   0  0  0  0  0  0  0  0  0  0  0  0
   12.6812    6.1095   -1.8521 H   0  0  0  0  0  0  0  0  0  0  0  0
   12.8565    8.4092   -0.9053 H   0  0  0  0  0  0  0  0  0  0  0  0
   12.1226   10.3633   -2.2531 H   0  0  0  0  0  0  0  0  0  0  0  0
   11.2742   10.0427   -4.5468 H   0  0  0  0  0  0  0  0  0  0  0  0
   12.8041    9.3543   -7.9993 H   0  0  0  0  0  0  0  0  0  0  0  0
   11.7687   10.4155   -6.9896 H   0  0  0  0  0  0  0  0  0  0  0  0
   13.0240    9.3758   -6.2589 H   0  0  0  0  0  0  0  0  0  0  0  0
    9.7520    5.8497  -14.7780 H   0  0  0  0  0  0  0  0  0  0  0  0
   10.8819    6.3040  -13.5081 H   0  0  0  0  0  0  0  0  0  0  0  0
   11.5322    3.9446  -13.2472 H   0  0  0  0  0  0  0  0  0  0  0  0
   11.7587    4.4642  -14.8908 H   0  0  0  0  0  0  0  0  0  0  0  0
    8.8903    4.2718  -16.0466 H   0  0  0  0  0  0  0  0  0  0  0  0
   10.3275    3.5797  -16.7339 H   0  0  0  0  0  0  0  0  0  0  0  0
    8.3999    2.4262  -17.6277 H   0  0  0  0  0  0  0  0  0  0  0  0
    7.7587    2.0752  -16.0392 H   0  0  0  0  0  0  0  0  0  0  0  0
    9.5478    5.0301  -11.9770 H   0  0  0  0  0  0  0  0  0  0  0  0
  2  1  1  0
  3  2  1  0
  4  3  2  0
  5  4  1  0
  6  5  2  0
  7  6  1  0
  8  3  1  0
  8  7  2  0
  9  8  1  0
 10  9  1  0
 11 10  1  0
 12 11  1  0
 13 12  1  0
 14 13  1  0
 15 14  1  0
 16 15  1  0
 17 16  1  0
 18 17  1  0
 19 18  1  0
 20 19  1  0
 21 20  2  0
 22 21  1  0
 23 22  2  0
 24 23  1  0
 25 24  2  0
 26 25  1  0
 27 26  2  0
 28 27  1  0
 29 24  1  0
 29 28  2  0
 30 20  1  0
 30 23  1  0
 31 30  1  0
 32 15  1  0
 33 12  1  0
 33 32  1  0
 34 12  1  0
 35  9  1  0
 35 34  1  0
 36  1  1  0
 37  1  1  0
 38  1  1  0
 39  4  1  0
 40  5  1  0
 41  6  1  0
 42  7  1  0
 43 10  1  0
 44 10  1  0
 45 11  1  0
 46 11  1  0
 47 13  1  0
 48 13  1  0
 49 14  1  0
 50 14  1  0
 51 16  1  0
 52 16  1  0
 53 17  1  0
 54 17  1  0
 55 18  1  0
 56 18  1  0
 57 25  1  0
 58 26  1  0
 59 27  1  0
 60 28  1  0
 61 29  1  0
 62 31  1  0
 63 31  1  0
 64 31  1  0
 65 32  1  0
 66 32  1  0
 67 33  1  0
 68 33  1  0
 69 34  1  0
 70 34  1  0
 71 35  1  0
 72 35  1  0
 73 15  1  0
M  CHG  1  15   1
M  END
>  <b_m_subgroup_collapsed>  (545) 
0

>  <r_i_docking_score>  (545) 
-7.8092023034577904

>  <s_m_subgroup_title>  (545) 
glide-dock_SP_D22_pv

>  <s_m_subgroupid>  (545) 
glide-dock_SP_D22_pv

>  <Molecule ChEMBL ID>  (545) 
CHEMBL4084262

>  <Standard Type>  (545) 
Ki

>  <Standard Value>  (545) 
10895.0

>  <label>  (545) 
0

$$$$
CHEMBL543111
     RDKit          3D

 33 35  0  0  1  0  0  0  0  0999 V2000
   12.0778    7.7724  -10.3439 O   0  0  0  0  0  0  0  0  0  0  0  0
   11.5226    7.9071   -9.2547 C   0  0  0  0  0  0  0  0  0  0  0  0
   12.1319    8.1726   -7.9851 C   0  0  0  0  0  0  0  0  0  0  0  0
   11.1625    8.1549   -7.0641 C   0  0  0  0  0  0  0  0  0  0  0  0
   11.3863    8.2046   -5.6140 C   0  0  0  0  0  0  0  0  0  0  0  0
   11.7651    9.3986   -4.9682 C   0  0  0  0  0  0  0  0  0  0  0  0
   12.0859    9.3779   -3.5933 C   0  0  0  0  0  0  0  0  0  0  0  0
   12.0713    8.1661   -2.8772 C   0  0  0  0  0  0  0  0  0  0  0  0
   11.6874    6.9756   -3.5246 C   0  0  0  0  0  0  0  0  0  0  0  0
   11.3129    7.0001   -4.8833 C   0  0  0  0  0  0  0  0  0  0  0  0
    9.9096    7.9972   -7.5937 O   0  0  0  0  0  0  0  0  0  0  0  0
   10.0220    7.7988   -9.0122 C   0  0  0  0  0  0  0  0  0  0  0  0
    9.2860    8.9031   -9.7874 C   0  0  0  0  0  0  0  0  0  0  0  0
    9.1300    8.5710  -11.2880 C   0  0  0  0  0  0  0  0  0  0  0  0
    8.4870    7.2520  -11.4478 N   0  0  0  0  0  0  0  0  0  0  0  0
    9.2500    6.1508  -10.8274 C   0  0  0  0  0  0  0  0  0  0  0  0
    9.4345    6.4031   -9.3210 C   0  0  0  0  0  0  0  0  0  0  0  0
   13.1967    8.2691   -7.8456 H   0  0  0  0  0  0  0  0  0  0  0  0
   11.8331   10.3235   -5.5237 H   0  0  0  0  0  0  0  0  0  0  0  0
   12.3621   10.2833   -3.0781 H   0  0  0  0  0  0  0  0  0  0  0  0
   12.3292    8.1600   -1.8284 H   0  0  0  0  0  0  0  0  0  0  0  0
   11.6691    6.0474   -2.9716 H   0  0  0  0  0  0  0  0  0  0  0  0
   11.0199    6.0858   -5.3756 H   0  0  0  0  0  0  0  0  0  0  0  0
    8.3118    9.0784   -9.3342 H   0  0  0  0  0  0  0  0  0  0  0  0
    9.8276    9.8366   -9.6794 H   0  0  0  0  0  0  0  0  0  0  0  0
    8.5054    9.3227  -11.7687 H   0  0  0  0  0  0  0  0  0  0  0  0
   10.0859    8.5719  -11.8109 H   0  0  0  0  0  0  0  0  0  0  0  0
    7.5735    7.3529  -10.9658 H   0  0  0  0  0  0  0  0  0  0  0  0
    8.7134    5.2142  -10.9839 H   0  0  0  0  0  0  0  0  0  0  0  0
   10.2127    6.0513  -11.3281 H   0  0  0  0  0  0  0  0  0  0  0  0
   10.0600    5.6195   -8.8903 H   0  0  0  0  0  0  0  0  0  0  0  0
    8.4653    6.3160   -8.8293 H   0  0  0  0  0  0  0  0  0  0  0  0
    8.3196    7.0589  -12.4245 H   0  0  0  0  0  0  0  0  0  0  0  0
  2  1  2  0
  3  2  1  0
  4  3  2  0
  5  4  1  0
  6  5  2  0
  7  6  1  0
  8  7  2  0
  9  8  1  0
 10  5  1  0
 10  9  2  0
 11  4  1  0
 12  2  1  0
 12 11  1  0
 13 12  1  0
 14 13  1  0
 15 14  1  0
 16 15  1  0
 17 12  1  0
 17 16  1  0
 18  3  1  0
 19  6  1  0
 20  7  1  0
 21  8  1  0
 22  9  1  0
 23 10  1  0
 24 13  1  0
 25 13  1  0
 26 14  1  0
 27 14  1  0
 28 15  1  0
 29 16  1  0
 30 16  1  0
 31 17  1  0
 32 17  1  0
 33 15  1  0
M  CHG  1  15   1
M  END
>  <b_m_subgroup_collapsed>  (546) 
0

>  <r_i_docking_score>  (546) 
-7.8038032331211502

>  <s_m_subgroup_title>  (546) 
glide-dock_SP_D22_pv

>  <s_m_subgroupid>  (546) 
glide-dock_SP_D22_pv

>  <Molecule ChEMBL ID>  (546) 
CHEMBL543111

>  <Standard Type>  (546) 
Ki

>  <Standard Value>  (546) 
10000.0

>  <label>  (546) 
0

$$$$
CHEMBL3799455
     RDKit          3D

 68 71  0  0  1  0  0  0  0  0999 V2000
   12.6611    7.5776  -13.9604 C   0  0  0  0  0  0  0  0  0  0  0  0
   12.0629    7.3781  -12.6880 O   0  0  0  0  0  0  0  0  0  0  0  0
   10.9605    6.5619  -12.6502 C   0  0  0  0  0  0  0  0  0  0  0  0
   10.8858    5.3928  -13.4464 C   0  0  0  0  0  0  0  0  0  0  0  0
    9.7665    4.5421  -13.3779 C   0  0  0  0  0  0  0  0  0  0  0  0
    9.7095    3.2556  -14.1819 C   0  0  0  0  0  0  0  0  0  0  0  0
   10.0815    3.4254  -15.6686 C   0  0  0  0  0  0  0  0  0  0  0  0
    9.9985    2.1457  -16.4023 N   0  0  0  0  0  0  0  0  0  0  0  0
    8.6319    1.7685  -16.8229 C   0  0  0  0  0  0  0  0  0  0  0  0
    8.5663    0.2972  -17.2591 C   0  0  0  0  0  0  0  0  0  0  0  0
    7.1515   -0.1301  -17.6214 C   0  0  0  0  0  0  0  0  0  0  0  0
    6.8107   -0.2981  -18.9799 C   0  0  0  0  0  0  0  0  0  0  0  0
    5.5134   -0.6996  -19.3474 C   0  0  0  0  0  0  0  0  0  0  0  0
    4.5351   -0.9345  -18.3638 C   0  0  0  0  0  0  0  0  0  0  0  0
    3.2866   -1.3097  -18.7686 O   0  0  0  0  0  0  0  0  0  0  0  0
    4.8652   -0.7744  -16.9991 C   0  0  0  0  0  0  0  0  0  0  0  0
    3.9068   -1.0264  -15.9769 N   0  0  0  0  0  0  0  0  0  0  0  0
    4.1082   -0.8448  -14.6552 C   0  0  0  0  0  0  0  0  0  0  0  0
    3.2103   -1.0274  -13.8413 O   0  0  0  0  0  0  0  0  0  0  0  0
    5.4559   -0.4321  -14.2706 C   0  0  0  0  0  0  0  0  0  0  0  0
    6.4203   -0.2258  -15.1844 C   0  0  0  0  0  0  0  0  0  0  0  0
    6.1686   -0.3707  -16.6280 C   0  0  0  0  0  0  0  0  0  0  0  0
    8.7053    4.8752  -12.5153 C   0  0  0  0  0  0  0  0  0  0  0  0
    8.7784    6.0280  -11.7094 C   0  0  0  0  0  0  0  0  0  0  0  0
    9.9189    6.8694  -11.7453 C   0  0  0  0  0  0  0  0  0  0  0  0
   10.0746    8.0071  -10.9783 O   0  0  0  0  0  0  0  0  0  0  0  0
    9.3429    8.1571   -9.7635 C   0  0  0  0  0  0  0  0  0  0  0  0
   10.3225    8.1313   -8.5843 C   0  0  0  0  0  0  0  0  0  0  0  0
    9.5952    8.3861   -7.2580 C   0  0  0  0  0  0  0  0  0  0  0  0
   10.5071    8.2773   -6.0517 C   0  0  0  0  0  0  0  0  0  0  0  0
   10.8864    7.0032   -5.5858 C   0  0  0  0  0  0  0  0  0  0  0  0
   11.6778    6.8759   -4.4298 C   0  0  0  0  0  0  0  0  0  0  0  0
   12.0864    8.0287   -3.7307 C   0  0  0  0  0  0  0  0  0  0  0  0
   11.7261    9.3034   -4.2035 C   0  0  0  0  0  0  0  0  0  0  0  0
   10.9449    9.4318   -5.3679 C   0  0  0  0  0  0  0  0  0  0  0  0
   13.2861    8.4671  -13.9145 H   0  0  0  0  0  0  0  0  0  0  0  0
   13.2926    6.7359  -14.2476 H   0  0  0  0  0  0  0  0  0  0  0  0
   11.9126    7.7486  -14.7370 H   0  0  0  0  0  0  0  0  0  0  0  0
   11.7099    5.1287  -14.0862 H   0  0  0  0  0  0  0  0  0  0  0  0
    8.7067    2.8422  -14.0829 H   0  0  0  0  0  0  0  0  0  0  0  0
   10.3806    2.5395  -13.7058 H   0  0  0  0  0  0  0  0  0  0  0  0
   11.1090    3.7806  -15.7592 H   0  0  0  0  0  0  0  0  0  0  0  0
    9.4469    4.1726  -16.1491 H   0  0  0  0  0  0  0  0  0  0  0  0
   10.3832    1.4206  -15.8135 H   0  0  0  0  0  0  0  0  0  0  0  0
    8.3157    2.4198  -17.6374 H   0  0  0  0  0  0  0  0  0  0  0  0
    7.9366    1.9445  -16.0042 H   0  0  0  0  0  0  0  0  0  0  0  0
    8.9405   -0.3573  -16.4721 H   0  0  0  0  0  0  0  0  0  0  0  0
    9.2215    0.1354  -18.1138 H   0  0  0  0  0  0  0  0  0  0  0  0
    7.5450   -0.1239  -19.7511 H   0  0  0  0  0  0  0  0  0  0  0  0
    5.2652   -0.8262  -20.3912 H   0  0  0  0  0  0  0  0  0  0  0  0
    2.5687   -0.9813  -18.2437 H   0  0  0  0  0  0  0  0  0  0  0  0
    3.0111   -1.3968  -16.2581 H   0  0  0  0  0  0  0  0  0  0  0  0
    5.6876   -0.3152  -13.2209 H   0  0  0  0  0  0  0  0  0  0  0  0
    7.4054    0.0499  -14.8463 H   0  0  0  0  0  0  0  0  0  0  0  0
    7.8339    4.2428  -12.4502 H   0  0  0  0  0  0  0  0  0  0  0  0
    7.9273    6.2408  -11.0798 H   0  0  0  0  0  0  0  0  0  0  0  0
    8.8232    9.1158   -9.8004 H   0  0  0  0  0  0  0  0  0  0  0  0
    8.5798    7.4039   -9.5693 H   0  0  0  0  0  0  0  0  0  0  0  0
   10.8188    7.1573   -8.5589 H   0  0  0  0  0  0  0  0  0  0  0  0
   11.1045    8.8821   -8.7309 H   0  0  0  0  0  0  0  0  0  0  0  0
    9.1307    9.3705   -7.2862 H   0  0  0  0  0  0  0  0  0  0  0  0
    8.7782    7.6731   -7.1371 H   0  0  0  0  0  0  0  0  0  0  0  0
   10.5504    6.1207   -6.1062 H   0  0  0  0  0  0  0  0  0  0  0  0
   11.9567    5.8975   -4.0691 H   0  0  0  0  0  0  0  0  0  0  0  0
   12.6860    7.9322   -2.8363 H   0  0  0  0  0  0  0  0  0  0  0  0
   12.0511   10.1732   -3.6563 H   0  0  0  0  0  0  0  0  0  0  0  0
   10.6630   10.4128   -5.7170 H   0  0  0  0  0  0  0  0  0  0  0  0
   10.5675    2.2176  -17.2342 H   0  0  0  0  0  0  0  0  0  0  0  0
  2  1  1  0
  3  2  1  0
  4  3  1  0
  5  4  2  0
  6  5  1  0
  7  6  1  0
  8  7  1  0
  9  8  1  0
 10  9  1  0
 11 10  1  0
 12 11  1  0
 13 12  2  0
 14 13  1  0
 15 14  1  0
 16 14  2  0
 17 16  1  0
 18 17  1  0
 19 18  2  0
 20 18  1  0
 21 20  2  0
 22 11  2  0
 22 16  1  0
 22 21  1  0
 23  5  1  0
 24 23  2  0
 25  3  2  0
 25 24  1  0
 26 25  1  0
 27 26  1  0
 28 27  1  0
 29 28  1  0
 30 29  1  0
 31 30  2  0
 32 31  1  0
 33 32  2  0
 34 33  1  0
 35 30  1  0
 35 34  2  0
 36  1  1  0
 37  1  1  0
 38  1  1  0
 39  4  1  0
 40  6  1  0
 41  6  1  0
 42  7  1  0
 43  7  1  0
 44  8  1  0
 45  9  1  0
 46  9  1  0
 47 10  1  0
 48 10  1  0
 49 12  1  0
 50 13  1  0
 51 15  1  0
 52 17  1  0
 53 20  1  0
 54 21  1  0
 55 23  1  0
 56 24  1  0
 57 27  1  0
 58 27  1  0
 59 28  1  0
 60 28  1  0
 61 29  1  0
 62 29  1  0
 63 31  1  0
 64 32  1  0
 65 33  1  0
 66 34  1  0
 67 35  1  0
 68  8  1  0
M  CHG  1   8   1
M  END
>  <b_m_subgroup_collapsed>  (547) 
0

>  <r_i_docking_score>  (547) 
-7.8034331660301897

>  <s_m_subgroup_title>  (547) 
glide-dock_SP_D22_pv

>  <s_m_subgroupid>  (547) 
glide-dock_SP_D22_pv

>  <Molecule ChEMBL ID>  (547) 
CHEMBL3799455

>  <Standard Type>  (547) 
Ki

>  <Standard Value>  (547) 
64.0

>  <label>  (547) 
1

$$$$
CHEMBL596
     RDKit          3D

 54 56  0  0  1  0  0  0  0  0999 V2000
    5.9058    6.4889  -12.6467 C   0  0  0  0  0  0  0  0  0  0  0  0
    6.7418    5.4044  -11.9633 C   0  0  0  0  0  0  0  0  0  0  0  0
    7.9280    4.9796  -12.8410 C   0  0  0  0  0  0  0  0  0  0  0  0
    7.6189    4.3434  -13.8470 O   0  0  0  0  0  0  0  0  0  0  0  0
    9.2285    5.2919  -12.5379 N   0  0  0  0  0  0  0  0  0  0  0  0
   10.2812    4.9026  -13.4377 C   0  0  0  0  0  0  0  0  0  0  0  0
   10.3780    3.5750  -13.9238 C   0  0  0  0  0  0  0  0  0  0  0  0
   11.3827    3.2189  -14.8412 C   0  0  0  0  0  0  0  0  0  0  0  0
   12.3304    4.1723  -15.2568 C   0  0  0  0  0  0  0  0  0  0  0  0
   12.2759    5.4815  -14.7483 C   0  0  0  0  0  0  0  0  0  0  0  0
   11.2593    5.8430  -13.8448 C   0  0  0  0  0  0  0  0  0  0  0  0
    9.6557    6.0098  -11.3119 C   0  0  1  0  0  0  0  0  0  0  0  0
    9.1377    7.4647  -11.1918 C   0  0  0  0  0  0  0  0  0  0  0  0
    9.4463    8.0899   -9.8097 C   0  0  0  0  0  0  0  0  0  0  0  0
    9.1199    7.1845   -8.6717 N   0  0  2  0  0  0  0  0  0  0  0  0
    9.3076    7.7900   -7.3214 C   0  0  0  0  0  0  0  0  0  0  0  0
   10.7454    8.3114   -7.0654 C   0  0  0  0  0  0  0  0  0  0  0  0
   11.1273    8.3734   -5.5965 C   0  0  0  0  0  0  0  0  0  0  0  0
   11.4113    7.1715   -4.9097 C   0  0  0  0  0  0  0  0  0  0  0  0
   11.8596    7.2011   -3.5745 C   0  0  0  0  0  0  0  0  0  0  0  0
   12.0032    8.4341   -2.9103 C   0  0  0  0  0  0  0  0  0  0  0  0
   11.6874    9.6321   -3.5797 C   0  0  0  0  0  0  0  0  0  0  0  0
   11.2649    9.6071   -4.9251 C   0  0  0  0  0  0  0  0  0  0  0  0
    9.8078    5.8711   -8.7735 C   0  0  0  0  0  0  0  0  0  0  0  0
    9.4452    5.1301  -10.0552 C   0  0  0  0  0  0  0  0  0  0  0  0
    5.2605    6.9580  -11.9096 H   0  0  0  0  0  0  0  0  0  0  0  0
    6.5273    7.2882  -13.0472 H   0  0  0  0  0  0  0  0  0  0  0  0
    5.2866    6.0821  -13.4468 H   0  0  0  0  0  0  0  0  0  0  0  0
    6.1179    4.5302  -11.7738 H   0  0  0  0  0  0  0  0  0  0  0  0
    7.0175    5.7717  -10.9848 H   0  0  0  0  0  0  0  0  0  0  0  0
    9.6732    2.8195  -13.6069 H   0  0  0  0  0  0  0  0  0  0  0  0
   11.4350    2.2077  -15.2173 H   0  0  0  0  0  0  0  0  0  0  0  0
   13.1078    3.8935  -15.9535 H   0  0  0  0  0  0  0  0  0  0  0  0
   13.0106    6.2114  -15.0561 H   0  0  0  0  0  0  0  0  0  0  0  0
   11.2271    6.8606  -13.4848 H   0  0  0  0  0  0  0  0  0  0  0  0
   10.7314    6.1723  -11.3529 H   0  0  0  0  0  0  0  0  0  0  0  0
    9.6260    8.0709  -11.9554 H   0  0  0  0  0  0  0  0  0  0  0  0
    8.0867    7.5658  -11.4452 H   0  0  0  0  0  0  0  0  0  0  0  0
    8.8928    9.0240   -9.7016 H   0  0  0  0  0  0  0  0  0  0  0  0
   10.5058    8.3475   -9.7744 H   0  0  0  0  0  0  0  0  0  0  0  0
    8.5880    8.5979   -7.1790 H   0  0  0  0  0  0  0  0  0  0  0  0
    9.0431    7.0350   -6.5789 H   0  0  0  0  0  0  0  0  0  0  0  0
   11.4964    7.6839   -7.5424 H   0  0  0  0  0  0  0  0  0  0  0  0
   10.8635    9.2985   -7.5143 H   0  0  0  0  0  0  0  0  0  0  0  0
   11.3132    6.2202   -5.4127 H   0  0  0  0  0  0  0  0  0  0  0  0
   12.0866    6.2781   -3.0598 H   0  0  0  0  0  0  0  0  0  0  0  0
   12.3358    8.4620   -1.8828 H   0  0  0  0  0  0  0  0  0  0  0  0
   11.7839   10.5717   -3.0547 H   0  0  0  0  0  0  0  0  0  0  0  0
   11.0538   10.5356   -5.4359 H   0  0  0  0  0  0  0  0  0  0  0  0
    9.5479    5.2455   -7.9183 H   0  0  0  0  0  0  0  0  0  0  0  0
   10.8860    6.0053   -8.7469 H   0  0  0  0  0  0  0  0  0  0  0  0
    8.4388    4.7339   -9.9517 H   0  0  0  0  0  0  0  0  0  0  0  0
   10.0795    4.2453  -10.1359 H   0  0  0  0  0  0  0  0  0  0  0  0
    8.1239    6.9998   -8.7518 H   0  0  0  0  0  0  0  0  0  0  0  0
  2  1  1  0
  3  2  1  0
  4  3  2  0
  5  3  1  0
  6  5  1  0
  7  6  2  0
  8  7  1  0
  9  8  2  0
 10  9  1  0
 11  6  1  0
 11 10  2  0
 12  5  1  0
 13 12  1  0
 14 13  1  0
 15 14  1  0
 16 15  1  0
 17 16  1  0
 18 17  1  0
 19 18  2  0
 20 19  1  0
 21 20  2  0
 22 21  1  0
 23 18  1  0
 23 22  2  0
 24 15  1  0
 25 12  1  0
 25 24  1  0
 26  1  1  0
 27  1  1  0
 28  1  1  0
 29  2  1  0
 30  2  1  0
 31  7  1  0
 32  8  1  0
 33  9  1  0
 34 10  1  0
 35 11  1  0
 12 36  1  6
 37 13  1  0
 38 13  1  0
 39 14  1  0
 40 14  1  0
 41 16  1  0
 42 16  1  0
 43 17  1  0
 44 17  1  0
 45 19  1  0
 46 20  1  0
 47 21  1  0
 48 22  1  0
 49 23  1  0
 50 24  1  0
 51 24  1  0
 52 25  1  0
 53 25  1  0
 15 54  1  6
M  CHG  1  15   1
M  END
>  <b_m_subgroup_collapsed>  (548) 
0

>  <r_i_docking_score>  (548) 
-7.7997520085482099

>  <s_m_subgroup_title>  (548) 
glide-dock_SP_D22_pv

>  <s_m_subgroupid>  (548) 
glide-dock_SP_D22_pv

>  <Molecule ChEMBL ID>  (548) 
CHEMBL596

>  <Standard Type>  (548) 
Ki

>  <Standard Value>  (548) 
21000.0

>  <label>  (548) 
0

$$$$
CHEMBL3908917
     RDKit          3D

 46 49  0  0  1  0  0  0  0  0999 V2000
   12.0873    6.5664  -13.7873 C   0  0  0  0  0  0  0  0  0  0  0  0
   10.8864    6.1367  -13.0446 N   0  0  0  0  0  0  0  0  0  0  0  0
   10.3243    7.1800  -12.1625 C   0  0  2  0  0  0  0  0  0  0  0  0
   11.0993    7.4704  -10.9011 C   0  0  0  0  0  0  0  0  0  0  0  0
   12.2103    8.1717  -10.4223 C   0  0  0  0  0  0  0  0  0  0  0  0
   12.1793    8.4483   -9.0246 C   0  0  0  0  0  0  0  0  0  0  0  0
   11.0414    8.1189   -8.2154 C   0  0  0  0  0  0  0  0  0  0  0  0
    9.9975    7.3897   -8.7449 C   0  0  0  0  0  0  0  0  0  0  0  0
    8.9720    7.1545   -7.8333 C   0  0  0  0  0  0  0  0  0  0  0  0
    9.3483    7.8791   -6.7356 C   0  0  0  0  0  0  0  0  0  0  0  0
   10.6120    8.4403   -6.9251 N   0  0  0  0  0  0  0  0  0  0  0  0
   11.4041    9.4824   -5.7935 S   0  0  0  0  0  0  0  0  0  0  0  0
   12.7041    9.7723   -6.3871 O   0  0  0  0  0  0  0  0  0  0  0  0
   10.4860   10.5706   -5.4474 O   0  0  0  0  0  0  0  0  0  0  0  0
   11.7197    8.5974   -4.3052 C   0  0  0  0  0  0  0  0  0  0  0  0
   11.6862    7.1949   -4.2535 C   0  0  0  0  0  0  0  0  0  0  0  0
   12.0860    6.5723   -3.0618 C   0  0  0  0  0  0  0  0  0  0  0  0
   12.4860    7.3369   -1.9567 C   0  0  0  0  0  0  0  0  0  0  0  0
   12.4853    8.7377   -2.0034 C   0  0  0  0  0  0  0  0  0  0  0  0
   12.0847    9.3722   -3.1859 C   0  0  0  0  0  0  0  0  0  0  0  0
   10.0147    7.0644  -10.0756 C   0  0  0  0  0  0  0  0  0  0  0  0
    9.1115    6.6954  -11.2183 C   0  0  2  0  0  0  0  0  0  0  0  0
    8.5859    5.2621  -11.1255 C   0  0  0  0  0  0  0  0  0  0  0  0
    7.5900    4.8982  -12.2363 C   0  0  0  0  0  0  0  0  0  0  0  0
    6.4810    5.7744  -12.2469 O   0  0  0  0  0  0  0  0  0  0  0  0
   12.4583    5.7508  -14.4083 H   0  0  0  0  0  0  0  0  0  0  0  0
   12.8856    6.8621  -13.1060 H   0  0  0  0  0  0  0  0  0  0  0  0
   11.8588    7.4128  -14.4361 H   0  0  0  0  0  0  0  0  0  0  0  0
   10.1762    5.8711  -13.7117 H   0  0  0  0  0  0  0  0  0  0  0  0
   10.0862    8.1238  -12.6469 H   0  0  0  0  0  0  0  0  0  0  0  0
   12.9938    8.5493  -11.0638 H   0  0  0  0  0  0  0  0  0  0  0  0
   13.0045    9.0033   -8.6104 H   0  0  0  0  0  0  0  0  0  0  0  0
    8.0860    6.5909   -8.0614 H   0  0  0  0  0  0  0  0  0  0  0  0
    8.7797    8.0515   -5.8468 H   0  0  0  0  0  0  0  0  0  0  0  0
   11.4160    6.6022   -5.1151 H   0  0  0  0  0  0  0  0  0  0  0  0
   12.1277    5.4994   -2.9985 H   0  0  0  0  0  0  0  0  0  0  0  0
   12.8860    6.8375   -1.0879 H   0  0  0  0  0  0  0  0  0  0  0  0
   12.8082    9.3211   -1.1530 H   0  0  0  0  0  0  0  0  0  0  0  0
   12.0860   10.4501   -3.2359 H   0  0  0  0  0  0  0  0  0  0  0  0
    8.3163    7.4356  -11.2644 H   0  0  0  0  0  0  0  0  0  0  0  0
    9.4111    4.5493  -11.1298 H   0  0  0  0  0  0  0  0  0  0  0  0
    8.0859    5.1229  -10.1654 H   0  0  0  0  0  0  0  0  0  0  0  0
    8.0684    4.9224  -13.2151 H   0  0  0  0  0  0  0  0  0  0  0  0
    7.2238    3.8820  -12.0859 H   0  0  0  0  0  0  0  0  0  0  0  0
    6.4860    6.3187  -11.4615 H   0  0  0  0  0  0  0  0  0  0  0  0
   11.1150    5.3310  -12.4819 H   0  0  0  0  0  0  0  0  0  0  0  0
  2  1  1  0
  3  2  1  0
  4  3  1  0
  5  4  2  0
  6  5  1  0
  7  6  2  0
  8  7  1  0
  9  8  1  0
 10  9  2  0
 11  7  1  0
 11 10  1  0
 12 11  1  0
 13 12  2  0
 14 12  2  0
 15 12  1  0
 16 15  2  0
 17 16  1  0
 18 17  2  0
 19 18  1  0
 20 15  1  0
 20 19  2  0
 21  4  1  0
 21  8  2  0
 22  3  1  0
 22 21  1  0
 23 22  1  0
 24 23  1  0
 25 24  1  0
 26  1  1  0
 27  1  1  0
 28  1  1  0
 29  2  1  0
  3 30  1  6
 31  5  1  0
 32  6  1  0
 33  9  1  0
 34 10  1  0
 35 16  1  0
 36 17  1  0
 37 18  1  0
 38 19  1  0
 39 20  1  0
 22 40  1  6
 41 23  1  0
 42 23  1  0
 43 24  1  0
 44 24  1  0
 45 25  1  0
 46  2  1  0
M  CHG  1   2   1
M  END
>  <b_m_subgroup_collapsed>  (549) 
0

>  <r_i_docking_score>  (549) 
-7.7997469179052699

>  <s_m_subgroup_title>  (549) 
glide-dock_SP_D22_pv

>  <s_m_subgroupid>  (549) 
glide-dock_SP_D22_pv

>  <Molecule ChEMBL ID>  (549) 
CHEMBL3908917

>  <Standard Type>  (549) 
Ki

>  <Standard Value>  (549) 
10000.0

>  <label>  (549) 
0

$$$$
CHEMBL523994
     RDKit          3D

 59 62  0  0  1  0  0  0  0  0999 V2000
   12.7802    8.8937   -1.4248 C   0  0  0  0  0  0  0  0  0  0  0  0
   12.2187    8.5263   -2.7778 C   0  0  0  0  0  0  0  0  0  0  0  0
   12.0713    7.1885   -3.1864 C   0  0  0  0  0  0  0  0  0  0  0  0
   11.5083    6.9026   -4.4474 C   0  0  0  0  0  0  0  0  0  0  0  0
   11.1129    7.9410   -5.3290 C   0  0  0  0  0  0  0  0  0  0  0  0
   10.5135    7.6376   -6.5682 N   0  0  0  0  0  0  0  0  0  0  0  0
   10.8600    6.4181   -7.2651 C   0  0  0  0  0  0  0  0  0  0  0  0
   10.7514    6.6538   -8.7739 C   0  0  0  0  0  0  0  0  0  0  0  0
    9.4429    7.2067   -9.2021 N   0  0  0  0  0  0  0  0  0  0  0  0
    9.4136    7.3447  -10.6970 C   0  0  2  0  0  0  0  0  0  0  0  0
    9.4872    8.8090  -11.1704 C   0  0  0  0  0  0  0  0  0  0  0  0
    8.3095    6.4918  -11.3548 C   0  0  1  0  0  0  0  0  0  0  0  0
    7.6264    6.9879  -12.6146 C   0  0  0  0  0  0  0  0  0  0  0  0
    8.4696    5.7388  -12.6937 C   0  0  1  0  0  0  0  0  0  0  0  0
    9.8330    5.7733  -13.3887 C   0  0  0  0  0  0  0  0  0  0  0  0
    7.6986    4.4550  -13.0200 C   0  0  0  0  0  0  0  0  0  0  0  0
    8.1294    3.5448  -14.0238 C   0  0  0  0  0  0  0  0  0  0  0  0
    7.3496    2.4327  -14.3955 C   0  0  0  0  0  0  0  0  0  0  0  0
    6.1172    2.1907  -13.7667 C   0  0  0  0  0  0  0  0  0  0  0  0
    5.6851    3.0543  -12.7456 C   0  0  0  0  0  0  0  0  0  0  0  0
    6.4670    4.1673  -12.3756 C   0  0  0  0  0  0  0  0  0  0  0  0
    9.0780    8.4068   -8.3877 C   0  0  0  0  0  0  0  0  0  0  0  0
    9.1681    8.1078   -6.8789 C   0  0  0  0  0  0  0  0  0  0  0  0
   11.3425    9.2860   -4.9321 C   0  0  0  0  0  0  0  0  0  0  0  0
   11.1004   10.4799   -5.8346 C   0  0  0  0  0  0  0  0  0  0  0  0
   11.8509    9.5568   -3.6505 C   0  0  0  0  0  0  0  0  0  0  0  0
   12.3936    9.8539   -1.0904 H   0  0  0  0  0  0  0  0  0  0  0  0
   12.5069    8.1710   -0.6696 H   0  0  0  0  0  0  0  0  0  0  0  0
   13.8621    8.9684   -1.4678 H   0  0  0  0  0  0  0  0  0  0  0  0
   12.3525    6.3778   -2.5293 H   0  0  0  0  0  0  0  0  0  0  0  0
   11.3618    5.8662   -4.7136 H   0  0  0  0  0  0  0  0  0  0  0  0
   10.1559    5.6474   -6.9647 H   0  0  0  0  0  0  0  0  0  0  0  0
   11.8636    6.0828   -7.0033 H   0  0  0  0  0  0  0  0  0  0  0  0
   10.8868    5.7224   -9.2999 H   0  0  0  0  0  0  0  0  0  0  0  0
   11.5524    7.3256   -9.0920 H   0  0  0  0  0  0  0  0  0  0  0  0
   10.3444    6.9109  -11.0541 H   0  0  0  0  0  0  0  0  0  0  0  0
    9.6855    8.8883  -12.2379 H   0  0  0  0  0  0  0  0  0  0  0  0
    8.5673    9.3557  -10.9571 H   0  0  0  0  0  0  0  0  0  0  0  0
   10.3242    9.3138  -10.6890 H   0  0  0  0  0  0  0  0  0  0  0  0
    7.6708    6.0022  -10.6234 H   0  0  0  0  0  0  0  0  0  0  0  0
    7.9916    7.9048  -13.0526 H   0  0  0  0  0  0  0  0  0  0  0  0
    6.5417    6.8987  -12.6307 H   0  0  0  0  0  0  0  0  0  0  0  0
   10.4061    6.6640  -13.1424 H   0  0  0  0  0  0  0  0  0  0  0  0
   10.4327    4.9119  -13.0871 H   0  0  0  0  0  0  0  0  0  0  0  0
    9.7142    5.7619  -14.4734 H   0  0  0  0  0  0  0  0  0  0  0  0
    9.0563    3.6812  -14.5605 H   0  0  0  0  0  0  0  0  0  0  0  0
    7.6971    1.7685  -15.1734 H   0  0  0  0  0  0  0  0  0  0  0  0
    5.5166    1.3390  -14.0514 H   0  0  0  0  0  0  0  0  0  0  0  0
    4.7492    2.8630  -12.2489 H   0  0  0  0  0  0  0  0  0  0  0  0
    6.0843    4.8186  -11.6033 H   0  0  0  0  0  0  0  0  0  0  0  0
    9.7604    9.2279   -8.5963 H   0  0  0  0  0  0  0  0  0  0  0  0
    8.0886    8.7738   -8.6383 H   0  0  0  0  0  0  0  0  0  0  0  0
    8.4471    7.3332   -6.6114 H   0  0  0  0  0  0  0  0  0  0  0  0
    8.9015    8.9780   -6.2895 H   0  0  0  0  0  0  0  0  0  0  0  0
   10.2997   11.0860   -5.4168 H   0  0  0  0  0  0  0  0  0  0  0  0
   12.0018   11.0989   -5.8845 H   0  0  0  0  0  0  0  0  0  0  0  0
   10.8528   10.2113   -6.8587 H   0  0  0  0  0  0  0  0  0  0  0  0
   11.9769   10.5726   -3.3224 H   0  0  0  0  0  0  0  0  0  0  0  0
    8.7392    6.5169   -8.9743 H   0  0  0  0  0  0  0  0  0  0  0  0
  2  1  1  0
  3  2  1  0
  4  3  2  0
  5  4  1  0
  6  5  1  0
  7  6  1  0
  8  7  1  0
  9  8  1  0
 10  9  1  0
 11 10  1  0
 12 10  1  0
 13 12  1  0
 14 12  1  0
 14 13  1  0
 14 15  1  6
 16 14  1  0
 17 16  2  0
 18 17  1  0
 19 18  2  0
 20 19  1  0
 21 16  1  0
 21 20  2  0
 22  9  1  0
 23  6  1  0
 23 22  1  0
 24  5  2  0
 25 24  1  0
 26  2  2  0
 26 24  1  0
 27  1  1  0
 28  1  1  0
 29  1  1  0
 30  3  1  0
 31  4  1  0
 32  7  1  0
 33  7  1  0
 34  8  1  0
 35  8  1  0
 10 36  1  6
 37 11  1  0
 38 11  1  0
 39 11  1  0
 12 40  1  1
 41 13  1  0
 42 13  1  0
 43 15  1  0
 44 15  1  0
 45 15  1  0
 46 17  1  0
 47 18  1  0
 48 19  1  0
 49 20  1  0
 50 21  1  0
 51 22  1  0
 52 22  1  0
 53 23  1  0
 54 23  1  0
 55 25  1  0
 56 25  1  0
 57 25  1  0
 58 26  1  0
 59  9  1  0
M  CHG  1   9   1
M  END
>  <b_m_subgroup_collapsed>  (550) 
0

>  <r_i_docking_score>  (550) 
-7.7907810459805198

>  <s_m_subgroup_title>  (550) 
glide-dock_SP_D22_pv

>  <s_m_subgroupid>  (550) 
glide-dock_SP_D22_pv

>  <Molecule ChEMBL ID>  (550) 
CHEMBL523994

>  <Standard Type>  (550) 
Ki

>  <Standard Value>  (550) 
10000.0

>  <label>  (550) 
0

$$$$
CHEMBL46559
     RDKit          3D

 46 48  0  0  1  0  0  0  0  0999 V2000
   12.8851    8.9723   -1.4467 N   0  0  0  0  0  0  0  0  0  0  0  0
   12.4346    8.7552   -2.4816 C   0  0  0  0  0  0  0  0  0  0  0  0
   11.8844    8.4697   -3.7832 C   0  0  0  0  0  0  0  0  0  0  0  0
   11.6865    7.1291   -4.1510 C   0  0  0  0  0  0  0  0  0  0  0  0
   11.2857    6.8206   -5.4563 C   0  0  0  0  0  0  0  0  0  0  0  0
   11.0873    7.8527   -6.4081 C   0  0  0  0  0  0  0  0  0  0  0  0
   10.7998    7.6224   -7.7305 O   0  0  0  0  0  0  0  0  0  0  0  0
   10.4549    6.2944   -8.0776 C   0  0  0  0  0  0  0  0  0  0  0  0
   10.1444    6.2005   -9.5701 C   0  0  1  0  0  0  0  0  0  0  0  0
    9.4448    4.8616   -9.8496 C   0  0  0  0  0  0  0  0  0  0  0  0
    9.0407    4.7417  -11.3163 C   0  0  0  0  0  0  0  0  0  0  0  0
    8.1127    5.8445  -11.6752 N   0  0  2  0  0  0  0  0  0  0  0  0
    7.4671    5.6999  -13.0054 C   0  0  0  0  0  0  0  0  0  0  0  0
    6.9699    4.2917  -13.3108 C   0  0  0  0  0  0  0  0  0  0  0  0
    7.7287    3.4343  -14.1395 C   0  0  0  0  0  0  0  0  0  0  0  0
    7.2864    2.1242  -14.4044 C   0  0  0  0  0  0  0  0  0  0  0  0
    6.0856    1.6614  -13.8347 C   0  0  0  0  0  0  0  0  0  0  0  0
    5.6595    0.3994  -14.0769 F   0  0  0  0  0  0  0  0  0  0  0  0
    5.3216    2.5142  -13.0148 C   0  0  0  0  0  0  0  0  0  0  0  0
    5.7635    3.8260  -12.7483 C   0  0  0  0  0  0  0  0  0  0  0  0
    8.7799    7.1632  -11.5153 C   0  0  0  0  0  0  0  0  0  0  0  0
    9.2962    7.3753  -10.0760 C   0  0  0  0  0  0  0  0  0  0  0  0
   11.2146    9.1968   -6.0048 C   0  0  0  0  0  0  0  0  0  0  0  0
   11.5959    9.5078   -4.6894 C   0  0  0  0  0  0  0  0  0  0  0  0
   11.8820    6.3293   -3.4509 H   0  0  0  0  0  0  0  0  0  0  0  0
   11.1898    5.7736   -5.7027 H   0  0  0  0  0  0  0  0  0  0  0  0
    9.5851    5.9874   -7.4914 H   0  0  0  0  0  0  0  0  0  0  0  0
   11.2808    5.6177   -7.8471 H   0  0  0  0  0  0  0  0  0  0  0  0
   11.0815    6.2466  -10.1139 H   0  0  0  0  0  0  0  0  0  0  0  0
   10.0867    4.0264   -9.5711 H   0  0  0  0  0  0  0  0  0  0  0  0
    8.5517    4.7681   -9.2296 H   0  0  0  0  0  0  0  0  0  0  0  0
    8.5710    3.7726  -11.4526 H   0  0  0  0  0  0  0  0  0  0  0  0
    9.9193    4.7561  -11.9629 H   0  0  0  0  0  0  0  0  0  0  0  0
    8.1687    5.9987  -13.7860 H   0  0  0  0  0  0  0  0  0  0  0  0
    6.6268    6.3943  -13.0466 H   0  0  0  0  0  0  0  0  0  0  0  0
    8.6584    3.7754  -14.5722 H   0  0  0  0  0  0  0  0  0  0  0  0
    7.8699    1.4699  -15.0351 H   0  0  0  0  0  0  0  0  0  0  0  0
    4.3936    2.1654  -12.5858 H   0  0  0  0  0  0  0  0  0  0  0  0
    5.1818    4.4678  -12.1034 H   0  0  0  0  0  0  0  0  0  0  0  0
    9.6139    7.2296  -12.2154 H   0  0  0  0  0  0  0  0  0  0  0  0
    8.0868    7.9633  -11.7849 H   0  0  0  0  0  0  0  0  0  0  0  0
    9.8754    8.2990  -10.0437 H   0  0  0  0  0  0  0  0  0  0  0  0
    8.4853    7.5262   -9.3738 H   0  0  0  0  0  0  0  0  0  0  0  0
   11.0376    9.9894   -6.7169 H   0  0  0  0  0  0  0  0  0  0  0  0
   11.6859   10.5429   -4.3966 H   0  0  0  0  0  0  0  0  0  0  0  0
    7.3611    5.8416  -10.9952 H   0  0  0  0  0  0  0  0  0  0  0  0
  2  1  3  0
  3  2  1  0
  4  3  1  0
  5  4  2  0
  6  5  1  0
  7  6  1  0
  8  7  1  0
  9  8  1  0
 10  9  1  0
 11 10  1  0
 12 11  1  0
 13 12  1  0
 14 13  1  0
 15 14  1  0
 16 15  2  0
 17 16  1  0
 18 17  1  0
 19 17  2  0
 20 14  2  0
 20 19  1  0
 21 12  1  0
 22  9  1  0
 22 21  1  0
 23  6  2  0
 24  3  2  0
 24 23  1  0
 25  4  1  0
 26  5  1  0
 27  8  1  0
 28  8  1  0
  9 29  1  6
 30 10  1  0
 31 10  1  0
 32 11  1  0
 33 11  1  0
 34 13  1  0
 35 13  1  0
 36 15  1  0
 37 16  1  0
 38 19  1  0
 39 20  1  0
 40 21  1  0
 41 21  1  0
 42 22  1  0
 43 22  1  0
 44 23  1  0
 45 24  1  0
 12 46  1  1
M  CHG  1  12   1
M  END
>  <b_m_subgroup_collapsed>  (551) 
0

>  <r_i_docking_score>  (551) 
-7.7895161942941904

>  <s_m_subgroup_title>  (551) 
glide-dock_SP_D22_pv

>  <s_m_subgroupid>  (551) 
glide-dock_SP_D22_pv

>  <Molecule ChEMBL ID>  (551) 
CHEMBL46559

>  <Standard Type>  (551) 
Ki

>  <Standard Value>  (551) 
10000.0

>  <label>  (551) 
0

$$$$
CHEMBL2062854
     RDKit          3D

 52 55  0  0  1  0  0  0  0  0999 V2000
   10.4861    5.6985   -8.1577 C   0  0  0  0  0  0  0  0  0  0  0  0
    9.3942    6.3041   -8.9969 C   0  0  2  0  0  0  0  0  0  0  0  0
    9.9037    6.5996  -10.3828 C   0  0  2  0  0  0  0  0  0  0  0  0
    9.9799    8.1021  -10.5548 C   0  0  2  0  0  0  0  0  0  0  0  0
    9.4312    8.7247   -9.2896 C   0  0  0  0  0  0  0  0  0  0  0  0
    8.8863    7.6023   -8.4887 N   0  0  2  0  0  0  0  0  0  0  0  0
    8.7849    7.7945   -7.0207 C   0  0  0  0  0  0  0  0  0  0  0  0
   10.0604    8.1142   -6.2450 C   0  0  0  0  0  0  0  0  0  0  0  0
   10.5889    9.4177   -6.2558 C   0  0  0  0  0  0  0  0  0  0  0  0
   11.6599    9.7738   -5.4204 C   0  0  0  0  0  0  0  0  0  0  0  0
   12.1962    8.8321   -4.5275 C   0  0  0  0  0  0  0  0  0  0  0  0
   11.6864    7.5207   -4.5092 C   0  0  0  0  0  0  0  0  0  0  0  0
   10.6335    7.1627   -5.3717 C   0  0  0  0  0  0  0  0  0  0  0  0
    9.2072    7.9635  -11.8717 C   0  0  2  0  0  0  0  0  0  0  0  0
    8.0864    8.9244  -12.2468 C   0  0  0  0  0  0  0  0  0  0  0  0
    6.9589    8.1723  -12.6469 O   0  0  0  0  0  0  0  0  0  0  0  0
    8.8894    6.5034  -11.5139 C   0  0  1  0  0  0  0  0  0  0  0  0
    9.2256    5.5334  -12.5800 N   0  0  0  0  0  0  0  0  0  0  0  0
    9.5437    4.1721  -12.1305 C   0  0  0  0  0  0  0  0  0  0  0  0
    9.5451    3.3472  -13.4138 C   0  0  0  0  0  0  0  0  0  0  0  0
    8.4869    4.0187  -14.2827 C   0  0  0  0  0  0  0  0  0  0  0  0
    8.1548    5.3327  -13.5677 C   0  0  0  0  0  0  0  0  0  0  0  0
   10.8788    4.8049   -8.6398 H   0  0  0  0  0  0  0  0  0  0  0  0
   11.3086    6.3907   -7.9882 H   0  0  0  0  0  0  0  0  0  0  0  0
   10.0795    5.3723   -7.2099 H   0  0  0  0  0  0  0  0  0  0  0  0
    8.5588    5.6017   -9.0261 H   0  0  0  0  0  0  0  0  0  0  0  0
   10.8737    6.1724  -10.6245 H   0  0  0  0  0  0  0  0  0  0  0  0
   11.0021    8.4300  -10.7537 H   0  0  0  0  0  0  0  0  0  0  0  0
   10.2551    9.2209   -8.7883 H   0  0  0  0  0  0  0  0  0  0  0  0
    8.6560    9.4678   -9.4599 H   0  0  0  0  0  0  0  0  0  0  0  0
    8.0860    8.6096   -6.8468 H   0  0  0  0  0  0  0  0  0  0  0  0
    8.3027    6.9128   -6.5983 H   0  0  0  0  0  0  0  0  0  0  0  0
   10.1416   10.1723   -6.8784 H   0  0  0  0  0  0  0  0  0  0  0  0
   12.0441   10.7810   -5.4480 H   0  0  0  0  0  0  0  0  0  0  0  0
   12.9972    9.1159   -3.8621 H   0  0  0  0  0  0  0  0  0  0  0  0
   12.0893    6.7925   -3.8204 H   0  0  0  0  0  0  0  0  0  0  0  0
   10.2166    6.1725   -5.2742 H   0  0  0  0  0  0  0  0  0  0  0  0
    9.9690    7.9664  -12.6469 H   0  0  0  0  0  0  0  0  0  0  0  0
    8.4026    9.5830  -13.0536 H   0  0  0  0  0  0  0  0  0  0  0  0
    7.7833    9.5685  -11.4251 H   0  0  0  0  0  0  0  0  0  0  0  0
    6.5275    7.9407  -11.8094 H   0  0  0  0  0  0  0  0  0  0  0  0
    7.8852    6.3456  -11.1183 H   0  0  0  0  0  0  0  0  0  0  0  0
   10.4860    4.1085  -11.6020 H   0  0  0  0  0  0  0  0  0  0  0  0
    8.7614    3.8162  -11.4580 H   0  0  0  0  0  0  0  0  0  0  0  0
   10.5209    3.4098  -13.8980 H   0  0  0  0  0  0  0  0  0  0  0  0
    9.3311    2.2929  -13.2391 H   0  0  0  0  0  0  0  0  0  0  0  0
    8.8862    4.2018  -15.2814 H   0  0  0  0  0  0  0  0  0  0  0  0
    7.5965    3.3968  -14.3882 H   0  0  0  0  0  0  0  0  0  0  0  0
    7.1920    5.2389  -13.0610 H   0  0  0  0  0  0  0  0  0  0  0  0
    8.0864    6.1729  -14.2492 H   0  0  0  0  0  0  0  0  0  0  0  0
   10.0378    5.8726  -13.0754 H   0  0  0  0  0  0  0  0  0  0  0  0
    7.9104    7.5679   -8.7795 H   0  0  0  0  0  0  0  0  0  0  0  0
  2  1  1  0
  3  2  1  0
  4  3  1  0
  5  4  1  0
  6  2  1  0
  6  5  1  0
  7  6  1  0
  8  7  1  0
  9  8  2  0
 10  9  1  0
 11 10  2  0
 12 11  1  0
 13  8  1  0
 13 12  2  0
 14  4  1  0
 15 14  1  0
 16 15  1  0
 17  3  1  0
 17 14  1  0
 18 17  1  0
 19 18  1  0
 20 19  1  0
 21 20  1  0
 22 18  1  0
 22 21  1  0
 23  1  1  0
 24  1  1  0
 25  1  1  0
  2 26  1  6
  3 27  1  6
  4 28  1  6
 29  5  1  0
 30  5  1  0
 31  7  1  0
 32  7  1  0
 33  9  1  0
 34 10  1  0
 35 11  1  0
 36 12  1  0
 37 13  1  0
 14 38  1  6
 39 15  1  0
 40 15  1  0
 41 16  1  0
 17 42  1  1
 43 19  1  0
 44 19  1  0
 45 20  1  0
 46 20  1  0
 47 21  1  0
 48 21  1  0
 49 22  1  0
 50 22  1  0
 51 18  1  0
  6 52  1  6
M  CHG  2   6   1  18   1
M  END
>  <b_m_subgroup_collapsed>  (552) 
0

>  <r_i_docking_score>  (552) 
-7.7881259227788702

>  <s_m_subgroup_title>  (552) 
glide-dock_SP_D22_pv

>  <s_m_subgroupid>  (552) 
glide-dock_SP_D22_pv

>  <Molecule ChEMBL ID>  (552) 
CHEMBL2062854

>  <Standard Type>  (552) 
Ki

>  <Standard Value>  (552) 
66000.0

>  <label>  (552) 
0

$$$$
CHEMBL80615
     RDKit          3D

 75 78  0  0  1  0  0  0  0  0999 V2000
   12.2253    9.3722   -2.4840 C   0  0  0  0  0  0  0  0  0  0  0  0
   11.7292    8.9470   -3.8541 C   0  0  0  0  0  0  0  0  0  0  0  0
   11.2829    9.9227   -4.7594 C   0  0  0  0  0  0  0  0  0  0  0  0
   10.7861    9.5536   -6.0181 C   0  0  0  0  0  0  0  0  0  0  0  0
   10.6469    8.1954   -6.4027 C   0  0  0  0  0  0  0  0  0  0  0  0
   10.0527    7.8279   -7.6440 N   0  0  0  0  0  0  0  0  0  0  0  0
    9.4819    8.8538   -8.5131 C   0  0  0  0  0  0  0  0  0  0  0  0
    9.4795    8.4097   -9.9797 C   0  0  0  0  0  0  0  0  0  0  0  0
    8.8861    7.0655  -10.2234 N   0  0  0  0  0  0  0  0  0  0  0  0
    9.1940    6.6732  -11.6291 C   0  0  0  0  0  0  0  0  0  0  0  0
    8.6144    5.3302  -12.1202 C   0  0  0  0  0  0  0  0  0  0  0  0
    9.1806    4.9088  -13.5044 C   0  0  1  0  0  0  0  0  0  0  0  0
   10.6791    4.5298  -13.4169 C   0  0  0  0  0  0  0  0  0  0  0  0
   11.2516    4.0000  -14.7399 C   0  0  0  0  0  0  0  0  0  0  0  0
   10.4477    2.7992  -15.2602 C   0  0  2  0  0  0  0  0  0  0  0  0
   11.0042    2.3586  -16.5358 N   0  0  0  0  0  0  0  0  0  0  0  0
   10.9655    1.1107  -17.0288 C   0  0  0  0  0  0  0  0  0  0  0  0
   10.4651    0.1613  -16.4264 O   0  0  0  0  0  0  0  0  0  0  0  0
   11.6043    0.9190  -18.4143 C   0  0  0  0  0  0  0  0  0  0  0  0
   12.1731   -0.5026  -18.6254 C   0  0  0  0  0  0  0  0  0  0  0  0
   12.8550   -0.6245  -19.9980 C   0  0  0  0  0  0  0  0  0  0  0  0
   11.8686   -0.2832  -21.1272 C   0  0  0  0  0  0  0  0  0  0  0  0
   11.2487    1.1095  -20.9240 C   0  0  0  0  0  0  0  0  0  0  0  0
   10.5977    1.2424  -19.5363 C   0  0  0  0  0  0  0  0  0  0  0  0
    8.9699    3.2010  -15.4173 C   0  0  0  0  0  0  0  0  0  0  0  0
    8.3810    3.7269  -14.0936 C   0  0  0  0  0  0  0  0  0  0  0  0
    9.3117    6.0504   -9.2144 C   0  0  0  0  0  0  0  0  0  0  0  0
    9.3138    6.5683   -7.7590 C   0  0  0  0  0  0  0  0  0  0  0  0
   11.1404    7.2243   -5.4911 C   0  0  0  0  0  0  0  0  0  0  0  0
   11.6859    7.5885   -4.2361 C   0  0  0  0  0  0  0  0  0  0  0  0
   12.1668    6.5063   -3.2909 C   0  0  0  0  0  0  0  0  0  0  0  0
   13.2859    9.1551   -2.3742 H   0  0  0  0  0  0  0  0  0  0  0  0
   12.0858   10.4420   -2.3292 H   0  0  0  0  0  0  0  0  0  0  0  0
   11.6866    8.8495   -1.6946 H   0  0  0  0  0  0  0  0  0  0  0  0
   11.2861   10.9696   -4.4926 H   0  0  0  0  0  0  0  0  0  0  0  0
   10.4862   10.3720   -6.6467 H   0  0  0  0  0  0  0  0  0  0  0  0
    8.4700    9.0911   -8.1777 H   0  0  0  0  0  0  0  0  0  0  0  0
   10.0603    9.7718   -8.4962 H   0  0  0  0  0  0  0  0  0  0  0  0
    8.9450    9.1454  -10.5819 H   0  0  0  0  0  0  0  0  0  0  0  0
   10.5161    8.4143  -10.3247 H   0  0  0  0  0  0  0  0  0  0  0  0
    8.8390    7.4612  -12.2951 H   0  0  0  0  0  0  0  0  0  0  0  0
   10.2782    6.6606  -11.7241 H   0  0  0  0  0  0  0  0  0  0  0  0
    8.8138    4.5288  -11.4092 H   0  0  0  0  0  0  0  0  0  0  0  0
    7.5285    5.4220  -12.1742 H   0  0  0  0  0  0  0  0  0  0  0  0
    9.0761    5.7541  -14.1887 H   0  0  0  0  0  0  0  0  0  0  0  0
   11.2853    5.3808  -13.1124 H   0  0  0  0  0  0  0  0  0  0  0  0
   10.8048    3.7723  -12.6464 H   0  0  0  0  0  0  0  0  0  0  0  0
   12.2954    3.7164  -14.5987 H   0  0  0  0  0  0  0  0  0  0  0  0
   11.2483    4.8018  -15.4798 H   0  0  0  0  0  0  0  0  0  0  0  0
   10.5244    1.9874  -14.5332 H   0  0  0  0  0  0  0  0  0  0  0  0
   11.4472    3.0646  -17.1041 H   0  0  0  0  0  0  0  0  0  0  0  0
   12.4381    1.6203  -18.4843 H   0  0  0  0  0  0  0  0  0  0  0  0
   12.8899   -0.7430  -17.8463 H   0  0  0  0  0  0  0  0  0  0  0  0
   11.3773   -1.2460  -18.5496 H   0  0  0  0  0  0  0  0  0  0  0  0
   13.7102    0.0521  -20.0413 H   0  0  0  0  0  0  0  0  0  0  0  0
   13.2591   -1.6284  -20.1331 H   0  0  0  0  0  0  0  0  0  0  0  0
   12.3732   -0.3301  -22.0931 H   0  0  0  0  0  0  0  0  0  0  0  0
   11.0736   -1.0290  -21.1576 H   0  0  0  0  0  0  0  0  0  0  0  0
   12.0207    1.8713  -21.0385 H   0  0  0  0  0  0  0  0  0  0  0  0
   10.5075    1.3020  -21.7009 H   0  0  0  0  0  0  0  0  0  0  0  0
    9.7402    0.5697  -19.4717 H   0  0  0  0  0  0  0  0  0  0  0  0
   10.2060    2.2540  -19.4160 H   0  0  0  0  0  0  0  0  0  0  0  0
    8.3840    2.3480  -15.7613 H   0  0  0  0  0  0  0  0  0  0  0  0
    8.8862    3.9692  -16.1870 H   0  0  0  0  0  0  0  0  0  0  0  0
    8.3664    2.9115  -13.3756 H   0  0  0  0  0  0  0  0  0  0  0  0
    7.3419    4.0192  -14.2448 H   0  0  0  0  0  0  0  0  0  0  0  0
    8.6585    5.1797   -9.2731 H   0  0  0  0  0  0  0  0  0  0  0  0
   10.3192    5.7097   -9.4601 H   0  0  0  0  0  0  0  0  0  0  0  0
    9.7051    5.7794   -7.1229 H   0  0  0  0  0  0  0  0  0  0  0  0
    8.2880    6.7392   -7.4271 H   0  0  0  0  0  0  0  0  0  0  0  0
   11.1171    6.1748   -5.7336 H   0  0  0  0  0  0  0  0  0  0  0  0
   12.3894    5.5970   -3.8422 H   0  0  0  0  0  0  0  0  0  0  0  0
   13.0827    6.8025   -2.7801 H   0  0  0  0  0  0  0  0  0  0  0  0
   11.4048    6.2823   -2.5413 H   0  0  0  0  0  0  0  0  0  0  0  0
    7.8711    7.2064  -10.1462 H   0  0  0  0  0  0  0  0  0  0  0  0
  2  1  1  0
  3  2  1  0
  4  3  2  0
  5  4  1  0
  6  5  1  0
  7  6  1  0
  8  7  1  0
  9  8  1  0
 10  9  1  0
 11 10  1  0
 12 11  1  0
 13 12  1  0
 14 13  1  0
 15 14  1  0
 16 15  1  0
 17 16  1  0
 18 17  2  0
 19 17  1  0
 20 19  1  0
 21 20  1  0
 22 21  1  0
 23 22  1  0
 24 19  1  0
 24 23  1  0
 25 15  1  0
 26 12  1  0
 26 25  1  0
 27  9  1  0
 28  6  1  0
 28 27  1  0
 29  5  2  0
 30  2  2  0
 30 29  1  0
 31 30  1  0
 32  1  1  0
 33  1  1  0
 34  1  1  0
 35  3  1  0
 36  4  1  0
 37  7  1  0
 38  7  1  0
 39  8  1  0
 40  8  1  0
 41 10  1  0
 42 10  1  0
 43 11  1  0
 44 11  1  0
 12 45  1  6
 46 13  1  0
 47 13  1  0
 48 14  1  0
 49 14  1  0
 15 50  1  1
 51 16  1  0
 52 19  1  0
 53 20  1  0
 54 20  1  0
 55 21  1  0
 56 21  1  0
 57 22  1  0
 58 22  1  0
 59 23  1  0
 60 23  1  0
 61 24  1  0
 62 24  1  0
 63 25  1  0
 64 25  1  0
 65 26  1  0
 66 26  1  0
 67 27  1  0
 68 27  1  0
 69 28  1  0
 70 28  1  0
 71 29  1  0
 72 31  1  0
 73 31  1  0
 74 31  1  0
 75  9  1  0
M  CHG  1   9   1
M  END
>  <b_m_subgroup_collapsed>  (553) 
0

>  <r_i_docking_score>  (553) 
-7.7829207027405696

>  <s_m_subgroup_title>  (553) 
glide-dock_SP_D22_pv

>  <s_m_subgroupid>  (553) 
glide-dock_SP_D22_pv

>  <Molecule ChEMBL ID>  (553) 
CHEMBL80615

>  <Standard Type>  (553) 
Ki

>  <Standard Value>  (553) 
5.6

>  <label>  (553) 
1

$$$$
CHEMBL11608
     RDKit          3D

 22 22  0  0  1  0  0  0  0  0999 V2000
    8.8860    6.9446   -8.1998 N   0  0  0  0  0  0  0  0  0  0  0  0
    9.3029    7.3158   -6.8360 C   0  0  0  0  0  0  0  0  0  0  0  0
   10.8339    7.3701   -6.7005 C   0  0  0  0  0  0  0  0  0  0  0  0
   11.2817    7.7908   -5.3111 C   0  0  0  0  0  0  0  0  0  0  0  0
   11.6860    6.8244   -4.3652 C   0  0  0  0  0  0  0  0  0  0  0  0
   12.1147    7.2168   -3.0818 C   0  0  0  0  0  0  0  0  0  0  0  0
   12.1422    8.5814   -2.7372 C   0  0  0  0  0  0  0  0  0  0  0  0
   12.6089    8.9723   -1.5155 O   0  0  0  0  0  0  0  0  0  0  0  0
   11.7019    9.5429   -3.6654 C   0  0  0  0  0  0  0  0  0  0  0  0
   11.2861    9.1548   -4.9532 C   0  0  0  0  0  0  0  0  0  0  0  0
    7.8662    6.9724   -8.2465 H   0  0  0  0  0  0  0  0  0  0  0  0
    9.2389    7.6050   -8.8763 H   0  0  0  0  0  0  0  0  0  0  0  0
    8.8871    6.5895   -6.1373 H   0  0  0  0  0  0  0  0  0  0  0  0
    8.8610    8.2831   -6.5922 H   0  0  0  0  0  0  0  0  0  0  0  0
   11.2511    8.0722   -7.4241 H   0  0  0  0  0  0  0  0  0  0  0  0
   11.2663    6.3960   -6.9347 H   0  0  0  0  0  0  0  0  0  0  0  0
   11.6761    5.7751   -4.6218 H   0  0  0  0  0  0  0  0  0  0  0  0
   12.4363    6.4696   -2.3703 H   0  0  0  0  0  0  0  0  0  0  0  0
   12.8171    9.8973   -1.4612 H   0  0  0  0  0  0  0  0  0  0  0  0
   11.6860   10.5835   -3.3893 H   0  0  0  0  0  0  0  0  0  0  0  0
   10.9665    9.9068   -5.6602 H   0  0  0  0  0  0  0  0  0  0  0  0
    9.1977    6.0133   -8.4311 H   0  0  0  0  0  0  0  0  0  0  0  0
  2  1  1  0
  3  2  1  0
  4  3  1  0
  5  4  1  0
  6  5  2  0
  7  6  1  0
  8  7  1  0
  9  7  2  0
 10  4  2  0
 10  9  1  0
 11  1  1  0
 12  1  1  0
 13  2  1  0
 14  2  1  0
 15  3  1  0
 16  3  1  0
 17  5  1  0
 18  6  1  0
 19  8  1  0
 20  9  1  0
 21 10  1  0
 22  1  1  0
M  CHG  1   1   1
M  END
>  <b_m_subgroup_collapsed>  (554) 
0

>  <r_i_docking_score>  (554) 
-7.7828881590154397

>  <s_m_subgroup_title>  (554) 
glide-dock_SP_D22_pv

>  <s_m_subgroupid>  (554) 
glide-dock_SP_D22_pv

>  <Molecule ChEMBL ID>  (554) 
CHEMBL11608

>  <Standard Type>  (554) 
Ki

>  <Standard Value>  (554) 
17000.0

>  <label>  (554) 
0

$$$$
CHEMBL391192
     RDKit          3D

 51 54  0  0  1  0  0  0  0  0999 V2000
   10.4305    1.5356  -14.7806 C   0  0  0  0  0  0  0  0  0  0  0  0
   10.9247    2.8148  -15.1449 O   0  0  0  0  0  0  0  0  0  0  0  0
   10.7398    3.8649  -14.2693 C   0  0  0  0  0  0  0  0  0  0  0  0
    9.9193    3.7932  -13.1155 C   0  0  0  0  0  0  0  0  0  0  0  0
    9.7938    4.8963  -12.2469 C   0  0  0  0  0  0  0  0  0  0  0  0
   10.4813    6.0977  -12.5376 C   0  0  0  0  0  0  0  0  0  0  0  0
   11.2863    6.1723  -13.6881 C   0  0  0  0  0  0  0  0  0  0  0  0
   11.4290    5.0638  -14.5570 C   0  0  0  0  0  0  0  0  0  0  0  0
   12.2279    5.0771  -15.6820 O   0  0  0  0  0  0  0  0  0  0  0  0
   13.0017    6.2383  -15.9477 C   0  0  0  0  0  0  0  0  0  0  0  0
   10.3993    7.2977  -11.6025 C   0  0  0  0  0  0  0  0  0  0  0  0
    9.8284    6.9749  -10.2843 N   0  0  0  0  0  0  0  0  0  0  0  0
   10.3945    7.4872   -9.1670 C   0  0  0  0  0  0  0  0  0  0  0  0
    9.9795    7.2452   -7.9034 N   0  0  0  0  0  0  0  0  0  0  0  0
   10.6551    7.8901   -6.8026 C   0  0  0  0  0  0  0  0  0  0  0  0
   11.0531    9.2409   -6.9437 C   0  0  0  0  0  0  0  0  0  0  0  0
   11.6633    9.9198   -5.8689 C   0  0  0  0  0  0  0  0  0  0  0  0
   11.8614    9.2218   -4.6660 C   0  0  0  0  0  0  0  0  0  0  0  0
   11.4886    7.8918   -4.5216 C   0  0  0  0  0  0  0  0  0  0  0  0
   10.8760    7.1949   -5.5867 C   0  0  0  0  0  0  0  0  0  0  0  0
   11.7789    7.4042   -3.1144 C   0  0  1  0  0  0  0  0  0  0  0  0
   12.4860    6.1984   -3.0469 O   0  0  0  0  0  0  0  0  0  0  0  0
   12.5190    8.5773   -2.4348 C   0  0  0  0  0  0  0  0  0  0  0  0
   12.4597    9.7723   -3.4053 C   0  0  0  0  0  0  0  0  0  0  0  0
    8.6510    6.0925  -10.3025 C   0  0  0  0  0  0  0  0  0  0  0  0
    8.9868    4.7524  -10.9635 C   0  0  0  0  0  0  0  0  0  0  0  0
   10.7003    0.8135  -15.5511 H   0  0  0  0  0  0  0  0  0  0  0  0
   10.8784    1.1980  -13.8468 H   0  0  0  0  0  0  0  0  0  0  0  0
    9.3437    1.5304  -14.6899 H   0  0  0  0  0  0  0  0  0  0  0  0
    9.3965    2.8844  -12.8617 H   0  0  0  0  0  0  0  0  0  0  0  0
   11.8053    7.0988  -13.8806 H   0  0  0  0  0  0  0  0  0  0  0  0
   13.6014    6.0727  -16.8426 H   0  0  0  0  0  0  0  0  0  0  0  0
   12.3675    7.1067  -16.1324 H   0  0  0  0  0  0  0  0  0  0  0  0
   13.6882    6.4575  -15.1283 H   0  0  0  0  0  0  0  0  0  0  0  0
    9.7920    8.0739  -12.0695 H   0  0  0  0  0  0  0  0  0  0  0  0
   11.4008    7.7080  -11.4725 H   0  0  0  0  0  0  0  0  0  0  0  0
   11.2544    8.1317   -9.3082 H   0  0  0  0  0  0  0  0  0  0  0  0
   10.8757    9.7722   -7.8661 H   0  0  0  0  0  0  0  0  0  0  0  0
   11.9589   10.9544   -5.9653 H   0  0  0  0  0  0  0  0  0  0  0  0
   10.5589    6.1723   -5.4612 H   0  0  0  0  0  0  0  0  0  0  0  0
   10.8860    7.2234   -2.5415 H   0  0  0  0  0  0  0  0  0  0  0  0
   11.8991    5.4891   -3.2677 H   0  0  0  0  0  0  0  0  0  0  0  0
   12.0855    8.8246   -1.4650 H   0  0  0  0  0  0  0  0  0  0  0  0
   13.5579    8.3270   -2.2469 H   0  0  0  0  0  0  0  0  0  0  0  0
   13.4495   10.1723   -3.6131 H   0  0  0  0  0  0  0  0  0  0  0  0
   11.8285   10.5712   -3.0138 H   0  0  0  0  0  0  0  0  0  0  0  0
    8.2001    5.9625   -9.3192 H   0  0  0  0  0  0  0  0  0  0  0  0
    7.9094    6.5723  -10.9372 H   0  0  0  0  0  0  0  0  0  0  0  0
    8.0675    4.2031  -11.1713 H   0  0  0  0  0  0  0  0  0  0  0  0
    9.5705    4.1579  -10.2625 H   0  0  0  0  0  0  0  0  0  0  0  0
    9.3541    6.4670   -7.7462 H   0  0  0  0  0  0  0  0  0  0  0  0
  2  1  1  0
  3  2  1  0
  4  3  2  0
  5  4  1  0
  6  5  2  0
  7  6  1  0
  8  3  1  0
  8  7  2  0
  9  8  1  0
 10  9  1  0
 11  6  1  0
 12 11  1  0
 13 12  2  3
 14 13  1  0
 15 14  1  0
 16 15  1  0
 17 16  2  0
 18 17  1  0
 19 18  2  0
 20 15  2  0
 20 19  1  0
 21 19  1  0
 22 21  1  0
 23 21  1  0
 24 18  1  0
 24 23  1  0
 25 12  1  0
 26  5  1  0
 26 25  1  0
 27  1  1  0
 28  1  1  0
 29  1  1  0
 30  4  1  0
 31  7  1  0
 32 10  1  0
 33 10  1  0
 34 10  1  0
 35 11  1  0
 36 11  1  0
 37 13  1  0
 38 16  1  0
 39 17  1  0
 40 20  1  0
 21 41  1  1
 42 22  1  0
 43 23  1  0
 44 23  1  0
 45 24  1  0
 46 24  1  0
 47 25  1  0
 48 25  1  0
 49 26  1  0
 50 26  1  0
 51 14  1  0
M  CHG  1  12   1
M  END
>  <b_m_subgroup_collapsed>  (555) 
0

>  <r_i_docking_score>  (555) 
-7.7825544013893602

>  <s_m_subgroup_title>  (555) 
glide-dock_SP_D22_pv

>  <s_m_subgroupid>  (555) 
glide-dock_SP_D22_pv

>  <Molecule ChEMBL ID>  (555) 
CHEMBL391192

>  <Standard Type>  (555) 
Ki

>  <Standard Value>  (555) 
300000.0

>  <label>  (555) 
0

$$$$
CHEMBL486337
     RDKit          3D

 70 73  0  0  1  0  0  0  0  0999 V2000
   12.8900    2.3765  -18.4970 C   0  0  0  0  0  0  0  0  0  0  0  0
   13.1558    3.5767  -17.7859 O   0  0  0  0  0  0  0  0  0  0  0  0
   12.4989    3.7800  -16.5920 C   0  0  0  0  0  0  0  0  0  0  0  0
   12.8734    4.9136  -15.8419 C   0  0  0  0  0  0  0  0  0  0  0  0
   12.2755    5.1813  -14.5960 C   0  0  0  0  0  0  0  0  0  0  0  0
   11.2845    4.3198  -14.0906 C   0  0  0  0  0  0  0  0  0  0  0  0
   10.8846    3.1919  -14.8358 C   0  0  0  0  0  0  0  0  0  0  0  0
    9.7743    2.2908  -14.3260 C   0  0  0  0  0  0  0  0  0  0  0  0
    8.5507    2.3367  -15.2528 C   0  0  0  0  0  0  0  0  0  0  0  0
    7.3330    1.6344  -14.6806 C   0  0  0  0  0  0  0  0  0  0  0  0
    7.1032    0.2802  -15.0011 C   0  0  0  0  0  0  0  0  0  0  0  0
    5.9675   -0.3828  -14.5061 C   0  0  0  0  0  0  0  0  0  0  0  0
    5.0585    0.3065  -13.6847 C   0  0  0  0  0  0  0  0  0  0  0  0
    5.2946    1.6510  -13.3387 C   0  0  0  0  0  0  0  0  0  0  0  0
    6.4345    2.3345  -13.8399 C   0  0  0  0  0  0  0  0  0  0  0  0
    6.7254    3.6528  -13.5422 O   0  0  0  0  0  0  0  0  0  0  0  0
    6.0799    4.2506  -12.4238 C   0  0  0  0  0  0  0  0  0  0  0  0
    6.5517    5.7076  -12.2511 C   0  0  0  0  0  0  0  0  0  0  0  0
    8.0763    5.9357  -12.0801 C   0  0  0  0  0  0  0  0  0  0  0  0
    8.4860    6.1726  -10.6695 N   0  0  1  0  0  0  0  0  0  0  0  0
    8.6052    4.9301   -9.8822 C   0  0  0  0  0  0  0  0  0  0  0  0
    8.6322    5.2599   -8.3910 C   0  0  0  0  0  0  0  0  0  0  0  0
    9.6089    6.3640   -8.0501 C   0  0  0  0  0  0  0  0  0  0  0  0
    9.9626    6.5729   -6.7064 C   0  0  0  0  0  0  0  0  0  0  0  0
   10.8870    7.5689   -6.3383 C   0  0  0  0  0  0  0  0  0  0  0  0
   11.3000    7.7398   -5.0357 O   0  0  0  0  0  0  0  0  0  0  0  0
   11.4441    6.5691   -4.2476 C   0  0  0  0  0  0  0  0  0  0  0  0
   11.4142    8.4083   -7.3442 C   0  0  0  0  0  0  0  0  0  0  0  0
   12.3432    9.3724   -7.0473 O   0  0  0  0  0  0  0  0  0  0  0  0
   11.9846   10.3117   -6.0420 C   0  0  0  0  0  0  0  0  0  0  0  0
   11.0416    8.2195   -8.6950 C   0  0  0  0  0  0  0  0  0  0  0  0
   10.1272    7.2059   -9.0594 C   0  0  0  0  0  0  0  0  0  0  0  0
    9.7049    7.0185  -10.5201 C   0  0  0  0  0  0  0  0  0  0  0  0
   11.4973    2.9201  -16.0767 C   0  0  0  0  0  0  0  0  0  0  0  0
   13.5227    2.3395  -19.3844 H   0  0  0  0  0  0  0  0  0  0  0  0
   13.1153    1.4958  -17.8921 H   0  0  0  0  0  0  0  0  0  0  0  0
   11.8528    2.3324  -18.8296 H   0  0  0  0  0  0  0  0  0  0  0  0
   13.6384    5.5763  -16.2199 H   0  0  0  0  0  0  0  0  0  0  0  0
   12.5833    6.0462  -14.0259 H   0  0  0  0  0  0  0  0  0  0  0  0
   10.8323    4.5332  -13.1350 H   0  0  0  0  0  0  0  0  0  0  0  0
    9.4907    2.6027  -13.3197 H   0  0  0  0  0  0  0  0  0  0  0  0
   10.1443    1.2683  -14.2452 H   0  0  0  0  0  0  0  0  0  0  0  0
    8.7908    1.9024  -16.2239 H   0  0  0  0  0  0  0  0  0  0  0  0
    8.2886    3.3715  -15.4480 H   0  0  0  0  0  0  0  0  0  0  0  0
    7.7942   -0.2554  -15.6351 H   0  0  0  0  0  0  0  0  0  0  0  0
    5.7912   -1.4163  -14.7664 H   0  0  0  0  0  0  0  0  0  0  0  0
    4.1730   -0.1955  -13.3272 H   0  0  0  0  0  0  0  0  0  0  0  0
    4.5749    2.1406  -12.7024 H   0  0  0  0  0  0  0  0  0  0  0  0
    5.0017    4.2685  -12.5845 H   0  0  0  0  0  0  0  0  0  0  0  0
    6.2601    3.6634  -11.5241 H   0  0  0  0  0  0  0  0  0  0  0  0
    6.2223    6.2608  -13.1233 H   0  0  0  0  0  0  0  0  0  0  0  0
    5.9905    6.1717  -11.4467 H   0  0  0  0  0  0  0  0  0  0  0  0
    8.6555    5.1276  -12.5280 H   0  0  0  0  0  0  0  0  0  0  0  0
    8.3281    6.8312  -12.6506 H   0  0  0  0  0  0  0  0  0  0  0  0
    7.7760    4.2546  -10.0776 H   0  0  0  0  0  0  0  0  0  0  0  0
    9.5160    4.4041  -10.1766 H   0  0  0  0  0  0  0  0  0  0  0  0
    8.8859    4.3526   -7.8476 H   0  0  0  0  0  0  0  0  0  0  0  0
    7.6559    5.5813   -8.0414 H   0  0  0  0  0  0  0  0  0  0  0  0
    9.5043    5.9691   -5.9460 H   0  0  0  0  0  0  0  0  0  0  0  0
   12.0197    6.8043   -3.3530 H   0  0  0  0  0  0  0  0  0  0  0  0
   10.4851    6.1722   -3.9240 H   0  0  0  0  0  0  0  0  0  0  0  0
   11.9832    5.7916   -4.7921 H   0  0  0  0  0  0  0  0  0  0  0  0
   12.4862   11.2570   -6.2468 H   0  0  0  0  0  0  0  0  0  0  0  0
   10.9099   10.5090   -6.0190 H   0  0  0  0  0  0  0  0  0  0  0  0
   12.3106    9.9842   -5.0543 H   0  0  0  0  0  0  0  0  0  0  0  0
   11.4645    8.8648   -9.4517 H   0  0  0  0  0  0  0  0  0  0  0  0
   10.5338    6.5721  -11.0693 H   0  0  0  0  0  0  0  0  0  0  0  0
    9.5147    7.9986  -10.9592 H   0  0  0  0  0  0  0  0  0  0  0  0
   11.1801    2.0447  -16.6225 H   0  0  0  0  0  0  0  0  0  0  0  0
    7.7293    6.7279  -10.2612 H   0  0  0  0  0  0  0  0  0  0  0  0
  2  1  1  0
  3  2  1  0
  4  3  1  0
  5  4  2  0
  6  5  1  0
  7  6  2  0
  8  7  1  0
  9  8  1  0
 10  9  1  0
 11 10  2  0
 12 11  1  0
 13 12  2  0
 14 13  1  0
 15 10  1  0
 15 14  2  0
 16 15  1  0
 17 16  1  0
 18 17  1  0
 19 18  1  0
 20 19  1  0
 21 20  1  0
 22 21  1  0
 23 22  1  0
 24 23  1  0
 25 24  2  0
 26 25  1  0
 27 26  1  0
 28 25  1  0
 29 28  1  0
 30 29  1  0
 31 28  2  0
 32 23  2  0
 32 31  1  0
 33 20  1  0
 33 32  1  0
 34  3  2  0
 34  7  1  0
 35  1  1  0
 36  1  1  0
 37  1  1  0
 38  4  1  0
 39  5  1  0
 40  6  1  0
 41  8  1  0
 42  8  1  0
 43  9  1  0
 44  9  1  0
 45 11  1  0
 46 12  1  0
 47 13  1  0
 48 14  1  0
 49 17  1  0
 50 17  1  0
 51 18  1  0
 52 18  1  0
 53 19  1  0
 54 19  1  0
 55 21  1  0
 56 21  1  0
 57 22  1  0
 58 22  1  0
 59 24  1  0
 60 27  1  0
 61 27  1  0
 62 27  1  0
 63 30  1  0
 64 30  1  0
 65 30  1  0
 66 31  1  0
 67 33  1  0
 68 33  1  0
 69 34  1  0
 20 70  1  1
M  CHG  1  20   1
M  END
>  <b_m_subgroup_collapsed>  (556) 
0

>  <r_i_docking_score>  (556) 
-7.7817489122913903

>  <s_m_subgroup_title>  (556) 
glide-dock_SP_D22_pv

>  <s_m_subgroupid>  (556) 
glide-dock_SP_D22_pv

>  <Molecule ChEMBL ID>  (556) 
CHEMBL486337

>  <Standard Type>  (556) 
Ki

>  <Standard Value>  (556) 
1000000.0

>  <label>  (556) 
0

$$$$
CHEMBL167032
     RDKit          3D

 56 58  0  0  1  0  0  0  0  0999 V2000
   13.1952    5.7191  -15.3444 C   0  0  0  0  0  0  0  0  0  0  0  0
   12.0902    5.3500  -14.5315 O   0  0  0  0  0  0  0  0  0  0  0  0
   11.4280    4.1677  -14.8001 C   0  0  0  0  0  0  0  0  0  0  0  0
   11.8352    3.2823  -15.8316 C   0  0  0  0  0  0  0  0  0  0  0  0
   11.1671    2.0626  -16.0565 C   0  0  0  0  0  0  0  0  0  0  0  0
   11.6863    1.1926  -17.0475 N   0  0  0  0  0  0  0  0  0  0  0  0
   11.0312    0.7602  -18.1357 C   0  0  0  0  0  0  0  0  0  0  0  0
   11.8027   -0.1820  -19.0538 C   0  0  0  0  0  0  0  0  0  0  0  0
    9.8784    1.0850  -18.4162 O   0  0  0  0  0  0  0  0  0  0  0  0
   10.0774    1.7045  -15.2300 C   0  0  0  0  0  0  0  0  0  0  0  0
    9.2893    0.1724  -15.3607 Cl  0  0  0  0  0  0  0  0  0  0  0  0
    9.6420    2.5941  -14.2339 C   0  0  0  0  0  0  0  0  0  0  0  0
   10.3082    3.8182  -13.9967 C   0  0  0  0  0  0  0  0  0  0  0  0
    9.7859    4.7456  -12.9296 C   0  0  0  0  0  0  0  0  0  0  0  0
    9.8382    5.9629  -13.0538 O   0  0  0  0  0  0  0  0  0  0  0  0
    9.2863    4.1747  -11.8266 N   0  0  0  0  0  0  0  0  0  0  0  0
    8.5861    4.8995  -10.7619 C   0  0  0  0  0  0  0  0  0  0  0  0
    9.5145    5.6742   -9.7948 C   0  0  1  0  0  0  0  0  0  0  0  0
   10.1479    6.9540  -10.3795 C   0  0  0  0  0  0  0  0  0  0  0  0
   10.2374    7.9141   -9.2151 C   0  0  0  0  0  0  0  0  0  0  0  0
    9.0003    7.6278   -8.4789 N   0  0  2  0  0  0  0  0  0  0  0  0
    8.8512    8.2812   -7.1609 C   0  0  0  0  0  0  0  0  0  0  0  0
   10.0705    8.2055   -6.2471 C   0  0  0  0  0  0  0  0  0  0  0  0
   10.8813    9.3400   -6.0301 C   0  0  0  0  0  0  0  0  0  0  0  0
   11.8881    9.3057   -5.0451 C   0  0  0  0  0  0  0  0  0  0  0  0
   12.0900    8.1424   -4.2785 C   0  0  0  0  0  0  0  0  0  0  0  0
   11.3416    6.9851   -4.5488 C   0  0  0  0  0  0  0  0  0  0  0  0
   10.3358    7.0236   -5.5274 C   0  0  0  0  0  0  0  0  0  0  0  0
    8.7624    6.1706   -8.5481 C   0  0  0  0  0  0  0  0  0  0  0  0
   13.5893    6.6752  -15.0007 H   0  0  0  0  0  0  0  0  0  0  0  0
   14.0018    4.9891  -15.2789 H   0  0  0  0  0  0  0  0  0  0  0  0
   12.9016    5.8443  -16.3874 H   0  0  0  0  0  0  0  0  0  0  0  0
   12.6823    3.5082  -16.4606 H   0  0  0  0  0  0  0  0  0  0  0  0
   12.6648    0.9563  -16.9694 H   0  0  0  0  0  0  0  0  0  0  0  0
   12.1994   -1.0276  -18.4916 H   0  0  0  0  0  0  0  0  0  0  0  0
   11.1525   -0.5732  -19.8371 H   0  0  0  0  0  0  0  0  0  0  0  0
   12.6333    0.3415  -19.5269 H   0  0  0  0  0  0  0  0  0  0  0  0
    8.7932    2.3083  -13.6318 H   0  0  0  0  0  0  0  0  0  0  0  0
    9.3217    3.1667  -11.7611 H   0  0  0  0  0  0  0  0  0  0  0  0
    8.0078    4.1727  -10.1933 H   0  0  0  0  0  0  0  0  0  0  0  0
    7.8458    5.5745  -11.1984 H   0  0  0  0  0  0  0  0  0  0  0  0
   10.3096    5.0112   -9.4516 H   0  0  0  0  0  0  0  0  0  0  0  0
    9.4775    7.4058  -11.1113 H   0  0  0  0  0  0  0  0  0  0  0  0
   11.1110    6.7887  -10.8598 H   0  0  0  0  0  0  0  0  0  0  0  0
   10.2928    8.9570   -9.5304 H   0  0  0  0  0  0  0  0  0  0  0  0
   11.1191    7.6833   -8.6162 H   0  0  0  0  0  0  0  0  0  0  0  0
    7.9799    7.8759   -6.6471 H   0  0  0  0  0  0  0  0  0  0  0  0
    8.6224    9.3276   -7.3632 H   0  0  0  0  0  0  0  0  0  0  0  0
   10.7084   10.2530   -6.5809 H   0  0  0  0  0  0  0  0  0  0  0  0
   12.5039   10.1721   -4.8672 H   0  0  0  0  0  0  0  0  0  0  0  0
   12.8533    8.1246   -3.5156 H   0  0  0  0  0  0  0  0  0  0  0  0
   11.5076    6.0849   -3.9755 H   0  0  0  0  0  0  0  0  0  0  0  0
    9.6951    6.1726   -5.6553 H   0  0  0  0  0  0  0  0  0  0  0  0
    9.1441    5.6573   -7.6684 H   0  0  0  0  0  0  0  0  0  0  0  0
    7.6902    5.9714   -8.6014 H   0  0  0  0  0  0  0  0  0  0  0  0
    8.2455    7.9911   -9.0520 H   0  0  0  0  0  0  0  0  0  0  0  0
  2  1  1  0
  3  2  1  0
  4  3  1  0
  5  4  2  0
  6  5  1  0
  7  6  1  0
  8  7  1  0
  9  7  2  0
 10  5  1  0
 11 10  1  0
 12 10  2  0
 13  3  2  0
 13 12  1  0
 14 13  1  0
 15 14  2  0
 16 14  1  0
 17 16  1  0
 18 17  1  0
 19 18  1  0
 20 19  1  0
 21 20  1  0
 22 21  1  0
 23 22  1  0
 24 23  2  0
 25 24  1  0
 26 25  2  0
 27 26  1  0
 28 23  1  0
 28 27  2  0
 29 18  1  0
 29 21  1  0
 30  1  1  0
 31  1  1  0
 32  1  1  0
 33  4  1  0
 34  6  1  0
 35  8  1  0
 36  8  1  0
 37  8  1  0
 38 12  1  0
 39 16  1  0
 40 17  1  0
 41 17  1  0
 18 42  1  1
 43 19  1  0
 44 19  1  0
 45 20  1  0
 46 20  1  0
 47 22  1  0
 48 22  1  0
 49 24  1  0
 50 25  1  0
 51 26  1  0
 52 27  1  0
 53 28  1  0
 54 29  1  0
 55 29  1  0
 21 56  1  6
M  CHG  1  21   1
M  END
>  <b_m_subgroup_collapsed>  (557) 
0

>  <r_i_docking_score>  (557) 
-7.7787517139614497

>  <s_m_subgroup_title>  (557) 
glide-dock_SP_D22_pv

>  <s_m_subgroupid>  (557) 
glide-dock_SP_D22_pv

>  <Molecule ChEMBL ID>  (557) 
CHEMBL167032

>  <Standard Type>  (557) 
Ki

>  <Standard Value>  (557) 
25000.0

>  <label>  (557) 
0

$$$$
CHEMBL6047939
     RDKit          3D

 63 67  0  0  1  0  0  0  0  0999 V2000
   10.3413    5.7562   -7.7556 C   0  0  0  0  0  0  0  0  0  0  0  0
   10.5001    7.1629   -8.0120 N   0  0  0  0  0  0  0  0  0  0  0  0
   10.2983    7.7938   -9.1822 C   0  0  0  0  0  0  0  0  0  0  0  0
    9.7677    6.9294  -10.6297 S   0  0  0  0  0  0  0  0  0  0  0  0
   10.7518    7.7723  -11.8881 C   0  0  0  0  0  0  0  0  0  0  0  0
   11.6830    6.8298  -12.6482 C   0  0  0  0  0  0  0  0  0  0  0  0
   12.2435    7.4546  -13.9447 C   0  0  0  0  0  0  0  0  0  0  0  0
   12.6833    6.4501  -14.9459 N   0  0  2  0  0  0  0  0  0  0  0  0
   13.1274    7.0349  -16.2312 C   0  0  0  0  0  0  0  0  0  0  0  0
   12.9162    5.9471  -17.2900 C   0  0  1  0  0  0  0  0  0  0  0  0
   14.0986    4.9925  -17.4976 C   0  0  0  0  0  0  0  0  0  0  0  0
   13.4332    3.6387  -17.7591 C   0  0  0  0  0  0  0  0  0  0  0  0
   12.1931    3.6825  -17.0016 N   0  0  0  0  0  0  0  0  0  0  0  0
   11.3382    2.5687  -16.8420 C   0  0  0  0  0  0  0  0  0  0  0  0
   11.7121    1.2947  -17.3350 C   0  0  0  0  0  0  0  0  0  0  0  0
   10.8858    0.1718  -17.1423 C   0  0  0  0  0  0  0  0  0  0  0  0
    9.6696    0.3002  -16.4508 C   0  0  0  0  0  0  0  0  0  0  0  0
    9.2675    1.5572  -15.9594 C   0  0  0  0  0  0  0  0  0  0  0  0
    7.9445    1.6931  -15.2221 C   0  0  0  0  0  0  0  0  0  0  0  0
    7.9238    2.7862  -14.4571 F   0  0  0  0  0  0  0  0  0  0  0  0
    6.9558    1.7736  -16.1126 F   0  0  0  0  0  0  0  0  0  0  0  0
    7.7357    0.6321  -14.4430 F   0  0  0  0  0  0  0  0  0  0  0  0
   10.0953    2.6838  -16.1726 C   0  0  0  0  0  0  0  0  0  0  0  0
   11.7949    5.0605  -16.7467 C   0  0  1  0  0  0  0  0  0  0  0  0
   11.6872    5.3965  -15.2542 C   0  0  0  0  0  0  0  0  0  0  0  0
   10.5509    9.0999   -9.1284 N   0  0  0  0  0  0  0  0  0  0  0  0
   10.9422    9.3499   -7.8353 N   0  0  0  0  0  0  0  0  0  0  0  0
   10.8934    8.1776   -7.1997 C   0  0  0  0  0  0  0  0  0  0  0  0
   11.2748    8.1074   -5.7681 C   0  0  0  0  0  0  0  0  0  0  0  0
   11.7007    9.3101   -5.0568 C   0  0  0  0  0  0  0  0  0  0  0  0
   12.0905    9.2741   -3.7646 C   0  0  0  0  0  0  0  0  0  0  0  0
   12.1117    8.0268   -3.0101 C   0  0  0  0  0  0  0  0  0  0  0  0
   12.4860    7.9388   -1.8466 O   0  0  0  0  0  0  0  0  0  0  0  0
   11.6864    6.9479   -3.6920 N   0  0  0  0  0  0  0  0  0  0  0  0
   11.2852    6.9723   -5.0324 C   0  0  0  0  0  0  0  0  0  0  0  0
   11.2855    5.3722   -7.3785 H   0  0  0  0  0  0  0  0  0  0  0  0
   10.0976    5.1909   -8.6529 H   0  0  0  0  0  0  0  0  0  0  0  0
    9.5321    5.6113   -7.0468 H   0  0  0  0  0  0  0  0  0  0  0  0
   10.0395    8.2372  -12.5693 H   0  0  0  0  0  0  0  0  0  0  0  0
   11.3526    8.5648  -11.4469 H   0  0  0  0  0  0  0  0  0  0  0  0
   12.5124    6.5723  -11.9992 H   0  0  0  0  0  0  0  0  0  0  0  0
   11.1278    5.9119  -12.8341 H   0  0  0  0  0  0  0  0  0  0  0  0
   11.5031    8.1065  -14.4023 H   0  0  0  0  0  0  0  0  0  0  0  0
   13.0870    8.1009  -13.6978 H   0  0  0  0  0  0  0  0  0  0  0  0
   12.5018    7.8932  -16.4842 H   0  0  0  0  0  0  0  0  0  0  0  0
   14.1592    7.3824  -16.1837 H   0  0  0  0  0  0  0  0  0  0  0  0
   12.6297    6.3768  -18.2535 H   0  0  0  0  0  0  0  0  0  0  0  0
   14.7536    5.3015  -18.3120 H   0  0  0  0  0  0  0  0  0  0  0  0
   14.7012    4.9420  -16.5904 H   0  0  0  0  0  0  0  0  0  0  0  0
   13.2067    3.5137  -18.8187 H   0  0  0  0  0  0  0  0  0  0  0  0
   14.0823    2.8210  -17.4483 H   0  0  0  0  0  0  0  0  0  0  0  0
   12.6452    1.1528  -17.8575 H   0  0  0  0  0  0  0  0  0  0  0  0
   11.1913   -0.7940  -17.5163 H   0  0  0  0  0  0  0  0  0  0  0  0
    9.0421   -0.5661  -16.3009 H   0  0  0  0  0  0  0  0  0  0  0  0
    9.7604    3.6388  -15.7980 H   0  0  0  0  0  0  0  0  0  0  0  0
   10.8567    5.2841  -17.2583 H   0  0  0  0  0  0  0  0  0  0  0  0
   11.8557    4.5282  -14.6154 H   0  0  0  0  0  0  0  0  0  0  0  0
   10.6774    5.7599  -15.0580 H   0  0  0  0  0  0  0  0  0  0  0  0
   11.7108   10.2617   -5.5653 H   0  0  0  0  0  0  0  0  0  0  0  0
   12.4036   10.1718   -3.2609 H   0  0  0  0  0  0  0  0  0  0  0  0
   11.6656    6.0548   -3.2165 H   0  0  0  0  0  0  0  0  0  0  0  0
   10.9974    5.9948   -5.3668 H   0  0  0  0  0  0  0  0  0  0  0  0
   13.4871    5.9737  -14.5556 H   0  0  0  0  0  0  0  0  0  0  0  0
  2  1  1  0
  3  2  1  0
  4  3  1  0
  5  4  1  0
  6  5  1  0
  7  6  1  0
  8  7  1  0
  9  8  1  0
 10  9  1  0
 11 10  1  0
 12 11  1  0
 13 12  1  0
 14 13  1  0
 15 14  1  0
 16 15  2  0
 17 16  1  0
 18 17  2  0
 19 18  1  0
 20 19  1  0
 21 19  1  0
 22 19  1  0
 23 14  2  0
 23 18  1  0
 24 10  1  0
 24 13  1  0
 25  8  1  0
 25 24  1  0
 26  3  2  0
 27 26  1  0
 28  2  1  0
 28 27  2  0
 29 28  1  0
 30 29  1  0
 31 30  2  0
 32 31  1  0
 33 32  2  0
 34 32  1  0
 35 29  2  0
 35 34  1  0
 36  1  1  0
 37  1  1  0
 38  1  1  0
 39  5  1  0
 40  5  1  0
 41  6  1  0
 42  6  1  0
 43  7  1  0
 44  7  1  0
 45  9  1  0
 46  9  1  0
 10 47  1  6
 48 11  1  0
 49 11  1  0
 50 12  1  0
 51 12  1  0
 52 15  1  0
 53 16  1  0
 54 17  1  0
 55 23  1  0
 24 56  1  6
 57 25  1  0
 58 25  1  0
 59 30  1  0
 60 31  1  0
 61 34  1  0
 62 35  1  0
  8 63  1  1
M  CHG  1   8   1
M  END
>  <b_m_subgroup_collapsed>  (558) 
0

>  <r_i_docking_score>  (558) 
-7.7716254692840696

>  <s_m_subgroup_title>  (558) 
glide-dock_SP_D22_pv

>  <s_m_subgroupid>  (558) 
glide-dock_SP_D22_pv

>  <Molecule ChEMBL ID>  (558) 
CHEMBL6047939

>  <Standard Type>  (558) 
Ki

>  <Standard Value>  (558) 
37.2

>  <label>  (558) 
1

$$$$
CHEMBL76982
     RDKit          3D

 42 45  0  0  1  0  0  0  0  0999 V2000
   12.0917    8.9708   -2.2167 Cl  0  0  0  0  0  0  0  0  0  0  0  0
   11.6858    8.6013   -3.8432 C   0  0  0  0  0  0  0  0  0  0  0  0
   11.3224    9.6308   -4.7314 C   0  0  0  0  0  0  0  0  0  0  0  0
   10.9942    9.3207   -6.0633 C   0  0  0  0  0  0  0  0  0  0  0  0
   10.9721    7.9789   -6.4976 C   0  0  0  0  0  0  0  0  0  0  0  0
   10.6273    7.6981   -7.8253 N   0  0  0  0  0  0  0  0  0  0  0  0
    9.9941    6.4304   -8.1446 C   0  0  0  0  0  0  0  0  0  0  0  0
    9.2539    6.5779   -9.4771 C   0  0  0  0  0  0  0  0  0  0  0  0
   10.1524    6.9728  -10.5715 N   0  0  0  0  0  0  0  0  0  0  0  0
    9.3730    7.2098  -11.7913 C   0  0  0  0  0  0  0  0  0  0  0  0
    8.6270    6.0185  -12.3105 C   0  0  0  0  0  0  0  0  0  0  0  0
    9.1247    5.1582  -13.1988 N   0  0  0  0  0  0  0  0  0  0  0  0
    8.0726    4.2763  -13.3827 C   0  0  0  0  0  0  0  0  0  0  0  0
    7.9713    3.1399  -14.2163 C   0  0  0  0  0  0  0  0  0  0  0  0
    6.7849    2.3777  -14.2382 C   0  0  0  0  0  0  0  0  0  0  0  0
    5.6868    2.7423  -13.4280 C   0  0  0  0  0  0  0  0  0  0  0  0
    5.7542    3.8836  -12.6046 C   0  0  0  0  0  0  0  0  0  0  0  0
    6.9444    4.6343  -12.5840 C   0  0  0  0  0  0  0  0  0  0  0  0
    7.3636    5.7723  -11.9139 N   0  0  0  0  0  0  0  0  0  0  0  0
   10.8009    8.2406  -10.2083 C   0  0  0  0  0  0  0  0  0  0  0  0
   11.5515    8.1297   -8.8656 C   0  0  0  0  0  0  0  0  0  0  0  0
   11.2879    6.9500   -5.5824 C   0  0  0  0  0  0  0  0  0  0  0  0
   11.6860    7.2617   -4.2692 C   0  0  0  0  0  0  0  0  0  0  0  0
   11.2877   10.6552   -4.3935 H   0  0  0  0  0  0  0  0  0  0  0  0
   10.7311   10.1145   -6.7457 H   0  0  0  0  0  0  0  0  0  0  0  0
   10.7368    5.6346   -8.2055 H   0  0  0  0  0  0  0  0  0  0  0  0
    9.2838    6.1599   -7.3625 H   0  0  0  0  0  0  0  0  0  0  0  0
    8.7570    5.6348   -9.7028 H   0  0  0  0  0  0  0  0  0  0  0  0
    8.4859    7.3389   -9.3607 H   0  0  0  0  0  0  0  0  0  0  0  0
    8.6543    8.0163  -11.6269 H   0  0  0  0  0  0  0  0  0  0  0  0
   10.0389    7.5470  -12.5902 H   0  0  0  0  0  0  0  0  0  0  0  0
    8.8134    2.8530  -14.8279 H   0  0  0  0  0  0  0  0  0  0  0  0
    6.7187    1.5042  -14.8710 H   0  0  0  0  0  0  0  0  0  0  0  0
    4.7854    2.1468  -13.4470 H   0  0  0  0  0  0  0  0  0  0  0  0
    4.9087    4.1731  -11.9943 H   0  0  0  0  0  0  0  0  0  0  0  0
    6.8650    6.3649  -11.2447 H   0  0  0  0  0  0  0  0  0  0  0  0
   11.5009    8.5293  -10.9934 H   0  0  0  0  0  0  0  0  0  0  0  0
   10.0550    9.0345  -10.1361 H   0  0  0  0  0  0  0  0  0  0  0  0
   12.0108    9.0849   -8.6114 H   0  0  0  0  0  0  0  0  0  0  0  0
   12.3547    7.3947   -8.9482 H   0  0  0  0  0  0  0  0  0  0  0  0
   11.2829    5.9159   -5.8909 H   0  0  0  0  0  0  0  0  0  0  0  0
   11.9523    6.4699   -3.5839 H   0  0  0  0  0  0  0  0  0  0  0  0
  2  1  1  0
  3  2  1  0
  4  3  2  0
  5  4  1  0
  6  5  1  0
  7  6  1  0
  8  7  1  0
  9  8  1  0
 10  9  1  0
 11 10  1  0
 12 11  2  0
 13 12  1  0
 14 13  2  0
 15 14  1  0
 16 15  2  0
 17 16  1  0
 18 13  1  0
 18 17  2  0
 19 11  1  0
 19 18  1  0
 20  9  1  0
 21  6  1  0
 21 20  1  0
 22  5  2  0
 23  2  2  0
 23 22  1  0
 24  3  1  0
 25  4  1  0
 26  7  1  0
 27  7  1  0
 28  8  1  0
 29  8  1  0
 30 10  1  0
 31 10  1  0
 32 14  1  0
 33 15  1  0
 34 16  1  0
 35 17  1  0
 36 19  1  0
 37 20  1  0
 38 20  1  0
 39 21  1  0
 40 21  1  0
 41 22  1  0
 42 23  1  0
M  END
>  <b_m_subgroup_collapsed>  (559) 
0

>  <r_i_docking_score>  (559) 
-7.7674116990492204

>  <s_m_subgroup_title>  (559) 
glide-dock_SP_D22_pv

>  <s_m_subgroupid>  (559) 
glide-dock_SP_D22_pv

>  <Molecule ChEMBL ID>  (559) 
CHEMBL76982

>  <Standard Type>  (559) 
Ki

>  <Standard Value>  (559) 
10000.0

>  <label>  (559) 
0

$$$$
CHEMBL594557
     RDKit          3D

 40 43  0  0  1  0  0  0  0  0999 V2000
   12.1824    8.9780   -2.8417 C   0  0  0  0  0  0  0  0  0  0  0  0
   11.8782    7.8074   -3.5889 O   0  0  0  0  0  0  0  0  0  0  0  0
   11.3829    7.9680   -4.8653 C   0  0  0  0  0  0  0  0  0  0  0  0
   10.9629    9.2018   -5.4044 C   0  0  0  0  0  0  0  0  0  0  0  0
   10.4860    9.2652   -6.7244 C   0  0  0  0  0  0  0  0  0  0  0  0
   10.4779    8.1454   -7.5804 C   0  0  0  0  0  0  0  0  0  0  0  0
   10.8851    6.9173   -7.0266 C   0  0  0  0  0  0  0  0  0  0  0  0
   11.2869    6.8244   -5.6776 C   0  0  0  0  0  0  0  0  0  0  0  0
   10.8860    5.6873   -7.8867 C   0  0  0  0  0  0  0  0  0  0  0  0
    9.5193    5.1338   -8.2461 C   0  0  0  0  0  0  0  0  0  0  0  0
    8.4860    6.2300   -8.4221 C   0  0  0  0  0  0  0  0  0  0  0  0
    8.8860    7.2712   -9.3893 N   0  0  2  0  0  0  0  0  0  0  0  0
    8.9664    6.8126  -10.8000 C   0  0  0  0  0  0  0  0  0  0  0  0
   10.3177    7.2675  -11.1913 C   0  0  0  0  0  0  0  0  0  0  0  0
   10.9870    6.9212  -12.3720 C   0  0  0  0  0  0  0  0  0  0  0  0
   12.3057    7.3747  -12.5249 C   0  0  0  0  0  0  0  0  0  0  0  0
   12.8896    8.1723  -11.5108 C   0  0  0  0  0  0  0  0  0  0  0  0
   12.2114    8.4693  -10.3105 C   0  0  0  0  0  0  0  0  0  0  0  0
   10.8951    8.0351  -10.1844 C   0  0  0  0  0  0  0  0  0  0  0  0
    9.9456    8.2508   -9.0290 C   0  0  2  0  0  0  0  0  0  0  0  0
   12.6443    8.6948   -1.8959 H   0  0  0  0  0  0  0  0  0  0  0  0
   11.2860    9.5519   -2.6107 H   0  0  0  0  0  0  0  0  0  0  0  0
   12.8859    9.6198   -3.3735 H   0  0  0  0  0  0  0  0  0  0  0  0
   10.9676   10.1072   -4.8166 H   0  0  0  0  0  0  0  0  0  0  0  0
   10.1008   10.1997   -7.0469 H   0  0  0  0  0  0  0  0  0  0  0  0
   11.5905    5.8708   -5.2702 H   0  0  0  0  0  0  0  0  0  0  0  0
   11.2860    5.9607   -8.8476 H   0  0  0  0  0  0  0  0  0  0  0  0
   11.5723    4.9723   -7.4469 H   0  0  0  0  0  0  0  0  0  0  0  0
    9.5889    4.4817   -9.1175 H   0  0  0  0  0  0  0  0  0  0  0  0
    9.1513    4.5206   -7.4469 H   0  0  0  0  0  0  0  0  0  0  0  0
    7.5801    5.7723   -8.7965 H   0  0  0  0  0  0  0  0  0  0  0  0
    8.2147    6.6810   -7.4659 H   0  0  0  0  0  0  0  0  0  0  0  0
    8.8605    5.7340  -10.9160 H   0  0  0  0  0  0  0  0  0  0  0  0
    8.2238    7.3028  -11.4325 H   0  0  0  0  0  0  0  0  0  0  0  0
   10.5185    6.3042  -13.1248 H   0  0  0  0  0  0  0  0  0  0  0  0
   12.8679    7.1307  -13.4151 H   0  0  0  0  0  0  0  0  0  0  0  0
   13.9017    8.5295  -11.6376 H   0  0  0  0  0  0  0  0  0  0  0  0
   12.6935    9.0006   -9.5070 H   0  0  0  0  0  0  0  0  0  0  0  0
    9.5165    9.2450   -9.1617 H   0  0  0  0  0  0  0  0  0  0  0  0
    7.9966    7.7772   -9.4270 H   0  0  0  0  0  0  0  0  0  0  0  0
  2  1  1  0
  3  2  1  0
  4  3  1  0
  5  4  2  0
  6  5  1  0
  7  6  2  0
  8  3  2  0
  8  7  1  0
  9  7  1  0
 10  9  1  0
 11 10  1  0
 12 11  1  0
 13 12  1  0
 14 13  1  0
 15 14  2  0
 16 15  1  0
 17 16  2  0
 18 17  1  0
 19 14  1  0
 19 18  2  0
 20  6  1  0
 20 12  1  0
 20 19  1  0
 21  1  1  0
 22  1  1  0
 23  1  1  0
 24  4  1  0
 25  5  1  0
 26  8  1  0
 27  9  1  0
 28  9  1  0
 29 10  1  0
 30 10  1  0
 31 11  1  0
 32 11  1  0
 33 13  1  0
 34 13  1  0
 35 15  1  0
 36 16  1  0
 37 17  1  0
 38 18  1  0
 20 39  1  6
 12 40  1  6
M  CHG  1  12   1
M  END
>  <b_m_subgroup_collapsed>  (560) 
0

>  <r_i_docking_score>  (560) 
-7.7669996555730698

>  <s_m_subgroup_title>  (560) 
glide-dock_SP_D22_pv

>  <s_m_subgroupid>  (560) 
glide-dock_SP_D22_pv

>  <Molecule ChEMBL ID>  (560) 
CHEMBL594557

>  <Standard Type>  (560) 
Ki

>  <Standard Value>  (560) 
10000.0

>  <label>  (560) 
0

$$$$
CHEMBL5273118
     RDKit          3D

 68 73  0  0  1  0  0  0  0  0999 V2000
    9.3757    0.3718  -14.4096 C   0  0  0  0  0  0  0  0  0  0  0  0
    8.6008    1.3307  -15.1917 N   0  0  0  0  0  0  0  0  0  0  0  0
    8.0845    2.4054  -14.3368 C   0  0  0  0  0  0  0  0  0  0  0  0
    9.1635    3.2723  -13.6501 C   0  0  0  0  0  0  0  0  0  0  0  0
    8.5108    4.3061  -12.7122 C   0  0  2  0  0  0  0  0  0  0  0  0
    7.6410    5.3190  -13.4480 C   0  0  0  0  0  0  0  0  0  0  0  0
    7.6242    6.5818  -12.5891 C   0  0  0  0  0  0  0  0  0  0  0  0
    8.5949    6.3460  -11.4162 C   0  0  2  0  0  0  0  0  0  0  0  0
    9.3655    7.6333  -11.0254 C   0  0  0  0  0  0  0  0  0  0  0  0
    9.6850    7.8270   -9.6081 N   0  0  0  0  0  0  0  0  0  0  0  0
   10.0590    6.9430   -8.6696 C   0  0  0  0  0  0  0  0  0  0  0  0
   10.0856    5.7242   -8.8316 O   0  0  0  0  0  0  0  0  0  0  0  0
   10.4861    7.5413   -7.3877 C   0  0  0  0  0  0  0  0  0  0  0  0
   10.6089    8.8371   -6.9508 C   0  0  0  0  0  0  0  0  0  0  0  0
   11.1046    8.7845   -5.6045 C   0  0  0  0  0  0  0  0  0  0  0  0
   11.4236    9.7521   -4.6228 C   0  0  0  0  0  0  0  0  0  0  0  0
   11.9171    9.3723   -3.3586 C   0  0  0  0  0  0  0  0  0  0  0  0
   12.0866    8.0108   -3.0395 C   0  0  0  0  0  0  0  0  0  0  0  0
   11.7528    7.0250   -3.9872 C   0  0  0  0  0  0  0  0  0  0  0  0
   11.2824    7.4145   -5.2523 C   0  0  0  0  0  0  0  0  0  0  0  0
   10.8881    6.6981   -6.3631 N   0  0  0  0  0  0  0  0  0  0  0  0
    9.4766    5.1806  -11.9102 C   0  0  0  0  0  0  0  0  0  0  0  0
    7.5418    0.6232  -15.9286 C   0  0  2  0  0  0  0  0  0  0  0  0
    7.1496    1.3690  -17.2292 C   0  0  0  0  0  0  0  0  0  0  0  0
    6.1296    0.5902  -18.0630 C   0  0  0  0  0  0  0  0  0  0  0  0
    5.9013    0.5638  -19.4560 C   0  0  0  0  0  0  0  0  0  0  0  0
    4.8767   -0.2661  -19.9924 C   0  0  0  0  0  0  0  0  0  0  0  0
    4.0619   -1.0767  -19.1562 C   0  0  0  0  0  0  0  0  0  0  0  0
    4.2806   -1.0430  -17.7680 C   0  0  0  0  0  0  0  0  0  0  0  0
    3.6862   -1.6576  -16.6635 N   0  0  0  0  0  0  0  0  0  0  0  0
    4.2758   -1.1958  -15.5432 C   0  0  0  0  0  0  0  0  0  0  0  0
    3.9297   -1.4252  -14.3873 O   0  0  0  0  0  0  0  0  0  0  0  0
    5.2977   -0.3964  -15.9212 N   0  0  0  0  0  0  0  0  0  0  0  0
    5.2862   -0.2316  -17.3083 C   0  0  0  0  0  0  0  0  0  0  0  0
    6.2976    0.2375  -15.0798 C   0  0  0  0  0  0  0  0  0  0  0  0
    9.6603   -0.4965  -15.0046 H   0  0  0  0  0  0  0  0  0  0  0  0
   10.3085    0.8140  -14.0624 H   0  0  0  0  0  0  0  0  0  0  0  0
    8.8123    0.0319  -13.5414 H   0  0  0  0  0  0  0  0  0  0  0  0
    7.4411    1.9905  -13.5629 H   0  0  0  0  0  0  0  0  0  0  0  0
    7.4510    3.0496  -14.9456 H   0  0  0  0  0  0  0  0  0  0  0  0
    9.7831    3.7653  -14.4011 H   0  0  0  0  0  0  0  0  0  0  0  0
    9.8304    2.6555  -13.0476 H   0  0  0  0  0  0  0  0  0  0  0  0
    7.8850    3.7766  -11.9919 H   0  0  0  0  0  0  0  0  0  0  0  0
    6.6357    4.9348  -13.6257 H   0  0  0  0  0  0  0  0  0  0  0  0
    8.0860    5.5501  -14.4177 H   0  0  0  0  0  0  0  0  0  0  0  0
    6.6153    6.8054  -12.2470 H   0  0  0  0  0  0  0  0  0  0  0  0
    7.9358    7.4350  -13.1878 H   0  0  0  0  0  0  0  0  0  0  0  0
    7.9949    6.0008  -10.5704 H   0  0  0  0  0  0  0  0  0  0  0  0
    8.7541    8.4985  -11.2900 H   0  0  0  0  0  0  0  0  0  0  0  0
   10.2783    7.7292  -11.6156 H   0  0  0  0  0  0  0  0  0  0  0  0
    9.6600    8.7874   -9.3009 H   0  0  0  0  0  0  0  0  0  0  0  0
   10.3807    9.7356   -7.5004 H   0  0  0  0  0  0  0  0  0  0  0  0
   11.2864   10.7971   -4.8505 H   0  0  0  0  0  0  0  0  0  0  0  0
   12.1553   10.1298   -2.6258 H   0  0  0  0  0  0  0  0  0  0  0  0
   12.4537    7.7233   -2.0650 H   0  0  0  0  0  0  0  0  0  0  0  0
   11.8637    5.9794   -3.7465 H   0  0  0  0  0  0  0  0  0  0  0  0
   10.8595    5.6916   -6.4609 H   0  0  0  0  0  0  0  0  0  0  0  0
   10.2715    5.5510  -12.5581 H   0  0  0  0  0  0  0  0  0  0  0  0
    9.9415    4.6223  -11.1016 H   0  0  0  0  0  0  0  0  0  0  0  0
    7.9794   -0.3110  -16.2850 H   0  0  0  0  0  0  0  0  0  0  0  0
    6.7196    2.3426  -16.9997 H   0  0  0  0  0  0  0  0  0  0  0  0
    8.0327    1.5516  -17.8397 H   0  0  0  0  0  0  0  0  0  0  0  0
    6.5068    1.1654  -20.1154 H   0  0  0  0  0  0  0  0  0  0  0  0
    4.7088   -0.2789  -21.0596 H   0  0  0  0  0  0  0  0  0  0  0  0
    3.2863   -1.7012  -19.5739 H   0  0  0  0  0  0  0  0  0  0  0  0
    2.9572   -2.3652  -16.7033 H   0  0  0  0  0  0  0  0  0  0  0  0
    6.5737   -0.4353  -14.2650 H   0  0  0  0  0  0  0  0  0  0  0  0
    5.8139    1.1074  -14.6402 H   0  0  0  0  0  0  0  0  0  0  0  0
  2  1  1  0
  3  2  1  0
  4  3  1  0
  5  4  1  0
  6  5  1  0
  7  6  1  0
  8  7  1  0
  9  8  1  0
 10  9  1  0
 11 10  1  0
 12 11  2  0
 13 11  1  0
 14 13  2  0
 15 14  1  0
 16 15  2  0
 17 16  1  0
 18 17  2  0
 19 18  1  0
 20 15  1  0
 20 19  2  0
 21 13  1  0
 21 20  1  0
 22  5  1  0
 22  8  1  0
 23  2  1  0
 24 23  1  0
 25 24  1  0
 26 25  1  0
 27 26  2  0
 28 27  1  0
 29 28  2  0
 30 29  1  0
 31 30  1  0
 32 31  2  0
 33 31  1  0
 34 25  2  0
 34 29  1  0
 34 33  1  0
 35 23  1  0
 35 33  1  0
 36  1  1  0
 37  1  1  0
 38  1  1  0
 39  3  1  0
 40  3  1  0
 41  4  1  0
 42  4  1  0
  5 43  1  1
 44  6  1  0
 45  6  1  0
 46  7  1  0
 47  7  1  0
  8 48  1  1
 49  9  1  0
 50  9  1  0
 51 10  1  0
 52 14  1  0
 53 16  1  0
 54 17  1  0
 55 18  1  0
 56 19  1  0
 57 21  1  0
 58 22  1  0
 59 22  1  0
 23 60  1  6
 61 24  1  0
 62 24  1  0
 63 26  1  0
 64 27  1  0
 65 28  1  0
 66 30  1  0
 67 35  1  0
 68 35  1  0
M  END
>  <b_m_subgroup_collapsed>  (561) 
0

>  <r_i_docking_score>  (561) 
-7.7648986841183101

>  <s_m_subgroup_title>  (561) 
glide-dock_SP_D22_pv

>  <s_m_subgroupid>  (561) 
glide-dock_SP_D22_pv

>  <Molecule ChEMBL ID>  (561) 
CHEMBL5273118

>  <Standard Type>  (561) 
Ki

>  <Standard Value>  (561) 
2.03

>  <label>  (561) 
1

$$$$
CHEMBL30256
     RDKit          3D

 52 55  0  0  1  0  0  0  0  0999 V2000
   12.5115    7.4085  -13.6099 O   0  0  0  0  0  0  0  0  0  0  0  0
   11.6854    6.5120  -13.4469 C   0  0  0  0  0  0  0  0  0  0  0  0
   10.7299    6.5726  -12.5057 N   0  0  0  0  0  0  0  0  0  0  0  0
   10.6214    7.6117  -11.4875 C   0  0  0  0  0  0  0  0  0  0  0  0
   10.2148    6.9718  -10.1496 C   0  0  0  0  0  0  0  0  0  0  0  0
   10.1823    7.9120   -9.0318 N   0  0  0  0  0  0  0  0  0  0  0  0
   11.5500    8.2514   -8.5999 C   0  0  0  0  0  0  0  0  0  0  0  0
   11.5413    9.1929   -7.3772 C   0  0  0  0  0  0  0  0  0  0  0  0
   10.7327    8.6196   -6.3172 N   0  0  0  0  0  0  0  0  0  0  0  0
   11.2866    8.3877   -5.0545 C   0  0  0  0  0  0  0  0  0  0  0  0
   11.4259    7.0786   -4.5415 C   0  0  0  0  0  0  0  0  0  0  0  0
   11.9502    6.8885   -3.2462 C   0  0  0  0  0  0  0  0  0  0  0  0
   12.3229    7.9965   -2.4609 C   0  0  0  0  0  0  0  0  0  0  0  0
   12.1920    9.2971   -2.9792 C   0  0  0  0  0  0  0  0  0  0  0  0
   11.6860    9.4900   -4.2753 C   0  0  0  0  0  0  0  0  0  0  0  0
    9.4120    8.1244   -6.6801 C   0  0  0  0  0  0  0  0  0  0  0  0
    9.5019    7.2235   -7.9235 C   0  0  0  0  0  0  0  0  0  0  0  0
   11.6649    5.3060  -14.3546 C   0  0  0  0  0  0  0  0  0  0  0  0
   12.4810    5.2894  -15.5081 C   0  0  0  0  0  0  0  0  0  0  0  0
   12.4993    4.1782  -16.3721 C   0  0  0  0  0  0  0  0  0  0  0  0
   13.6596    4.2299  -17.8850 Br  0  0  0  0  0  0  0  0  0  0  0  0
   11.6865    3.0522  -16.0993 C   0  0  0  0  0  0  0  0  0  0  0  0
   11.6861    1.9200  -16.9441 C   0  0  0  0  0  0  0  0  0  0  0  0
   10.8845    0.8038  -16.6402 C   0  0  0  0  0  0  0  0  0  0  0  0
   10.0683    0.8128  -15.4935 C   0  0  0  0  0  0  0  0  0  0  0  0
   10.0590    1.9376  -14.6473 C   0  0  0  0  0  0  0  0  0  0  0  0
   10.8691    3.0554  -14.9396 C   0  0  0  0  0  0  0  0  0  0  0  0
   10.8664    4.1692  -14.0740 C   0  0  0  0  0  0  0  0  0  0  0  0
   10.0417    5.8349  -12.4779 H   0  0  0  0  0  0  0  0  0  0  0  0
    9.8656    8.3314  -11.8008 H   0  0  0  0  0  0  0  0  0  0  0  0
   11.5586    8.1573  -11.3951 H   0  0  0  0  0  0  0  0  0  0  0  0
   10.8855    6.1474   -9.8999 H   0  0  0  0  0  0  0  0  0  0  0  0
    9.2228    6.5316  -10.2820 H   0  0  0  0  0  0  0  0  0  0  0  0
   12.1025    8.7329   -9.4054 H   0  0  0  0  0  0  0  0  0  0  0  0
   12.0882    7.3397   -8.3472 H   0  0  0  0  0  0  0  0  0  0  0  0
   11.1458   10.1710   -7.6390 H   0  0  0  0  0  0  0  0  0  0  0  0
   12.5644    9.3568   -7.0308 H   0  0  0  0  0  0  0  0  0  0  0  0
   11.1284    6.2265   -5.1318 H   0  0  0  0  0  0  0  0  0  0  0  0
   12.0453    5.8889   -2.8459 H   0  0  0  0  0  0  0  0  0  0  0  0
   12.7063    7.8495   -1.4598 H   0  0  0  0  0  0  0  0  0  0  0  0
   12.4768   10.1497   -2.3805 H   0  0  0  0  0  0  0  0  0  0  0  0
   11.5731   10.4922   -4.6641 H   0  0  0  0  0  0  0  0  0  0  0  0
    8.9662    7.5719   -5.8507 H   0  0  0  0  0  0  0  0  0  0  0  0
    8.7555    8.9719   -6.8851 H   0  0  0  0  0  0  0  0  0  0  0  0
    8.4901    6.9479   -8.2268 H   0  0  0  0  0  0  0  0  0  0  0  0
   10.0273    6.3000   -7.6738 H   0  0  0  0  0  0  0  0  0  0  0  0
   13.1151    6.1340  -15.7375 H   0  0  0  0  0  0  0  0  0  0  0  0
   12.3065    1.8823  -17.8265 H   0  0  0  0  0  0  0  0  0  0  0  0
   10.8964   -0.0613  -17.2877 H   0  0  0  0  0  0  0  0  0  0  0  0
    9.4509   -0.0429  -15.2617 H   0  0  0  0  0  0  0  0  0  0  0  0
    9.4374    1.9309  -13.7646 H   0  0  0  0  0  0  0  0  0  0  0  0
   10.2442    4.1343  -13.1923 H   0  0  0  0  0  0  0  0  0  0  0  0
  2  1  2  0
  3  2  1  0
  4  3  1  0
  5  4  1  0
  6  5  1  0
  7  6  1  0
  8  7  1  0
  9  8  1  0
 10  9  1  0
 11 10  2  0
 12 11  1  0
 13 12  2  0
 14 13  1  0
 15 10  1  0
 15 14  2  0
 16  9  1  0
 17  6  1  0
 17 16  1  0
 18  2  1  0
 19 18  1  0
 20 19  2  0
 21 20  1  0
 22 20  1  0
 23 22  2  0
 24 23  1  0
 25 24  2  0
 26 25  1  0
 27 22  1  0
 27 26  2  0
 28 18  2  0
 28 27  1  0
 29  3  1  0
 30  4  1  0
 31  4  1  0
 32  5  1  0
 33  5  1  0
 34  7  1  0
 35  7  1  0
 36  8  1  0
 37  8  1  0
 38 11  1  0
 39 12  1  0
 40 13  1  0
 41 14  1  0
 42 15  1  0
 43 16  1  0
 44 16  1  0
 45 17  1  0
 46 17  1  0
 47 19  1  0
 48 23  1  0
 49 24  1  0
 50 25  1  0
 51 26  1  0
 52 28  1  0
M  END
>  <b_m_subgroup_collapsed>  (562) 
0

>  <r_i_docking_score>  (562) 
-7.7643224039367196

>  <s_m_subgroup_title>  (562) 
glide-dock_SP_D22_pv

>  <s_m_subgroupid>  (562) 
glide-dock_SP_D22_pv

>  <Molecule ChEMBL ID>  (562) 
CHEMBL30256

>  <Standard Type>  (562) 
Ki

>  <Standard Value>  (562) 
10000.0

>  <label>  (562) 
0

$$$$
CHEMBL1256863
     RDKit          3D

 29 30  0  0  1  0  0  0  0  0999 V2000
    8.4860    5.9638   -9.7319 N   0  0  0  0  0  0  0  0  0  0  0  0
    8.8720    5.3439   -8.4520 C   0  0  0  0  0  0  0  0  0  0  0  0
    8.8539    6.3273   -7.2651 C   0  0  0  0  0  0  0  0  0  0  0  0
    9.7915    7.4914   -7.3733 C   0  0  0  0  0  0  0  0  0  0  0  0
    9.9115    8.3869   -8.4079 C   0  0  0  0  0  0  0  0  0  0  0  0
   10.8863    9.3096   -8.0897 N   0  0  0  0  0  0  0  0  0  0  0  0
   11.3481    9.1086   -6.8092 C   0  0  0  0  0  0  0  0  0  0  0  0
   12.2528    9.8188   -6.0100 C   0  0  0  0  0  0  0  0  0  0  0  0
   12.5333    9.3723   -4.7096 C   0  0  0  0  0  0  0  0  0  0  0  0
   11.9085    8.2147   -4.2073 C   0  0  0  0  0  0  0  0  0  0  0  0
   12.1832    7.7505   -2.8063 C   0  0  0  0  0  0  0  0  0  0  0  0
   12.4861    8.6940   -1.9127 N   0  0  0  0  0  0  0  0  0  0  0  0
   12.0807    6.5723   -2.4892 O   0  0  0  0  0  0  0  0  0  0  0  0
   11.0345    7.4818   -5.0469 C   0  0  0  0  0  0  0  0  0  0  0  0
   10.6989    7.9321   -6.3462 C   0  0  0  0  0  0  0  0  0  0  0  0
    8.3433    5.2509  -10.4323 H   0  0  0  0  0  0  0  0  0  0  0  0
    7.6182    6.4952   -9.6315 H   0  0  0  0  0  0  0  0  0  0  0  0
    9.8632    4.9016   -8.5602 H   0  0  0  0  0  0  0  0  0  0  0  0
    8.1806    4.5245   -8.2487 H   0  0  0  0  0  0  0  0  0  0  0  0
    9.1211    5.7738   -6.3731 H   0  0  0  0  0  0  0  0  0  0  0  0
    7.8453    6.6719   -7.0487 H   0  0  0  0  0  0  0  0  0  0  0  0
    9.3852    8.4632   -9.3476 H   0  0  0  0  0  0  0  0  0  0  0  0
   11.1654   10.0548   -8.7114 H   0  0  0  0  0  0  0  0  0  0  0  0
   12.7384   10.7068   -6.3854 H   0  0  0  0  0  0  0  0  0  0  0  0
   13.2451    9.9206   -4.1114 H   0  0  0  0  0  0  0  0  0  0  0  0
   12.5488    9.6641   -2.1861 H   0  0  0  0  0  0  0  0  0  0  0  0
   12.6350    8.4276   -0.9530 H   0  0  0  0  0  0  0  0  0  0  0  0
   10.5640    6.5843   -4.6687 H   0  0  0  0  0  0  0  0  0  0  0  0
    9.2093    6.5953  -10.0362 H   0  0  0  0  0  0  0  0  0  0  0  0
  2  1  1  0
  3  2  1  0
  4  3  1  0
  5  4  2  0
  6  5  1  0
  7  6  1  0
  8  7  2  0
  9  8  1  0
 10  9  2  0
 11 10  1  0
 12 11  1  0
 13 11  2  0
 14 10  1  0
 15  4  1  0
 15  7  1  0
 15 14  2  0
 16  1  1  0
 17  1  1  0
 18  2  1  0
 19  2  1  0
 20  3  1  0
 21  3  1  0
 22  5  1  0
 23  6  1  0
 24  8  1  0
 25  9  1  0
 26 12  1  0
 27 12  1  0
 28 14  1  0
 29  1  1  0
M  CHG  1   1   1
M  END
>  <b_m_subgroup_collapsed>  (563) 
0

>  <r_i_docking_score>  (563) 
-7.7589402063565496

>  <s_m_subgroup_title>  (563) 
glide-dock_SP_D22_pv

>  <s_m_subgroupid>  (563) 
glide-dock_SP_D22_pv

>  <Molecule ChEMBL ID>  (563) 
CHEMBL1256863

>  <Standard Type>  (563) 
Ki

>  <Standard Value>  (563) 
10000.0

>  <label>  (563) 
0

$$$$
CHEMBL3286575
     RDKit          3D

 51 55  0  0  1  0  0  0  0  0999 V2000
   12.4297    6.8145  -14.2428 C   0  0  0  0  0  0  0  0  0  0  0  0
   12.1201    7.3722  -12.9874 C   0  0  0  0  0  0  0  0  0  0  0  0
   11.0203    6.9074  -12.2245 C   0  0  0  0  0  0  0  0  0  0  0  0
   10.2946    5.8356  -12.7770 C   0  0  0  0  0  0  0  0  0  0  0  0
    9.2021    5.0995  -12.2864 C   0  0  0  0  0  0  0  0  0  0  0  0
    8.8126    4.1429  -13.1854 C   0  0  0  0  0  0  0  0  0  0  0  0
    9.6986    4.2636  -14.2459 N   0  0  0  0  0  0  0  0  0  0  0  0
   10.5912    5.2703  -14.0058 C   0  0  0  0  0  0  0  0  0  0  0  0
   11.6523    5.7570  -14.7442 C   0  0  0  0  0  0  0  0  0  0  0  0
    8.7808    5.5956  -10.9274 C   0  0  0  0  0  0  0  0  0  0  0  0
    9.8444    6.4265  -10.1361 C   0  0  2  0  0  0  0  0  0  0  0  0
    9.1896    7.1620   -8.9518 C   0  0  0  0  0  0  0  0  0  0  0  0
   10.1494    7.9439   -8.1391 N   0  0  1  0  0  0  0  0  0  0  0  0
   10.9417    7.1345   -7.1749 C   0  0  0  0  0  0  0  0  0  0  0  0
   10.8272    7.6564   -5.7198 C   0  0  0  0  0  0  0  0  0  0  0  0
   11.5377    6.6779   -4.7517 C   0  0  0  0  0  0  0  0  0  0  0  0
   11.7863    7.1767   -3.3139 C   0  0  0  0  0  0  0  0  0  0  0  0
   12.2803    8.6272   -3.2706 C   0  0  0  0  0  0  0  0  0  0  0  0
   11.3755    9.5393   -4.0970 C   0  0  0  0  0  0  0  0  0  0  0  0
   11.3582    9.0971   -5.5644 C   0  0  0  0  0  0  0  0  0  0  0  0
   10.9536    8.8689   -8.9817 C   0  0  0  0  0  0  0  0  0  0  0  0
   11.6087    8.1735  -10.1915 C   0  0  0  0  0  0  0  0  0  0  0  0
   10.6439    7.3723  -10.9434 N   0  0  0  0  0  0  0  0  0  0  0  0
   13.2722    7.1861  -14.8078 H   0  0  0  0  0  0  0  0  0  0  0  0
   12.7580    8.1642  -12.6271 H   0  0  0  0  0  0  0  0  0  0  0  0
    8.0208    3.4085  -13.1568 H   0  0  0  0  0  0  0  0  0  0  0  0
    9.6864    3.6809  -15.0708 H   0  0  0  0  0  0  0  0  0  0  0  0
   11.8915    5.3203  -15.7024 H   0  0  0  0  0  0  0  0  0  0  0  0
    8.4759    4.7485  -10.3116 H   0  0  0  0  0  0  0  0  0  0  0  0
    7.8700    6.1783  -11.0511 H   0  0  0  0  0  0  0  0  0  0  0  0
   10.5549    5.7085   -9.7291 H   0  0  0  0  0  0  0  0  0  0  0  0
    8.6097    6.4828   -8.3245 H   0  0  0  0  0  0  0  0  0  0  0  0
    8.4863    7.8855   -9.3550 H   0  0  0  0  0  0  0  0  0  0  0  0
   10.5952    6.0998   -7.1962 H   0  0  0  0  0  0  0  0  0  0  0  0
   11.9878    7.0941   -7.4824 H   0  0  0  0  0  0  0  0  0  0  0  0
    9.7713    7.6643   -5.4468 H   0  0  0  0  0  0  0  0  0  0  0  0
   10.9431    5.7724   -4.6916 H   0  0  0  0  0  0  0  0  0  0  0  0
   12.4860    6.3720   -5.1786 H   0  0  0  0  0  0  0  0  0  0  0  0
   10.8861    7.0695   -2.7112 H   0  0  0  0  0  0  0  0  0  0  0  0
   12.5184    6.5278   -2.8311 H   0  0  0  0  0  0  0  0  0  0  0  0
   12.3364    8.9780   -2.2394 H   0  0  0  0  0  0  0  0  0  0  0  0
   13.2858    8.6794   -3.6785 H   0  0  0  0  0  0  0  0  0  0  0  0
   10.3818    9.5348   -3.6727 H   0  0  0  0  0  0  0  0  0  0  0  0
   11.6864   10.5722   -4.0196 H   0  0  0  0  0  0  0  0  0  0  0  0
   12.3670    9.1726   -5.9735 H   0  0  0  0  0  0  0  0  0  0  0  0
   10.7403    9.7923   -6.1331 H   0  0  0  0  0  0  0  0  0  0  0  0
   11.7106    9.3728   -8.3825 H   0  0  0  0  0  0  0  0  0  0  0  0
   10.2866    9.6480   -9.3536 H   0  0  0  0  0  0  0  0  0  0  0  0
   12.4260    7.5295   -9.8651 H   0  0  0  0  0  0  0  0  0  0  0  0
   12.0440    8.9506  -10.8182 H   0  0  0  0  0  0  0  0  0  0  0  0
    9.5650    8.5284   -7.5586 H   0  0  0  0  0  0  0  0  0  0  0  0
  2  1  2  0
  3  2  1  0
  4  3  2  0
  5  4  1  0
  6  5  2  0
  7  6  1  0
  8  4  1  0
  8  7  1  0
  9  1  1  0
  9  8  2  0
 10  5  1  0
 11 10  1  0
 12 11  1  0
 13 12  1  0
 14 13  1  0
 15 14  1  0
 16 15  1  0
 17 16  1  0
 18 17  1  0
 19 18  1  0
 20 15  1  0
 20 19  1  0
 21 13  1  0
 22 21  1  0
 23  3  1  0
 23 11  1  0
 23 22  1  0
 24  1  1  0
 25  2  1  0
 26  6  1  0
 27  7  1  0
 28  9  1  0
 29 10  1  0
 30 10  1  0
 11 31  1  1
 32 12  1  0
 33 12  1  0
 34 14  1  0
 35 14  1  0
 36 15  1  0
 37 16  1  0
 38 16  1  0
 39 17  1  0
 40 17  1  0
 41 18  1  0
 42 18  1  0
 43 19  1  0
 44 19  1  0
 45 20  1  0
 46 20  1  0
 47 21  1  0
 48 21  1  0
 49 22  1  0
 50 22  1  0
 13 51  1  1
M  CHG  1  13   1
M  END
>  <b_m_subgroup_collapsed>  (564) 
0

>  <r_i_docking_score>  (564) 
-7.7561477953251003

>  <s_m_subgroup_title>  (564) 
glide-dock_SP_D22_pv

>  <s_m_subgroupid>  (564) 
glide-dock_SP_D22_pv

>  <Molecule ChEMBL ID>  (564) 
CHEMBL3286575

>  <Standard Type>  (564) 
Ki

>  <Standard Value>  (564) 
53.7

>  <label>  (564) 
1

$$$$
CHEMBL195015
     RDKit          3D

 50 54  0  0  1  0  0  0  0  0999 V2000
    7.1654    3.9247  -13.2033 C   0  0  0  0  0  0  0  0  0  0  0  0
    8.0860    3.7367  -14.2467 C   0  0  0  0  0  0  0  0  0  0  0  0
    9.3305    4.3905  -14.2233 C   0  0  0  0  0  0  0  0  0  0  0  0
    9.6972    5.1772  -13.0983 C   0  0  0  0  0  0  0  0  0  0  0  0
    8.7917    5.3246  -12.0141 C   0  0  0  0  0  0  0  0  0  0  0  0
    9.1759    5.9998  -10.8392 N   0  0  0  0  0  0  0  0  0  0  0  0
    8.6223    5.5822   -9.5613 C   0  0  0  0  0  0  0  0  0  0  0  0
    9.6717    5.7717   -8.4635 C   0  0  0  0  0  0  0  0  0  0  0  0
   10.2650    7.1385   -8.4474 N   0  0  0  0  0  0  0  0  0  0  0  0
   11.3984    7.2051   -7.4864 C   0  0  0  0  0  0  0  0  0  0  0  0
   11.2857    8.2658   -6.4413 C   0  0  0  0  0  0  0  0  0  0  0  0
   11.1655    9.6141   -6.6467 C   0  0  0  0  0  0  0  0  0  0  0  0
   11.2860   10.2702   -5.4376 N   0  0  0  0  0  0  0  0  0  0  0  0
   11.5460    9.3735   -4.4232 C   0  0  0  0  0  0  0  0  0  0  0  0
   11.8436    9.5455   -3.0616 C   0  0  0  0  0  0  0  0  0  0  0  0
   12.0919    8.4196   -2.2561 C   0  0  0  0  0  0  0  0  0  0  0  0
   12.0184    7.1311   -2.8181 C   0  0  0  0  0  0  0  0  0  0  0  0
   11.7068    6.9703   -4.1844 C   0  0  0  0  0  0  0  0  0  0  0  0
   11.4899    8.0863   -5.0275 C   0  0  0  0  0  0  0  0  0  0  0  0
   10.6692    7.6281   -9.8029 C   0  0  0  0  0  0  0  0  0  0  0  0
    9.6023    7.3888  -10.8850 C   0  0  0  0  0  0  0  0  0  0  0  0
    7.5171    4.7165  -12.0972 C   0  0  0  0  0  0  0  0  0  0  0  0
   10.9407    5.7723  -13.0468 O   0  0  0  0  0  0  0  0  0  0  0  0
   11.8958    5.2633  -13.9684 C   0  0  0  0  0  0  0  0  0  0  0  0
   11.2515    5.1551  -15.3544 C   0  0  0  0  0  0  0  0  0  0  0  0
   10.1752    4.2291  -15.2984 O   0  0  0  0  0  0  0  0  0  0  0  0
    6.1974    3.4465  -13.2398 H   0  0  0  0  0  0  0  0  0  0  0  0
    7.8233    3.1077  -15.0832 H   0  0  0  0  0  0  0  0  0  0  0  0
    7.7306    6.1721   -9.3452 H   0  0  0  0  0  0  0  0  0  0  0  0
    8.3171    4.5358   -9.5855 H   0  0  0  0  0  0  0  0  0  0  0  0
    9.2318    5.5540   -7.4896 H   0  0  0  0  0  0  0  0  0  0  0  0
   10.4646    5.0393   -8.6270 H   0  0  0  0  0  0  0  0  0  0  0  0
   11.5394    6.2403   -6.9962 H   0  0  0  0  0  0  0  0  0  0  0  0
   12.3340    7.3726   -8.0225 H   0  0  0  0  0  0  0  0  0  0  0  0
   11.0623   10.1690   -7.5631 H   0  0  0  0  0  0  0  0  0  0  0  0
   11.2780   11.2768   -5.3503 H   0  0  0  0  0  0  0  0  0  0  0  0
   11.8989   10.5400   -2.6447 H   0  0  0  0  0  0  0  0  0  0  0  0
   12.3244    8.5477   -1.2090 H   0  0  0  0  0  0  0  0  0  0  0  0
   12.1942    6.2597   -2.2030 H   0  0  0  0  0  0  0  0  0  0  0  0
   11.6688    5.9723   -4.5965 H   0  0  0  0  0  0  0  0  0  0  0  0
   10.9189    8.6886   -9.7509 H   0  0  0  0  0  0  0  0  0  0  0  0
   11.5761    7.1077  -10.1155 H   0  0  0  0  0  0  0  0  0  0  0  0
    9.9834    7.6663  -11.8674 H   0  0  0  0  0  0  0  0  0  0  0  0
    8.7357    8.0248  -10.7028 H   0  0  0  0  0  0  0  0  0  0  0  0
    6.7999    4.8347  -11.2992 H   0  0  0  0  0  0  0  0  0  0  0  0
   12.7526    5.9374  -13.9986 H   0  0  0  0  0  0  0  0  0  0  0  0
   12.2598    4.2923  -13.6287 H   0  0  0  0  0  0  0  0  0  0  0  0
   10.8899    6.1273  -15.6932 H   0  0  0  0  0  0  0  0  0  0  0  0
   11.9811    4.8074  -16.0860 H   0  0  0  0  0  0  0  0  0  0  0  0
    9.5318    7.7518   -8.1181 H   0  0  0  0  0  0  0  0  0  0  0  0
  2  1  2  0
  3  2  1  0
  4  3  2  0
  5  4  1  0
  6  5  1  0
  7  6  1  0
  8  7  1  0
  9  8  1  0
 10  9  1  0
 11 10  1  0
 12 11  2  0
 13 12  1  0
 14 13  1  0
 15 14  2  0
 16 15  1  0
 17 16  2  0
 18 17  1  0
 19 11  1  0
 19 14  1  0
 19 18  2  0
 20  9  1  0
 21  6  1  0
 21 20  1  0
 22  1  1  0
 22  5  2  0
 23  4  1  0
 24 23  1  0
 25 24  1  0
 26  3  1  0
 26 25  1  0
 27  1  1  0
 28  2  1  0
 29  7  1  0
 30  7  1  0
 31  8  1  0
 32  8  1  0
 33 10  1  0
 34 10  1  0
 35 12  1  0
 36 13  1  0
 37 15  1  0
 38 16  1  0
 39 17  1  0
 40 18  1  0
 41 20  1  0
 42 20  1  0
 43 21  1  0
 44 21  1  0
 45 22  1  0
 46 24  1  0
 47 24  1  0
 48 25  1  0
 49 25  1  0
 50  9  1  0
M  CHG  1   9   1
M  END
>  <b_m_subgroup_collapsed>  (565) 
0

>  <r_i_docking_score>  (565) 
-7.7535322760253198

>  <s_m_subgroup_title>  (565) 
glide-dock_SP_D22_pv

>  <s_m_subgroupid>  (565) 
glide-dock_SP_D22_pv

>  <Molecule ChEMBL ID>  (565) 
CHEMBL195015

>  <Standard Type>  (565) 
Ki

>  <Standard Value>  (565) 
62.0

>  <label>  (565) 
1

$$$$
CHEMBL4084690
     RDKit          3D

 67 71  0  0  1  0  0  0  0  0999 V2000
   12.4846    9.3723   -1.2496 O   0  0  0  0  0  0  0  0  0  0  0  0
   12.0865    8.7952   -2.2473 C   0  0  0  0  0  0  0  0  0  0  0  0
   11.9473    7.2729   -2.2237 C   0  0  0  0  0  0  0  0  0  0  0  0
   12.4273    6.7153   -3.5439 C   0  0  0  0  0  0  0  0  0  0  0  0
   11.6859    7.3752   -4.6774 C   0  0  0  0  0  0  0  0  0  0  0  0
   11.2862    6.6503   -5.8071 C   0  0  0  0  0  0  0  0  0  0  0  0
   10.5952    7.2890   -6.8427 C   0  0  0  0  0  0  0  0  0  0  0  0
   10.3335    8.6776   -6.7731 C   0  0  0  0  0  0  0  0  0  0  0  0
    9.6831    9.3723   -7.7643 O   0  0  0  0  0  0  0  0  0  0  0  0
    9.4908    8.7476   -9.0239 C   0  0  0  0  0  0  0  0  0  0  0  0
   10.8363    8.6092   -9.7700 C   0  0  0  0  0  0  0  0  0  0  0  0
   10.8353    7.4543  -10.7747 C   0  0  0  0  0  0  0  0  0  0  0  0
    9.8267    7.6322  -11.9219 C   0  0  0  0  0  0  0  0  0  0  0  0
    8.8698    6.4964  -12.0019 N   0  0  1  0  0  0  0  0  0  0  0  0
    7.5748    6.8644  -12.6233 C   0  0  0  0  0  0  0  0  0  0  0  0
    6.4639    5.8527  -12.2917 C   0  0  0  0  0  0  0  0  0  0  0  0
    6.3974    4.6323  -13.2298 C   0  0  0  0  0  0  0  0  0  0  0  0
    7.5821    3.7728  -13.2101 N   0  0  0  0  0  0  0  0  0  0  0  0
    7.7416    2.8118  -14.2327 C   0  0  0  0  0  0  0  0  0  0  0  0
    8.8338    2.9286  -15.1235 C   0  0  0  0  0  0  0  0  0  0  0  0
    9.0292    1.9970  -16.1588 C   0  0  0  0  0  0  0  0  0  0  0  0
    8.1310    0.9295  -16.3205 C   0  0  0  0  0  0  0  0  0  0  0  0
    8.3207    0.0275  -17.3273 O   0  0  0  0  0  0  0  0  0  0  0  0
    7.0389    0.7866  -15.4426 C   0  0  0  0  0  0  0  0  0  0  0  0
    6.1652   -0.2631  -15.6547 O   0  0  0  0  0  0  0  0  0  0  0  0
    5.0787   -0.5124  -14.8674 C   0  0  0  0  0  0  0  0  0  0  0  0
    4.2944   -1.4269  -15.1035 O   0  0  0  0  0  0  0  0  0  0  0  0
    4.9049    0.3857  -13.7087 C   0  0  0  0  0  0  0  0  0  0  0  0
    5.7386    1.4121  -13.4770 C   0  0  0  0  0  0  0  0  0  0  0  0
    6.8589    1.7053  -14.3804 C   0  0  0  0  0  0  0  0  0  0  0  0
    8.7198    4.0116  -12.3247 C   0  0  0  0  0  0  0  0  0  0  0  0
    9.4829    5.3054  -12.6378 C   0  0  0  0  0  0  0  0  0  0  0  0
   10.7579    9.4098   -5.6406 C   0  0  0  0  0  0  0  0  0  0  0  0
   11.4034    8.7518   -4.5764 C   0  0  0  0  0  0  0  0  0  0  0  0
   11.7601    9.4367   -3.3856 N   0  0  0  0  0  0  0  0  0  0  0  0
   12.5708    6.8470   -1.4469 H   0  0  0  0  0  0  0  0  0  0  0  0
   10.9077    6.9987   -2.0243 H   0  0  0  0  0  0  0  0  0  0  0  0
   12.3317    5.6343   -3.5713 H   0  0  0  0  0  0  0  0  0  0  0  0
   13.4810    6.9725   -3.6224 H   0  0  0  0  0  0  0  0  0  0  0  0
   11.5510    5.6145   -5.9010 H   0  0  0  0  0  0  0  0  0  0  0  0
   10.3023    6.6860   -7.6877 H   0  0  0  0  0  0  0  0  0  0  0  0
    8.8130    9.3727   -9.6044 H   0  0  0  0  0  0  0  0  0  0  0  0
    8.9650    7.7979   -8.9124 H   0  0  0  0  0  0  0  0  0  0  0  0
   11.6479    8.4212   -9.0684 H   0  0  0  0  0  0  0  0  0  0  0  0
   11.1003    9.5518  -10.2470 H   0  0  0  0  0  0  0  0  0  0  0  0
   10.6554    6.5242  -10.2339 H   0  0  0  0  0  0  0  0  0  0  0  0
   11.8377    7.3569  -11.1956 H   0  0  0  0  0  0  0  0  0  0  0  0
   10.3928    7.7234  -12.8482 H   0  0  0  0  0  0  0  0  0  0  0  0
    9.2916    8.5753  -11.8049 H   0  0  0  0  0  0  0  0  0  0  0  0
    7.6862    6.9726  -13.6971 H   0  0  0  0  0  0  0  0  0  0  0  0
    7.2634    7.8404  -12.2491 H   0  0  0  0  0  0  0  0  0  0  0  0
    5.5112    6.3772  -12.3746 H   0  0  0  0  0  0  0  0  0  0  0  0
    6.5253    5.5430  -11.2493 H   0  0  0  0  0  0  0  0  0  0  0  0
    6.2268    4.9698  -14.2468 H   0  0  0  0  0  0  0  0  0  0  0  0
    5.5141    4.0590  -12.9613 H   0  0  0  0  0  0  0  0  0  0  0  0
    9.5373    3.7410  -15.0370 H   0  0  0  0  0  0  0  0  0  0  0  0
    9.8683    2.1042  -16.8303 H   0  0  0  0  0  0  0  0  0  0  0  0
    7.7076   -0.6923  -17.2709 H   0  0  0  0  0  0  0  0  0  0  0  0
    4.0830    0.1818  -13.0469 H   0  0  0  0  0  0  0  0  0  0  0  0
    5.6032    2.0153  -12.5941 H   0  0  0  0  0  0  0  0  0  0  0  0
    8.3769    4.0194  -11.2897 H   0  0  0  0  0  0  0  0  0  0  0  0
    9.4081    3.1687  -12.4026 H   0  0  0  0  0  0  0  0  0  0  0  0
    9.6006    5.4675  -13.7089 H   0  0  0  0  0  0  0  0  0  0  0  0
   10.4891    5.1806  -12.2453 H   0  0  0  0  0  0  0  0  0  0  0  0
   10.5511   10.4677   -5.5799 H   0  0  0  0  0  0  0  0  0  0  0  0
   11.7630   10.4457   -3.3870 H   0  0  0  0  0  0  0  0  0  0  0  0
    8.6378    6.2636  -11.0457 H   0  0  0  0  0  0  0  0  0  0  0  0
  2  1  2  0
  3  2  1  0
  4  3  1  0
  5  4  1  0
  6  5  1  0
  7  6  2  0
  8  7  1  0
  9  8  1  0
 10  9  1  0
 11 10  1  0
 12 11  1  0
 13 12  1  0
 14 13  1  0
 15 14  1  0
 16 15  1  0
 17 16  1  0
 18 17  1  0
 19 18  1  0
 20 19  1  0
 21 20  2  0
 22 21  1  0
 23 22  1  0
 24 22  2  0
 25 24  1  0
 26 25  1  0
 27 26  2  0
 28 26  1  0
 29 28  2  0
 30 19  2  0
 30 24  1  0
 30 29  1  0
 31 18  1  0
 32 14  1  0
 32 31  1  0
 33  8  2  0
 34  5  2  0
 34 33  1  0
 35  2  1  0
 35 34  1  0
 36  3  1  0
 37  3  1  0
 38  4  1  0
 39  4  1  0
 40  6  1  0
 41  7  1  0
 42 10  1  0
 43 10  1  0
 44 11  1  0
 45 11  1  0
 46 12  1  0
 47 12  1  0
 48 13  1  0
 49 13  1  0
 50 15  1  0
 51 15  1  0
 52 16  1  0
 53 16  1  0
 54 17  1  0
 55 17  1  0
 56 20  1  0
 57 21  1  0
 58 23  1  0
 59 28  1  0
 60 29  1  0
 61 31  1  0
 62 31  1  0
 63 32  1  0
 64 32  1  0
 65 33  1  0
 66 35  1  0
 14 67  1  1
M  CHG  1  14   1
M  END
>  <b_m_subgroup_collapsed>  (566) 
0

>  <r_i_docking_score>  (566) 
-7.7529022375538901

>  <s_m_subgroup_title>  (566) 
glide-dock_SP_D22_pv

>  <s_m_subgroupid>  (566) 
glide-dock_SP_D22_pv

>  <Molecule ChEMBL ID>  (566) 
CHEMBL4084690

>  <Standard Type>  (566) 
Ki

>  <Standard Value>  (566) 
37.0

>  <label>  (566) 
1

$$$$
CHEMBL1258382
     RDKit          3D

 76 81  0  0  1  0  0  0  0  0999 V2000
   10.9269    9.3725   -9.1953 O   0  0  0  0  0  0  0  0  0  0  0  0
   10.5382    8.4406   -8.4963 C   0  0  0  0  0  0  0  0  0  0  0  0
    9.7824    7.4441   -8.9736 N   0  0  0  0  0  0  0  0  0  0  0  0
    9.2978    7.3818  -10.3430 C   0  0  0  0  0  0  0  0  0  0  0  0
    8.8417    5.9619  -10.7030 C   0  0  0  0  0  0  0  0  0  0  0  0
    8.0878    5.9191  -12.0418 C   0  0  0  0  0  0  0  0  0  0  0  0
    8.1769    4.5577  -12.7552 C   0  0  0  0  0  0  0  0  0  0  0  0
    9.5444    4.2191  -13.2390 N   0  0  0  0  0  0  0  0  0  0  0  0
   10.1170    5.2475  -14.1538 C   0  0  0  0  0  0  0  0  0  0  0  0
   11.4633    4.8453  -14.7755 C   0  0  0  0  0  0  0  0  0  0  0  0
   11.3914    3.4927  -15.3060 N   0  0  0  0  0  0  0  0  0  0  0  0
   12.0318    3.1336  -16.5153 C   0  0  0  0  0  0  0  0  0  0  0  0
   13.1081    3.9137  -17.0117 C   0  0  0  0  0  0  0  0  0  0  0  0
   13.6475    3.6750  -18.2921 C   0  0  0  0  0  0  0  0  0  0  0  0
   13.3631    2.4568  -18.9370 C   0  0  0  0  0  0  0  0  0  0  0  0
   12.3004    1.6650  -18.4583 C   0  0  0  0  0  0  0  0  0  0  0  0
   11.5261    2.1016  -17.3576 C   0  0  0  0  0  0  0  0  0  0  0  0
   10.0452    1.6791  -17.3356 C   0  0  0  0  0  0  0  0  0  0  0  0
    9.0587    2.8061  -17.7977 C   0  0  0  0  0  0  0  0  0  0  0  0
    9.7142    3.8465  -18.7060 C   0  0  0  0  0  0  0  0  0  0  0  0
   10.1702    3.4747  -19.9884 C   0  0  0  0  0  0  0  0  0  0  0  0
   11.2548    4.1683  -20.5614 C   0  0  0  0  0  0  0  0  0  0  0  0
   11.8647    5.2205  -19.8426 C   0  0  0  0  0  0  0  0  0  0  0  0
   11.1923    5.7850  -18.7376 C   0  0  0  0  0  0  0  0  0  0  0  0
   10.1066    5.0931  -18.1670 C   0  0  0  0  0  0  0  0  0  0  0  0
   13.3434    5.5330  -20.0820 C   0  0  0  0  0  0  0  0  0  0  0  0
   14.3080    4.8183  -19.0657 C   0  0  0  0  0  0  0  0  0  0  0  0
   10.9667    2.4865  -14.3467 C   0  0  0  0  0  0  0  0  0  0  0  0
    9.5741    2.8540  -13.8206 C   0  0  0  0  0  0  0  0  0  0  0  0
   10.8736    8.3534   -7.0610 C   0  0  0  0  0  0  0  0  0  0  0  0
   10.9763    7.2408   -6.2637 C   0  0  0  0  0  0  0  0  0  0  0  0
   11.4134    7.5798   -4.9312 C   0  0  0  0  0  0  0  0  0  0  0  0
   11.6860    6.7537   -3.8229 C   0  0  0  0  0  0  0  0  0  0  0  0
   12.0899    7.2663   -2.5795 C   0  0  0  0  0  0  0  0  0  0  0  0
   12.2314    8.6514   -2.4074 C   0  0  0  0  0  0  0  0  0  0  0  0
   11.9771    9.5099   -3.4887 C   0  0  0  0  0  0  0  0  0  0  0  0
   11.5926    8.9843   -4.7397 C   0  0  0  0  0  0  0  0  0  0  0  0
   11.2861    9.8442   -6.2423 S   0  0  0  0  0  0  0  0  0  0  0  0
    9.4550    6.7430   -8.3278 H   0  0  0  0  0  0  0  0  0  0  0  0
   10.0825    7.6941  -11.0349 H   0  0  0  0  0  0  0  0  0  0  0  0
    8.4880    8.1013  -10.4614 H   0  0  0  0  0  0  0  0  0  0  0  0
    8.1927    5.5621   -9.9231 H   0  0  0  0  0  0  0  0  0  0  0  0
    9.7185    5.3166  -10.7326 H   0  0  0  0  0  0  0  0  0  0  0  0
    8.4184    6.7239  -12.6982 H   0  0  0  0  0  0  0  0  0  0  0  0
    7.0380    6.1465  -11.8482 H   0  0  0  0  0  0  0  0  0  0  0  0
    7.4888    4.5521  -13.6031 H   0  0  0  0  0  0  0  0  0  0  0  0
    7.8320    3.7743  -12.0763 H   0  0  0  0  0  0  0  0  0  0  0  0
   10.2743    6.1726  -13.6042 H   0  0  0  0  0  0  0  0  0  0  0  0
    9.3985    5.4482  -14.9505 H   0  0  0  0  0  0  0  0  0  0  0  0
   12.2593    4.8937  -14.0310 H   0  0  0  0  0  0  0  0  0  0  0  0
   11.7039    5.5709  -15.5500 H   0  0  0  0  0  0  0  0  0  0  0  0
   13.4255    4.8036  -16.4902 H   0  0  0  0  0  0  0  0  0  0  0  0
   13.7962    2.2311  -19.8981 H   0  0  0  0  0  0  0  0  0  0  0  0
   11.9531    0.8520  -19.0812 H   0  0  0  0  0  0  0  0  0  0  0  0
    9.9412    0.8531  -18.0375 H   0  0  0  0  0  0  0  0  0  0  0  0
    9.7442    1.2569  -16.3809 H   0  0  0  0  0  0  0  0  0  0  0  0
    8.6888    3.3242  -16.9146 H   0  0  0  0  0  0  0  0  0  0  0  0
    8.1836    2.3764  -18.2848 H   0  0  0  0  0  0  0  0  0  0  0  0
    9.8489    2.5441  -20.4329 H   0  0  0  0  0  0  0  0  0  0  0  0
   11.7356    3.7530  -21.4336 H   0  0  0  0  0  0  0  0  0  0  0  0
   11.6278    6.6180  -18.2031 H   0  0  0  0  0  0  0  0  0  0  0  0
    9.7299    5.4145  -17.2082 H   0  0  0  0  0  0  0  0  0  0  0  0
   13.5933    5.2062  -21.0927 H   0  0  0  0  0  0  0  0  0  0  0  0
   13.5050    6.6130  -20.0716 H   0  0  0  0  0  0  0  0  0  0  0  0
   15.2037    4.4619  -19.5775 H   0  0  0  0  0  0  0  0  0  0  0  0
   14.6546    5.5547  -18.3404 H   0  0  0  0  0  0  0  0  0  0  0  0
   10.9788    1.4832  -14.7665 H   0  0  0  0  0  0  0  0  0  0  0  0
   11.6632    2.4621  -13.5027 H   0  0  0  0  0  0  0  0  0  0  0  0
    9.2863    2.1524  -13.0477 H   0  0  0  0  0  0  0  0  0  0  0  0
    8.8384    2.7749  -14.6232 H   0  0  0  0  0  0  0  0  0  0  0  0
   10.7890    6.2265   -6.5819 H   0  0  0  0  0  0  0  0  0  0  0  0
   11.5700    5.6963   -3.9424 H   0  0  0  0  0  0  0  0  0  0  0  0
   12.2912    6.5882   -1.7664 H   0  0  0  0  0  0  0  0  0  0  0  0
   12.5292    9.0584   -1.4518 H   0  0  0  0  0  0  0  0  0  0  0  0
   12.0843   10.5722   -3.3401 H   0  0  0  0  0  0  0  0  0  0  0  0
   10.1462    4.1886  -12.4294 H   0  0  0  0  0  0  0  0  0  0  0  0
  2  1  2  0
  3  2  1  0
  4  3  1  0
  5  4  1  0
  6  5  1  0
  7  6  1  0
  8  7  1  0
  9  8  1  0
 10  9  1  0
 11 10  1  0
 12 11  1  0
 13 12  1  0
 14 13  2  0
 15 14  1  0
 16 15  2  0
 17 12  2  0
 17 16  1  0
 18 17  1  0
 19 18  1  0
 20 19  1  0
 21 20  1  0
 22 21  2  0
 23 22  1  0
 24 23  2  0
 25 20  2  0
 25 24  1  0
 26 23  1  0
 27 14  1  0
 27 26  1  0
 28 11  1  0
 29  8  1  0
 29 28  1  0
 30  2  1  0
 31 30  2  0
 32 31  1  0
 33 32  2  0
 34 33  1  0
 35 34  2  0
 36 35  1  0
 37 32  1  0
 37 36  2  0
 38 30  1  0
 38 37  1  0
 39  3  1  0
 40  4  1  0
 41  4  1  0
 42  5  1  0
 43  5  1  0
 44  6  1  0
 45  6  1  0
 46  7  1  0
 47  7  1  0
 48  9  1  0
 49  9  1  0
 50 10  1  0
 51 10  1  0
 52 13  1  0
 53 15  1  0
 54 16  1  0
 55 18  1  0
 56 18  1  0
 57 19  1  0
 58 19  1  0
 59 21  1  0
 60 22  1  0
 61 24  1  0
 62 25  1  0
 63 26  1  0
 64 26  1  0
 65 27  1  0
 66 27  1  0
 67 28  1  0
 68 28  1  0
 69 29  1  0
 70 29  1  0
 71 31  1  0
 72 33  1  0
 73 34  1  0
 74 35  1  0
 75 36  1  0
 76  8  1  0
M  CHG  1   8   1
M  END
>  <b_m_subgroup_collapsed>  (567) 
0

>  <r_i_docking_score>  (567) 
-7.7523362596477998

>  <s_m_subgroup_title>  (567) 
glide-dock_SP_D22_pv

>  <s_m_subgroupid>  (567) 
glide-dock_SP_D22_pv

>  <Molecule ChEMBL ID>  (567) 
CHEMBL1258382

>  <Standard Type>  (567) 
Ki

>  <Standard Value>  (567) 
83.0

>  <label>  (567) 
1

$$$$
CHEMBL4528651
     RDKit          3D

 35 36  0  0  1  0  0  0  0  0999 V2000
    9.5789    4.6527   -8.6471 C   0  0  0  0  0  0  0  0  0  0  0  0
   10.6009    5.7174   -8.1991 C   0  0  0  0  0  0  0  0  0  0  0  0
    9.9916    7.0061   -7.6215 C   0  0  1  0  0  0  0  0  0  0  0  0
   10.8753    7.5820   -6.5074 C   0  0  0  0  0  0  0  0  0  0  0  0
   10.9302    6.9723   -5.2345 C   0  0  0  0  0  0  0  0  0  0  0  0
   11.6860    7.5448   -4.1863 C   0  0  0  0  0  0  0  0  0  0  0  0
   11.7595    6.8626   -2.8343 C   0  0  0  0  0  0  0  0  0  0  0  0
   12.3385    8.7752   -4.3885 C   0  0  0  0  0  0  0  0  0  0  0  0
   12.3134    9.3723   -5.6617 C   0  0  0  0  0  0  0  0  0  0  0  0
   11.6275    8.7594   -6.7296 C   0  0  0  0  0  0  0  0  0  0  0  0
   11.6860    9.3723   -7.9545 O   0  0  0  0  0  0  0  0  0  0  0  0
   11.0955    8.7354   -9.0755 C   0  0  0  0  0  0  0  0  0  0  0  0
    9.7467    8.0821   -8.7160 C   0  0  2  0  0  0  0  0  0  0  0  0
    8.7830    9.1394   -8.1681 C   0  0  0  0  0  0  0  0  0  0  0  0
    9.1278    7.5176   -9.9327 N   0  0  0  0  0  0  0  0  0  0  0  0
   10.0860    3.7426   -8.9700 H   0  0  0  0  0  0  0  0  0  0  0  0
    8.8917    4.3836   -7.8469 H   0  0  0  0  0  0  0  0  0  0  0  0
    8.9675    4.9784   -9.4859 H   0  0  0  0  0  0  0  0  0  0  0  0
   11.2574    5.9624   -9.0280 H   0  0  0  0  0  0  0  0  0  0  0  0
   11.2577    5.2852   -7.4469 H   0  0  0  0  0  0  0  0  0  0  0  0
    9.0422    6.7391   -7.1524 H   0  0  0  0  0  0  0  0  0  0  0  0
   10.3779    6.0653   -5.0530 H   0  0  0  0  0  0  0  0  0  0  0  0
   11.6860    5.7804   -2.9396 H   0  0  0  0  0  0  0  0  0  0  0  0
   12.7060    7.0845   -2.3414 H   0  0  0  0  0  0  0  0  0  0  0  0
   10.9510    7.1997   -2.1858 H   0  0  0  0  0  0  0  0  0  0  0  0
   12.8860    9.2448   -3.5843 H   0  0  0  0  0  0  0  0  0  0  0  0
   12.8548   10.2911   -5.8339 H   0  0  0  0  0  0  0  0  0  0  0  0
   10.9535    9.4941   -9.8461 H   0  0  0  0  0  0  0  0  0  0  0  0
   11.8080    8.0211   -9.4871 H   0  0  0  0  0  0  0  0  0  0  0  0
    9.2860    9.7723   -7.4469 H   0  0  0  0  0  0  0  0  0  0  0  0
    8.3658    9.7723   -8.9497 H   0  0  0  0  0  0  0  0  0  0  0  0
    7.9577    8.6797   -7.6310 H   0  0  0  0  0  0  0  0  0  0  0  0
    8.1307    7.3722   -9.7761 H   0  0  0  0  0  0  0  0  0  0  0  0
    9.1944    8.1728  -10.6967 H   0  0  0  0  0  0  0  0  0  0  0  0
    9.5616    6.6430  -10.1868 H   0  0  0  0  0  0  0  0  0  0  0  0
  2  1  1  0
  3  2  1  0
  4  3  1  0
  5  4  1  0
  6  5  2  0
  7  6  1  0
  8  6  1  0
  9  8  2  0
 10  4  2  0
 10  9  1  0
 11 10  1  0
 12 11  1  0
 13  3  1  0
 13 12  1  0
 13 14  1  1
 15 13  1  0
 16  1  1  0
 17  1  1  0
 18  1  1  0
 19  2  1  0
 20  2  1  0
  3 21  1  1
 22  5  1  0
 23  7  1  0
 24  7  1  0
 25  7  1  0
 26  8  1  0
 27  9  1  0
 28 12  1  0
 29 12  1  0
 30 14  1  0
 31 14  1  0
 32 14  1  0
 33 15  1  0
 34 15  1  0
 35 15  1  0
M  CHG  1  15   1
M  END
>  <b_m_subgroup_collapsed>  (568) 
0

>  <r_i_docking_score>  (568) 
-7.7488233151099397

>  <s_m_subgroup_title>  (568) 
glide-dock_SP_D22_pv

>  <s_m_subgroupid>  (568) 
glide-dock_SP_D22_pv

>  <Molecule ChEMBL ID>  (568) 
CHEMBL4528651

>  <Standard Type>  (568) 
Ki

>  <Standard Value>  (568) 
10000.0

>  <label>  (568) 
0

$$$$
CHEMBL354748
     RDKit          3D

 52 55  0  0  1  0  0  0  0  0999 V2000
   12.9460    4.8243  -16.8840 C   0  0  0  0  0  0  0  0  0  0  0  0
   12.7608    6.1817  -16.5559 C   0  0  0  0  0  0  0  0  0  0  0  0
   12.0883    6.5350  -15.3702 C   0  0  0  0  0  0  0  0  0  0  0  0
   11.5961    5.5326  -14.4998 C   0  0  0  0  0  0  0  0  0  0  0  0
   10.8985    5.9021  -13.2644 C   0  0  0  0  0  0  0  0  0  0  0  0
   11.3580    6.9724  -12.5783 N   0  0  0  0  0  0  0  0  0  0  0  0
   10.8372    7.7596  -11.4450 C   0  0  0  0  0  0  0  0  0  0  0  0
   10.2195    6.9248  -10.3091 C   0  0  1  0  0  0  0  0  0  0  0  0
   10.0562    7.6416   -9.0270 N   0  0  0  0  0  0  0  0  0  0  0  0
    9.8209    6.6272   -7.9755 C   0  0  0  0  0  0  0  0  0  0  0  0
    9.7053    7.2463   -6.5771 C   0  0  0  0  0  0  0  0  0  0  0  0
   10.9287    7.9753   -6.2887 N   0  0  0  0  0  0  0  0  0  0  0  0
   11.3855    8.0823   -4.9676 C   0  0  0  0  0  0  0  0  0  0  0  0
   11.6337    6.9073   -4.2240 C   0  0  0  0  0  0  0  0  0  0  0  0
   12.0862    6.9777   -2.8923 C   0  0  0  0  0  0  0  0  0  0  0  0
   12.3102    8.2337   -2.2969 C   0  0  0  0  0  0  0  0  0  0  0  0
   12.0840    9.4078   -3.0381 C   0  0  0  0  0  0  0  0  0  0  0  0
   11.6270    9.3378   -4.3670 C   0  0  0  0  0  0  0  0  0  0  0  0
   11.1866    9.0255   -7.2543 C   0  0  0  0  0  0  0  0  0  0  0  0
   11.2669    8.4044   -8.6602 C   0  0  0  0  0  0  0  0  0  0  0  0
    8.8868    6.3696  -10.8485 C   0  0  0  0  0  0  0  0  0  0  0  0
    9.0943    5.0603  -11.6046 C   0  0  0  0  0  0  0  0  0  0  0  0
    9.8364    5.1646  -12.8741 N   0  0  0  0  0  0  0  0  0  0  0  0
   11.7930    4.1724  -14.8336 C   0  0  0  0  0  0  0  0  0  0  0  0
   12.4612    3.8215  -16.0243 C   0  0  0  0  0  0  0  0  0  0  0  0
   13.4576    4.5513  -17.7947 H   0  0  0  0  0  0  0  0  0  0  0  0
   13.1333    6.9527  -17.2151 H   0  0  0  0  0  0  0  0  0  0  0  0
   11.9483    7.5823  -15.1423 H   0  0  0  0  0  0  0  0  0  0  0  0
   11.7018    8.3305  -11.1122 H   0  0  0  0  0  0  0  0  0  0  0  0
   10.1200    8.4924  -11.8180 H   0  0  0  0  0  0  0  0  0  0  0  0
   10.8846    6.0896  -10.1089 H   0  0  0  0  0  0  0  0  0  0  0  0
    8.9026    6.0704   -8.1566 H   0  0  0  0  0  0  0  0  0  0  0  0
   10.6333    5.8964   -7.9657 H   0  0  0  0  0  0  0  0  0  0  0  0
    8.8509    7.9227   -6.5323 H   0  0  0  0  0  0  0  0  0  0  0  0
    9.5245    6.4670   -5.8389 H   0  0  0  0  0  0  0  0  0  0  0  0
   11.4687    5.9364   -4.6695 H   0  0  0  0  0  0  0  0  0  0  0  0
   12.2592    6.0686   -2.3323 H   0  0  0  0  0  0  0  0  0  0  0  0
   12.6526    8.3003   -1.2739 H   0  0  0  0  0  0  0  0  0  0  0  0
   12.2406   10.3717   -2.5807 H   0  0  0  0  0  0  0  0  0  0  0  0
   11.4450   10.2554   -4.9065 H   0  0  0  0  0  0  0  0  0  0  0  0
   10.3887    9.7681   -7.2113 H   0  0  0  0  0  0  0  0  0  0  0  0
   12.1256    9.5341   -7.0287 H   0  0  0  0  0  0  0  0  0  0  0  0
   12.1431    7.7567   -8.7222 H   0  0  0  0  0  0  0  0  0  0  0  0
   11.4214    9.2352   -9.3470 H   0  0  0  0  0  0  0  0  0  0  0  0
    8.1558    6.1811  -10.0660 H   0  0  0  0  0  0  0  0  0  0  0  0
    8.3924    7.0970  -11.4927 H   0  0  0  0  0  0  0  0  0  0  0  0
    9.6105    4.3440  -10.9632 H   0  0  0  0  0  0  0  0  0  0  0  0
    8.1205    4.6190  -11.8226 H   0  0  0  0  0  0  0  0  0  0  0  0
    9.5322    4.4857  -13.5582 H   0  0  0  0  0  0  0  0  0  0  0  0
   11.4404    3.3873  -14.1791 H   0  0  0  0  0  0  0  0  0  0  0  0
   12.6106    2.7800  -16.2747 H   0  0  0  0  0  0  0  0  0  0  0  0
   12.2329    7.3281  -12.9338 H   0  0  0  0  0  0  0  0  0  0  0  0
  2  1  2  0
  3  2  1  0
  4  3  2  0
  5  4  1  0
  6  5  2  0
  7  6  1  0
  8  7  1  0
  9  8  1  0
 10  9  1  0
 11 10  1  0
 12 11  1  0
 13 12  1  0
 14 13  2  0
 15 14  1  0
 16 15  2  0
 17 16  1  0
 18 13  1  0
 18 17  2  0
 19 12  1  0
 20  9  1  0
 20 19  1  0
 21  8  1  0
 22 21  1  0
 23  5  1  0
 23 22  1  0
 24  4  1  0
 25  1  1  0
 25 24  2  0
 26  1  1  0
 27  2  1  0
 28  3  1  0
 29  7  1  0
 30  7  1  0
  8 31  1  1
 32 10  1  0
 33 10  1  0
 34 11  1  0
 35 11  1  0
 36 14  1  0
 37 15  1  0
 38 16  1  0
 39 17  1  0
 40 18  1  0
 41 19  1  0
 42 19  1  0
 43 20  1  0
 44 20  1  0
 45 21  1  0
 46 21  1  0
 47 22  1  0
 48 22  1  0
 49 23  1  0
 50 24  1  0
 51 25  1  0
 52  6  1  0
M  CHG  1   6   1
M  END
>  <b_m_subgroup_collapsed>  (569) 
0

>  <r_i_docking_score>  (569) 
-7.7480607404145303

>  <s_m_subgroup_title>  (569) 
glide-dock_SP_D22_pv

>  <s_m_subgroupid>  (569) 
glide-dock_SP_D22_pv

>  <Molecule ChEMBL ID>  (569) 
CHEMBL354748

>  <Standard Type>  (569) 
Ki

>  <Standard Value>  (569) 
14000.0

>  <label>  (569) 
0

$$$$
CHEMBL4572245
     RDKit          3D

 46 48  0  0  1  0  0  0  0  0999 V2000
    9.1028    2.3440  -14.6797 C   0  0  0  0  0  0  0  0  0  0  0  0
    8.1303    3.2671  -13.9774 C   0  0  0  0  0  0  0  0  0  0  0  0
    6.7510    2.9743  -13.9855 C   0  0  0  0  0  0  0  0  0  0  0  0
    5.8503    3.8163  -13.3104 C   0  0  0  0  0  0  0  0  0  0  0  0
    6.3234    4.9512  -12.6265 C   0  0  0  0  0  0  0  0  0  0  0  0
    7.7006    5.2531  -12.6030 C   0  0  0  0  0  0  0  0  0  0  0  0
    8.0859    6.3979  -11.8547 N   0  0  0  0  0  0  0  0  0  0  0  0
    9.2877    6.9779  -11.7216 C   0  0  0  0  0  0  0  0  0  0  0  0
   10.3214    6.6286  -12.2842 O   0  0  0  0  0  0  0  0  0  0  0  0
    9.3405    8.1334  -10.7292 C   0  0  0  0  0  0  0  0  0  0  0  0
    9.2874    7.6431   -9.3289 N   0  0  0  0  0  0  0  0  0  0  0  0
    9.0378    8.7499   -8.3735 C   0  0  0  0  0  0  0  0  0  0  0  0
    8.9148    8.1934   -6.9547 C   0  0  0  0  0  0  0  0  0  0  0  0
   10.1388    7.4846   -6.6176 N   0  0  0  0  0  0  0  0  0  0  0  0
   10.8850    7.8170   -5.4731 C   0  0  0  0  0  0  0  0  0  0  0  0
   11.4843    6.8078   -4.6898 C   0  0  0  0  0  0  0  0  0  0  0  0
   12.0859    7.1531   -3.4675 C   0  0  0  0  0  0  0  0  0  0  0  0
   12.0865    8.5031   -3.0791 C   0  0  0  0  0  0  0  0  0  0  0  0
   12.7087    8.9722   -1.5486 Cl  0  0  0  0  0  0  0  0  0  0  0  0
   11.5201    9.4523   -3.9499 C   0  0  0  0  0  0  0  0  0  0  0  0
   10.9264    9.1232   -5.1186 N   0  0  0  0  0  0  0  0  0  0  0  0
   10.4767    6.3663   -7.4803 C   0  0  0  0  0  0  0  0  0  0  0  0
   10.4811    6.8188   -8.9534 C   0  0  0  0  0  0  0  0  0  0  0  0
    8.6038    4.4015  -13.2855 C   0  0  0  0  0  0  0  0  0  0  0  0
    9.9946    2.8839  -14.9993 H   0  0  0  0  0  0  0  0  0  0  0  0
    9.4090    1.5419  -14.0064 H   0  0  0  0  0  0  0  0  0  0  0  0
    8.6451    1.8967  -15.5623 H   0  0  0  0  0  0  0  0  0  0  0  0
    6.3855    2.1007  -14.5032 H   0  0  0  0  0  0  0  0  0  0  0  0
    4.7942    3.5910  -13.3140 H   0  0  0  0  0  0  0  0  0  0  0  0
    5.6242    5.5859  -12.1001 H   0  0  0  0  0  0  0  0  0  0  0  0
    7.3321    6.8460  -11.3303 H   0  0  0  0  0  0  0  0  0  0  0  0
    8.4945    8.7932  -10.9287 H   0  0  0  0  0  0  0  0  0  0  0  0
   10.2429    8.7243  -10.8893 H   0  0  0  0  0  0  0  0  0  0  0  0
    8.1328    9.3000   -8.6388 H   0  0  0  0  0  0  0  0  0  0  0  0
    9.8694    9.4524   -8.4206 H   0  0  0  0  0  0  0  0  0  0  0  0
    8.0858    7.4885   -6.8959 H   0  0  0  0  0  0  0  0  0  0  0  0
    8.6815    8.9756   -6.2471 H   0  0  0  0  0  0  0  0  0  0  0  0
   11.4301    5.7724   -4.9786 H   0  0  0  0  0  0  0  0  0  0  0  0
   12.5091    6.3927   -2.8270 H   0  0  0  0  0  0  0  0  0  0  0  0
   11.4922   10.4960   -3.6783 H   0  0  0  0  0  0  0  0  0  0  0  0
   11.4477    5.9412   -7.2244 H   0  0  0  0  0  0  0  0  0  0  0  0
    9.7337    5.5828   -7.3349 H   0  0  0  0  0  0  0  0  0  0  0  0
   10.5441    5.9275   -9.5783 H   0  0  0  0  0  0  0  0  0  0  0  0
   11.3830    7.4031   -9.1452 H   0  0  0  0  0  0  0  0  0  0  0  0
    9.6667    4.5808  -13.2783 H   0  0  0  0  0  0  0  0  0  0  0  0
    8.4636    7.0533   -9.2701 H   0  0  0  0  0  0  0  0  0  0  0  0
  2  1  1  0
  3  2  2  0
  4  3  1  0
  5  4  2  0
  6  5  1  0
  7  6  1  0
  8  7  1  0
  9  8  2  0
 10  8  1  0
 11 10  1  0
 12 11  1  0
 13 12  1  0
 14 13  1  0
 15 14  1  0
 16 15  2  0
 17 16  1  0
 18 17  2  0
 19 18  1  0
 20 18  1  0
 21 15  1  0
 21 20  2  0
 22 14  1  0
 23 11  1  0
 23 22  1  0
 24  2  1  0
 24  6  2  0
 25  1  1  0
 26  1  1  0
 27  1  1  0
 28  3  1  0
 29  4  1  0
 30  5  1  0
 31  7  1  0
 32 10  1  0
 33 10  1  0
 34 12  1  0
 35 12  1  0
 36 13  1  0
 37 13  1  0
 38 16  1  0
 39 17  1  0
 40 20  1  0
 41 22  1  0
 42 22  1  0
 43 23  1  0
 44 23  1  0
 45 24  1  0
 46 11  1  0
M  CHG  1  11   1
M  END
>  <b_m_subgroup_collapsed>  (570) 
0

>  <r_i_docking_score>  (570) 
-7.7449888168573899

>  <s_m_subgroup_title>  (570) 
glide-dock_SP_D22_pv

>  <s_m_subgroupid>  (570) 
glide-dock_SP_D22_pv

>  <Molecule ChEMBL ID>  (570) 
CHEMBL4572245

>  <Standard Type>  (570) 
Ki

>  <Standard Value>  (570) 
10000.0

>  <label>  (570) 
0

$$$$
CHEMBL381325
     RDKit          3D

 50 52  0  0  1  0  0  0  0  0999 V2000
   10.1415    7.0320  -11.1704 O   0  0  0  0  0  0  0  0  0  0  0  0
    9.4898    6.1851  -10.5552 C   0  0  0  0  0  0  0  0  0  0  0  0
    8.8763    4.9942  -11.2968 C   0  0  0  0  0  0  0  0  0  0  0  0
    8.5217    5.3257  -12.7637 C   0  0  0  0  0  0  0  0  0  0  0  0
    8.0711    4.1055  -13.5860 C   0  0  0  0  0  0  0  0  0  0  0  0
    6.6973    3.5223  -13.1903 C   0  0  1  0  0  0  0  0  0  0  0  0
    5.6870    4.4748  -13.4471 O   0  0  0  0  0  0  0  0  0  0  0  0
    6.3772    2.1674  -13.8269 C   0  0  0  0  0  0  0  0  0  0  0  0
    5.2856    1.4316  -13.3149 C   0  0  0  0  0  0  0  0  0  0  0  0
    4.9520    0.1726  -13.8475 C   0  0  0  0  0  0  0  0  0  0  0  0
    5.7212   -0.3762  -14.8887 C   0  0  0  0  0  0  0  0  0  0  0  0
    6.8174    0.3431  -15.4012 C   0  0  0  0  0  0  0  0  0  0  0  0
    7.1426    1.6113  -14.8801 C   0  0  0  0  0  0  0  0  0  0  0  0
    9.2844    6.2376   -9.2312 N   0  0  0  0  0  0  0  0  0  0  0  0
    9.6813    7.3517   -8.3803 C   0  0  0  0  0  0  0  0  0  0  0  0
   10.4073    6.8856   -7.1040 C   0  0  0  0  0  0  0  0  0  0  0  0
   10.8578    8.0525   -6.2388 C   0  0  0  0  0  0  0  0  0  0  0  0
   10.7826    9.3635   -6.5163 C   0  0  0  0  0  0  0  0  0  0  0  0
   11.2708   10.2484   -5.3907 C   0  0  0  0  0  0  0  0  0  0  0  0
   11.6264    9.1916   -4.3726 C   0  0  0  0  0  0  0  0  0  0  0  0
   12.0883    9.3752   -3.0584 C   0  0  0  0  0  0  0  0  0  0  0  0
   12.3557    8.2300   -2.2790 C   0  0  0  0  0  0  0  0  0  0  0  0
   12.1545    6.9354   -2.8133 C   0  0  0  0  0  0  0  0  0  0  0  0
   11.6854    6.7664   -4.1342 C   0  0  0  0  0  0  0  0  0  0  0  0
   11.4070    7.9153   -4.8944 C   0  0  0  0  0  0  0  0  0  0  0  0
    7.9868    4.6630  -10.7599 H   0  0  0  0  0  0  0  0  0  0  0  0
    9.5944    4.1726  -11.2641 H   0  0  0  0  0  0  0  0  0  0  0  0
    9.4018    5.7453  -13.2583 H   0  0  0  0  0  0  0  0  0  0  0  0
    7.7651    6.1107  -12.7947 H   0  0  0  0  0  0  0  0  0  0  0  0
    8.8370    3.3363  -13.4734 H   0  0  0  0  0  0  0  0  0  0  0  0
    8.0630    4.3724  -14.6444 H   0  0  0  0  0  0  0  0  0  0  0  0
    6.6850    3.3700  -12.1112 H   0  0  0  0  0  0  0  0  0  0  0  0
    5.8516    5.2352  -12.9080 H   0  0  0  0  0  0  0  0  0  0  0  0
    4.6893    1.8465  -12.5161 H   0  0  0  0  0  0  0  0  0  0  0  0
    4.1005   -0.3666  -13.4632 H   0  0  0  0  0  0  0  0  0  0  0  0
    5.4741   -1.3455  -15.2955 H   0  0  0  0  0  0  0  0  0  0  0  0
    7.4080   -0.0794  -16.1998 H   0  0  0  0  0  0  0  0  0  0  0  0
    7.9849    2.1393  -15.2983 H   0  0  0  0  0  0  0  0  0  0  0  0
    8.7151    5.5174   -8.8065 H   0  0  0  0  0  0  0  0  0  0  0  0
   10.3226    8.0454   -8.9273 H   0  0  0  0  0  0  0  0  0  0  0  0
    8.7789    7.9051   -8.1151 H   0  0  0  0  0  0  0  0  0  0  0  0
    9.7322    6.2601   -6.5172 H   0  0  0  0  0  0  0  0  0  0  0  0
   11.2756    6.2733   -7.3500 H   0  0  0  0  0  0  0  0  0  0  0  0
   10.3982    9.7723   -7.4354 H   0  0  0  0  0  0  0  0  0  0  0  0
   12.1384   10.8223   -5.7129 H   0  0  0  0  0  0  0  0  0  0  0  0
   10.4870   10.9147   -5.0321 H   0  0  0  0  0  0  0  0  0  0  0  0
   12.2312   10.3647   -2.6493 H   0  0  0  0  0  0  0  0  0  0  0  0
   12.7139    8.3458   -1.2657 H   0  0  0  0  0  0  0  0  0  0  0  0
   12.3581    6.0651   -2.2073 H   0  0  0  0  0  0  0  0  0  0  0  0
   11.5112    5.7797   -4.5390 H   0  0  0  0  0  0  0  0  0  0  0  0
  2  1  2  0
  3  2  1  0
  4  3  1  0
  5  4  1  0
  6  5  1  0
  7  6  1  0
  8  6  1  0
  9  8  2  0
 10  9  1  0
 11 10  2  0
 12 11  1  0
 13  8  1  0
 13 12  2  0
 14  2  1  0
 15 14  1  0
 16 15  1  0
 17 16  1  0
 18 17  2  0
 19 18  1  0
 20 19  1  0
 21 20  2  0
 22 21  1  0
 23 22  2  0
 24 23  1  0
 25 17  1  0
 25 20  1  0
 25 24  2  0
 26  3  1  0
 27  3  1  0
 28  4  1  0
 29  4  1  0
 30  5  1  0
 31  5  1  0
  6 32  1  1
 33  7  1  0
 34  9  1  0
 35 10  1  0
 36 11  1  0
 37 12  1  0
 38 13  1  0
 39 14  1  0
 40 15  1  0
 41 15  1  0
 42 16  1  0
 43 16  1  0
 44 18  1  0
 45 19  1  0
 46 19  1  0
 47 21  1  0
 48 22  1  0
 49 23  1  0
 50 24  1  0
M  END
>  <b_m_subgroup_collapsed>  (571) 
0

>  <r_i_docking_score>  (571) 
-7.7427808536191201

>  <s_m_subgroup_title>  (571) 
glide-dock_SP_D22_pv

>  <s_m_subgroupid>  (571) 
glide-dock_SP_D22_pv

>  <Molecule ChEMBL ID>  (571) 
CHEMBL381325

>  <Standard Type>  (571) 
Ki

>  <Standard Value>  (571) 
10000.0

>  <label>  (571) 
0

$$$$
CHEMBL2326481
     RDKit          3D

 52 55  0  0  1  0  0  0  0  0999 V2000
    9.8240    3.1930  -17.4136 C   0  0  0  0  0  0  0  0  0  0  0  0
   10.0819    4.2690  -16.4530 N   0  0  0  0  0  0  0  0  0  0  0  0
   10.7014    5.4657  -17.0324 C   0  0  0  0  0  0  0  0  0  0  0  0
    9.6997    4.1176  -15.1591 C   0  0  0  0  0  0  0  0  0  0  0  0
    9.0403    3.1485  -14.7795 O   0  0  0  0  0  0  0  0  0  0  0  0
   10.0616    5.1716  -14.1466 C   0  0  0  0  0  0  0  0  0  0  0  0
   11.3841    5.6531  -14.0218 C   0  0  0  0  0  0  0  0  0  0  0  0
   11.7153    6.5707  -13.0072 C   0  0  0  0  0  0  0  0  0  0  0  0
   10.7509    6.9725  -12.0581 C   0  0  0  0  0  0  0  0  0  0  0  0
   11.2324    7.7658  -10.8389 C   0  0  0  0  0  0  0  0  0  0  0  0
   10.4485    7.6510   -9.5781 N   0  0  1  0  0  0  0  0  0  0  0  0
    9.4493    8.7341   -9.4046 C   0  0  0  0  0  0  0  0  0  0  0  0
    9.0499    8.9874   -7.9380 C   0  0  0  0  0  0  0  0  0  0  0  0
   10.0288    8.4969   -6.8720 C   0  0  0  0  0  0  0  0  0  0  0  0
   10.6265    9.3653   -5.9202 C   0  0  0  0  0  0  0  0  0  0  0  0
   11.3239    8.8481   -4.7951 C   0  0  0  0  0  0  0  0  0  0  0  0
   11.8356    9.5338   -3.6911 N   0  0  0  0  0  0  0  0  0  0  0  0
   12.3193    8.6519   -2.8032 C   0  0  0  0  0  0  0  0  0  0  0  0
   12.8856    8.9725   -1.5900 N   0  0  0  0  0  0  0  0  0  0  0  0
   12.2440    6.9641   -3.2275 S   0  0  0  0  0  0  0  0  0  0  0  0
   11.4992    7.4384   -4.7379 C   0  0  0  0  0  0  0  0  0  0  0  0
   11.0575    6.5977   -5.7593 C   0  0  0  0  0  0  0  0  0  0  0  0
   10.2518    7.1066   -6.7867 C   0  0  0  0  0  0  0  0  0  0  0  0
    9.5354    6.1692   -7.7491 C   0  0  0  0  0  0  0  0  0  0  0  0
   10.0288    6.2747   -9.1911 C   0  0  0  0  0  0  0  0  0  0  0  0
    9.4070    6.5719  -12.2446 C   0  0  0  0  0  0  0  0  0  0  0  0
    9.0759    5.6432  -13.2511 C   0  0  0  0  0  0  0  0  0  0  0  0
    8.7547    2.9859  -17.4838 H   0  0  0  0  0  0  0  0  0  0  0  0
   10.3267    2.2758  -17.1016 H   0  0  0  0  0  0  0  0  0  0  0  0
   10.1790    3.4316  -18.4169 H   0  0  0  0  0  0  0  0  0  0  0  0
   10.4865    6.3739  -16.4730 H   0  0  0  0  0  0  0  0  0  0  0  0
   10.3386    5.6448  -18.0454 H   0  0  0  0  0  0  0  0  0  0  0  0
   11.7840    5.3421  -17.0809 H   0  0  0  0  0  0  0  0  0  0  0  0
   12.1626    5.2982  -14.6820 H   0  0  0  0  0  0  0  0  0  0  0  0
   12.7438    6.8884  -12.9090 H   0  0  0  0  0  0  0  0  0  0  0  0
   12.2250    7.3848  -10.5959 H   0  0  0  0  0  0  0  0  0  0  0  0
   11.3982    8.8127  -11.0811 H   0  0  0  0  0  0  0  0  0  0  0  0
    9.8994    9.6605   -9.7601 H   0  0  0  0  0  0  0  0  0  0  0  0
    8.5690    8.5767  -10.0273 H   0  0  0  0  0  0  0  0  0  0  0  0
    8.8795   10.0479   -7.8469 H   0  0  0  0  0  0  0  0  0  0  0  0
    8.0826    8.5383   -7.7274 H   0  0  0  0  0  0  0  0  0  0  0  0
   10.4860   10.4334   -5.9808 H   0  0  0  0  0  0  0  0  0  0  0  0
   13.2168    9.9246   -1.4459 H   0  0  0  0  0  0  0  0  0  0  0  0
   13.3461    8.2622   -1.0440 H   0  0  0  0  0  0  0  0  0  0  0  0
   11.2841    5.5562   -5.6735 H   0  0  0  0  0  0  0  0  0  0  0  0
    9.6424    5.1318   -7.4469 H   0  0  0  0  0  0  0  0  0  0  0  0
    8.4623    6.3582   -7.7014 H   0  0  0  0  0  0  0  0  0  0  0  0
    9.2512    5.8613   -9.8271 H   0  0  0  0  0  0  0  0  0  0  0  0
   10.8860    5.6179   -9.2991 H   0  0  0  0  0  0  0  0  0  0  0  0
    8.6192    6.9143  -11.5899 H   0  0  0  0  0  0  0  0  0  0  0  0
    8.0557    5.2950  -13.3347 H   0  0  0  0  0  0  0  0  0  0  0  0
   11.1266    7.8818   -8.8649 H   0  0  0  0  0  0  0  0  0  0  0  0
  2  1  1  0
  3  2  1  0
  4  2  1  0
  5  4  2  0
  6  4  1  0
  7  6  1  0
  8  7  2  0
  9  8  1  0
 10  9  1  0
 11 10  1  0
 12 11  1  0
 13 12  1  0
 14 13  1  0
 15 14  1  0
 16 15  2  0
 17 16  1  0
 18 17  2  0
 19 18  1  0
 20 18  1  0
 21 16  1  0
 21 20  1  0
 22 21  2  0
 23 14  2  0
 23 22  1  0
 24 23  1  0
 25 11  1  0
 25 24  1  0
 26  9  2  0
 27  6  2  0
 27 26  1  0
 28  1  1  0
 29  1  1  0
 30  1  1  0
 31  3  1  0
 32  3  1  0
 33  3  1  0
 34  7  1  0
 35  8  1  0
 36 10  1  0
 37 10  1  0
 38 12  1  0
 39 12  1  0
 40 13  1  0
 41 13  1  0
 42 15  1  0
 43 19  1  0
 44 19  1  0
 45 22  1  0
 46 24  1  0
 47 24  1  0
 48 25  1  0
 49 25  1  0
 50 26  1  0
 51 27  1  0
 11 52  1  1
M  CHG  1  11   1
M  END
>  <b_m_subgroup_collapsed>  (572) 
0

>  <r_i_docking_score>  (572) 
-7.7418439100727099

>  <s_m_subgroup_title>  (572) 
glide-dock_SP_D22_pv

>  <s_m_subgroupid>  (572) 
glide-dock_SP_D22_pv

>  <Molecule ChEMBL ID>  (572) 
CHEMBL2326481

>  <Standard Type>  (572) 
Ki

>  <Standard Value>  (572) 
42.0

>  <label>  (572) 
1

$$$$
CHEMBL5171456
     RDKit          3D

 61 65  0  0  1  0  0  0  0  0999 V2000
    6.8155    0.0514  -16.5812 C   0  0  0  0  0  0  0  0  0  0  0  0
    8.0072    0.7146  -16.1822 O   0  0  0  0  0  0  0  0  0  0  0  0
    9.1777    0.4429  -16.8651 C   0  0  0  0  0  0  0  0  0  0  0  0
    9.2714   -0.5480  -17.8746 C   0  0  0  0  0  0  0  0  0  0  0  0
   10.4781   -0.7522  -18.5687 C   0  0  0  0  0  0  0  0  0  0  0  0
   11.6192    0.0016  -18.2475 C   0  0  0  0  0  0  0  0  0  0  0  0
   11.5426    0.9815  -17.2432 C   0  0  0  0  0  0  0  0  0  0  0  0
   10.3322    1.2134  -16.5578 C   0  0  0  0  0  0  0  0  0  0  0  0
   10.2985    2.2814  -15.6495 N   0  0  0  0  0  0  0  0  0  0  0  0
    9.5452    3.4155  -16.1688 C   0  0  0  0  0  0  0  0  0  0  0  0
    9.7735    4.6841  -15.3308 C   0  0  0  0  0  0  0  0  0  0  0  0
    9.9591    4.4037  -13.9067 N   0  0  0  0  0  0  0  0  0  0  0  0
   10.3413    5.4258  -13.0506 C   0  0  0  0  0  0  0  0  0  0  0  0
   11.4129    6.1269  -13.4291 N   0  0  0  0  0  0  0  0  0  0  0  0
   11.7384    7.0687  -12.5528 C   0  0  0  0  0  0  0  0  0  0  0  0
   12.8805    7.7721  -12.8318 N   0  0  0  0  0  0  0  0  0  0  0  0
   11.1228    7.3780  -11.4130 N   0  0  0  0  0  0  0  0  0  0  0  0
   10.0524    6.6066  -11.1825 C   0  0  0  0  0  0  0  0  0  0  0  0
    9.3247    6.8247  -10.0248 N   0  0  0  0  0  0  0  0  0  0  0  0
    9.6486    7.7867   -8.9750 C   0  0  0  0  0  0  0  0  0  0  0  0
   10.6520    7.2241   -7.9456 C   0  0  0  0  0  0  0  0  0  0  0  0
   11.0288    8.2004   -6.8625 C   0  0  0  0  0  0  0  0  0  0  0  0
   11.2886    9.5320   -7.0470 C   0  0  0  0  0  0  0  0  0  0  0  0
   11.6498   10.1117   -5.8464 N   0  0  0  0  0  0  0  0  0  0  0  0
   11.6968    9.1623   -4.8497 C   0  0  0  0  0  0  0  0  0  0  0  0
   12.0811    9.2348   -3.4974 C   0  0  0  0  0  0  0  0  0  0  0  0
   12.0851    8.0661   -2.7169 C   0  0  0  0  0  0  0  0  0  0  0  0
   11.6858    6.8460   -3.2926 C   0  0  0  0  0  0  0  0  0  0  0  0
   11.2886    6.7873   -4.6462 C   0  0  0  0  0  0  0  0  0  0  0  0
   11.2863    7.9400   -5.4657 C   0  0  0  0  0  0  0  0  0  0  0  0
    9.6117    5.6040  -11.9441 N   0  0  0  0  0  0  0  0  0  0  0  0
    9.5021    3.1067  -13.4077 C   0  0  0  0  0  0  0  0  0  0  0  0
   10.0539    1.9288  -14.2487 C   0  0  0  0  0  0  0  0  0  0  0  0
    5.9844    0.4102  -15.9739 H   0  0  0  0  0  0  0  0  0  0  0  0
    6.5749    0.2592  -17.6253 H   0  0  0  0  0  0  0  0  0  0  0  0
    6.8845   -1.0261  -16.4349 H   0  0  0  0  0  0  0  0  0  0  0  0
    8.4219   -1.1545  -18.1497 H   0  0  0  0  0  0  0  0  0  0  0  0
   10.5226   -1.4815  -19.3601 H   0  0  0  0  0  0  0  0  0  0  0  0
   12.5462   -0.1585  -18.7791 H   0  0  0  0  0  0  0  0  0  0  0  0
   12.4150    1.5757  -17.0104 H   0  0  0  0  0  0  0  0  0  0  0  0
    9.7956    3.6052  -17.2137 H   0  0  0  0  0  0  0  0  0  0  0  0
    8.4880    3.1536  -16.1400 H   0  0  0  0  0  0  0  0  0  0  0  0
   10.6662    5.1859  -15.7058 H   0  0  0  0  0  0  0  0  0  0  0  0
    8.9414    5.3727  -15.4716 H   0  0  0  0  0  0  0  0  0  0  0  0
   13.5460    7.3201  -13.4443 H   0  0  0  0  0  0  0  0  0  0  0  0
   13.2661    8.3385  -12.0924 H   0  0  0  0  0  0  0  0  0  0  0  0
    8.4029    6.4043   -9.9920 H   0  0  0  0  0  0  0  0  0  0  0  0
   10.0325    8.6991   -9.4328 H   0  0  0  0  0  0  0  0  0  0  0  0
    8.7202    8.0602   -8.4708 H   0  0  0  0  0  0  0  0  0  0  0  0
   10.2426    6.3154   -7.5030 H   0  0  0  0  0  0  0  0  0  0  0  0
   11.5583    6.9307   -8.4736 H   0  0  0  0  0  0  0  0  0  0  0  0
   11.2861   10.1092   -7.9581 H   0  0  0  0  0  0  0  0  0  0  0  0
   11.9018   11.0848   -5.7562 H   0  0  0  0  0  0  0  0  0  0  0  0
   12.3892   10.1724   -3.0591 H   0  0  0  0  0  0  0  0  0  0  0  0
   12.3853    8.1083   -1.6799 H   0  0  0  0  0  0  0  0  0  0  0  0
   11.6847    5.9456   -2.6947 H   0  0  0  0  0  0  0  0  0  0  0  0
   10.9994    5.8375   -5.0692 H   0  0  0  0  0  0  0  0  0  0  0  0
    9.7711    2.9709  -12.3591 H   0  0  0  0  0  0  0  0  0  0  0  0
    8.4130    3.0922  -13.4514 H   0  0  0  0  0  0  0  0  0  0  0  0
    9.4072    1.0573  -14.1471 H   0  0  0  0  0  0  0  0  0  0  0  0
   11.0217    1.6355  -13.8440 H   0  0  0  0  0  0  0  0  0  0  0  0
  2  1  1  0
  3  2  1  0
  4  3  2  0
  5  4  1  0
  6  5  2  0
  7  6  1  0
  8  3  1  0
  8  7  2  0
  9  8  1  0
 10  9  1  0
 11 10  1  0
 12 11  1  0
 13 12  1  0
 14 13  2  0
 15 14  1  0
 16 15  1  0
 17 15  2  0
 18 17  1  0
 19 18  1  0
 20 19  1  0
 21 20  1  0
 22 21  1  0
 23 22  2  0
 24 23  1  0
 25 24  1  0
 26 25  2  0
 27 26  1  0
 28 27  2  0
 29 28  1  0
 30 22  1  0
 30 25  1  0
 30 29  2  0
 31 13  1  0
 31 18  2  0
 32 12  1  0
 33  9  1  0
 33 32  1  0
 34  1  1  0
 35  1  1  0
 36  1  1  0
 37  4  1  0
 38  5  1  0
 39  6  1  0
 40  7  1  0
 41 10  1  0
 42 10  1  0
 43 11  1  0
 44 11  1  0
 45 16  1  0
 46 16  1  0
 47 19  1  0
 48 20  1  0
 49 20  1  0
 50 21  1  0
 51 21  1  0
 52 23  1  0
 53 24  1  0
 54 26  1  0
 55 27  1  0
 56 28  1  0
 57 29  1  0
 58 32  1  0
 59 32  1  0
 60 33  1  0
 61 33  1  0
M  END
>  <b_m_subgroup_collapsed>  (573) 
0

>  <r_i_docking_score>  (573) 
-7.7404607974071

>  <s_m_subgroup_title>  (573) 
glide-dock_SP_D22_pv

>  <s_m_subgroupid>  (573) 
glide-dock_SP_D22_pv

>  <Molecule ChEMBL ID>  (573) 
CHEMBL5171456

>  <Standard Type>  (573) 
Ki

>  <Standard Value>  (573) 
13460.0

>  <label>  (573) 
0

$$$$
CHEMBL519547
     RDKit          3D

 76 79  0  0  1  0  0  0  0  0999 V2000
   14.4582    4.7787  -17.8910 C   0  0  0  0  0  0  0  0  0  0  0  0
   13.3763    3.8624  -17.8129 O   0  0  0  0  0  0  0  0  0  0  0  0
   12.6453    3.8235  -16.6455 C   0  0  0  0  0  0  0  0  0  0  0  0
   12.8447    4.7032  -15.5513 C   0  0  0  0  0  0  0  0  0  0  0  0
   12.0662    4.5782  -14.3840 C   0  0  0  0  0  0  0  0  0  0  0  0
   11.0764    3.5818  -14.2975 C   0  0  0  0  0  0  0  0  0  0  0  0
   10.8643    2.7038  -15.3800 C   0  0  0  0  0  0  0  0  0  0  0  0
    9.7899    1.6355  -15.2976 C   0  0  0  0  0  0  0  0  0  0  0  0
    8.5828    1.9620  -16.1927 C   0  0  0  0  0  0  0  0  0  0  0  0
    7.4287    0.9927  -15.9897 C   0  0  0  0  0  0  0  0  0  0  0  0
    7.1600    0.0001  -16.9541 C   0  0  0  0  0  0  0  0  0  0  0  0
    6.0849   -0.8912  -16.7714 C   0  0  0  0  0  0  0  0  0  0  0  0
    5.2952   -0.8161  -15.6093 C   0  0  0  0  0  0  0  0  0  0  0  0
    5.5603    0.1726  -14.6424 C   0  0  0  0  0  0  0  0  0  0  0  0
    6.6086    1.1060  -14.8441 C   0  0  0  0  0  0  0  0  0  0  0  0
    6.8692    2.1508  -13.9861 O   0  0  0  0  0  0  0  0  0  0  0  0
    5.7849    2.6781  -13.2361 C   0  0  0  0  0  0  0  0  0  0  0  0
    6.1215    4.1176  -12.8182 C   0  0  0  0  0  0  0  0  0  0  0  0
    7.3884    4.1726  -11.9627 C   0  0  0  0  0  0  0  0  0  0  0  0
    7.6940    5.5358  -11.3363 C   0  0  0  0  0  0  0  0  0  0  0  0
    9.0135    5.4771  -10.5575 C   0  0  0  0  0  0  0  0  0  0  0  0
    9.1099    6.4642   -9.4535 N   0  0  2  0  0  0  0  0  0  0  0  0
    9.4202    7.8379   -9.9087 C   0  0  0  0  0  0  0  0  0  0  0  0
    9.3507    8.8277   -8.7320 C   0  0  0  0  0  0  0  0  0  0  0  0
   10.1125    8.3543   -7.5048 C   0  0  0  0  0  0  0  0  0  0  0  0
   10.4601    9.2442   -6.4692 C   0  0  0  0  0  0  0  0  0  0  0  0
   11.0878    8.7944   -5.2904 C   0  0  0  0  0  0  0  0  0  0  0  0
   11.2867    9.7178   -4.3003 O   0  0  0  0  0  0  0  0  0  0  0  0
   12.5884    9.7712   -3.7552 C   0  0  0  0  0  0  0  0  0  0  0  0
   11.4464    7.4291   -5.1758 C   0  0  0  0  0  0  0  0  0  0  0  0
   12.1229    6.8953   -4.1083 O   0  0  0  0  0  0  0  0  0  0  0  0
   11.3911    6.7277   -2.9080 C   0  0  0  0  0  0  0  0  0  0  0  0
   11.1823    6.5723   -6.2529 C   0  0  0  0  0  0  0  0  0  0  0  0
   10.4588    6.9992   -7.3790 C   0  0  0  0  0  0  0  0  0  0  0  0
   10.1008    5.9945   -8.4555 C   0  0  0  0  0  0  0  0  0  0  0  0
   11.6501    2.8295  -16.5448 C   0  0  0  0  0  0  0  0  0  0  0  0
   14.9576    4.6616  -18.8528 H   0  0  0  0  0  0  0  0  0  0  0  0
   14.1143    5.8111  -17.8229 H   0  0  0  0  0  0  0  0  0  0  0  0
   15.1971    4.5914  -17.1100 H   0  0  0  0  0  0  0  0  0  0  0  0
   13.5947    5.4792  -15.5785 H   0  0  0  0  0  0  0  0  0  0  0  0
   12.2316    5.2503  -13.5549 H   0  0  0  0  0  0  0  0  0  0  0  0
   10.4838    3.4936  -13.3982 H   0  0  0  0  0  0  0  0  0  0  0  0
    9.4723    1.5380  -14.2578 H   0  0  0  0  0  0  0  0  0  0  0  0
   10.2163    0.6723  -15.5765 H   0  0  0  0  0  0  0  0  0  0  0  0
    8.8799    1.9651  -17.2411 H   0  0  0  0  0  0  0  0  0  0  0  0
    8.2331    2.9715  -15.9779 H   0  0  0  0  0  0  0  0  0  0  0  0
    7.7781   -0.0840  -17.8354 H   0  0  0  0  0  0  0  0  0  0  0  0
    5.8830   -1.6533  -17.5102 H   0  0  0  0  0  0  0  0  0  0  0  0
    4.4863   -1.5174  -15.4616 H   0  0  0  0  0  0  0  0  0  0  0  0
    4.9361    0.2209  -13.7637 H   0  0  0  0  0  0  0  0  0  0  0  0
    4.8858    2.6954  -13.8461 H   0  0  0  0  0  0  0  0  0  0  0  0
    5.5910    2.0546  -12.3610 H   0  0  0  0  0  0  0  0  0  0  0  0
    6.2452    4.7407  -13.7041 H   0  0  0  0  0  0  0  0  0  0  0  0
    5.2857    4.5342  -12.2566 H   0  0  0  0  0  0  0  0  0  0  0  0
    7.2637    3.4710  -11.1425 H   0  0  0  0  0  0  0  0  0  0  0  0
    8.2428    3.8336  -12.5497 H   0  0  0  0  0  0  0  0  0  0  0  0
    7.7184    6.3248  -12.0886 H   0  0  0  0  0  0  0  0  0  0  0  0
    6.8857    5.7723  -10.6492 H   0  0  0  0  0  0  0  0  0  0  0  0
    9.0936    4.4820  -10.1184 H   0  0  0  0  0  0  0  0  0  0  0  0
    9.8641    5.5696  -11.2351 H   0  0  0  0  0  0  0  0  0  0  0  0
   10.4210    7.8522  -10.3434 H   0  0  0  0  0  0  0  0  0  0  0  0
    8.7347    8.1509  -10.6969 H   0  0  0  0  0  0  0  0  0  0  0  0
    8.3160    9.0138   -8.4452 H   0  0  0  0  0  0  0  0  0  0  0  0
    9.7688    9.7715   -9.0637 H   0  0  0  0  0  0  0  0  0  0  0  0
   10.2194   10.2866   -6.5611 H   0  0  0  0  0  0  0  0  0  0  0  0
   12.5753   10.5723   -3.0381 H   0  0  0  0  0  0  0  0  0  0  0  0
   12.8868    8.8981   -3.1862 H   0  0  0  0  0  0  0  0  0  0  0  0
   13.3416    9.9733   -4.5195 H   0  0  0  0  0  0  0  0  0  0  0  0
   11.9893    6.1537   -2.2009 H   0  0  0  0  0  0  0  0  0  0  0  0
   11.1472    7.6757   -2.4297 H   0  0  0  0  0  0  0  0  0  0  0  0
   10.4799    6.1713   -3.0947 H   0  0  0  0  0  0  0  0  0  0  0  0
   11.5346    5.5581   -6.1952 H   0  0  0  0  0  0  0  0  0  0  0  0
    9.7458    5.0742   -7.9898 H   0  0  0  0  0  0  0  0  0  0  0  0
   11.0203    5.7723   -8.9842 H   0  0  0  0  0  0  0  0  0  0  0  0
   11.4948    2.1534  -17.3725 H   0  0  0  0  0  0  0  0  0  0  0  0
    8.2031    6.5124   -9.0013 H   0  0  0  0  0  0  0  0  0  0  0  0
  2  1  1  0
  3  2  1  0
  4  3  1  0
  5  4  2  0
  6  5  1  0
  7  6  2  0
  8  7  1  0
  9  8  1  0
 10  9  1  0
 11 10  2  0
 12 11  1  0
 13 12  2  0
 14 13  1  0
 15 10  1  0
 15 14  2  0
 16 15  1  0
 17 16  1  0
 18 17  1  0
 19 18  1  0
 20 19  1  0
 21 20  1  0
 22 21  1  0
 23 22  1  0
 24 23  1  0
 25 24  1  0
 26 25  1  0
 27 26  2  0
 28 27  1  0
 29 28  1  0
 30 27  1  0
 31 30  1  0
 32 31  1  0
 33 30  2  0
 34 25  2  0
 34 33  1  0
 35 22  1  0
 35 34  1  0
 36  3  2  0
 36  7  1  0
 37  1  1  0
 38  1  1  0
 39  1  1  0
 40  4  1  0
 41  5  1  0
 42  6  1  0
 43  8  1  0
 44  8  1  0
 45  9  1  0
 46  9  1  0
 47 11  1  0
 48 12  1  0
 49 13  1  0
 50 14  1  0
 51 17  1  0
 52 17  1  0
 53 18  1  0
 54 18  1  0
 55 19  1  0
 56 19  1  0
 57 20  1  0
 58 20  1  0
 59 21  1  0
 60 21  1  0
 61 23  1  0
 62 23  1  0
 63 24  1  0
 64 24  1  0
 65 26  1  0
 66 29  1  0
 67 29  1  0
 68 29  1  0
 69 32  1  0
 70 32  1  0
 71 32  1  0
 72 33  1  0
 73 35  1  0
 74 35  1  0
 75 36  1  0
 22 76  1  1
M  CHG  1  22   1
M  END
>  <b_m_subgroup_collapsed>  (574) 
0

>  <r_i_docking_score>  (574) 
-7.7391032358483498

>  <s_m_subgroup_title>  (574) 
glide-dock_SP_D22_pv

>  <s_m_subgroupid>  (574) 
glide-dock_SP_D22_pv

>  <Molecule ChEMBL ID>  (574) 
CHEMBL519547

>  <Standard Type>  (574) 
Ki

>  <Standard Value>  (574) 
1000000.0

>  <label>  (574) 
0

$$$$
CHEMBL419760
     RDKit          3D

 56 59  0  0  1  0  0  0  0  0999 V2000
    6.5934   -0.5286  -13.9469 C   0  0  0  0  0  0  0  0  0  0  0  0
    7.8159    0.3307  -14.2967 C   0  0  0  0  0  0  0  0  0  0  0  0
    7.2950    2.0184  -14.8101 S   0  0  0  0  0  0  0  0  0  0  0  0
    6.2930    2.4987  -13.8459 O   0  0  0  0  0  0  0  0  0  0  0  0
    6.9565    1.9594  -16.2409 O   0  0  0  0  0  0  0  0  0  0  0  0
    8.7667    3.0243  -14.6358 C   0  0  0  0  0  0  0  0  0  0  0  0
    9.8154    2.8716  -15.5574 C   0  0  0  0  0  0  0  0  0  0  0  0
   10.9659    3.6736  -15.4321 C   0  0  0  0  0  0  0  0  0  0  0  0
   11.0719    4.6347  -14.3936 C   0  0  0  0  0  0  0  0  0  0  0  0
   12.1810    5.4416  -14.2417 O   0  0  0  0  0  0  0  0  0  0  0  0
   13.1570    5.4675  -15.2724 C   0  0  0  0  0  0  0  0  0  0  0  0
   10.0139    4.7756  -13.4547 C   0  0  0  0  0  0  0  0  0  0  0  0
   10.0846    5.7644  -12.3706 C   0  0  0  0  0  0  0  0  0  0  0  0
   10.7218    6.9722  -12.2462 C   0  0  0  0  0  0  0  0  0  0  0  0
   10.4507    7.4899  -10.9475 C   0  0  0  0  0  0  0  0  0  0  0  0
    9.6638    6.5888  -10.2807 C   0  0  0  0  0  0  0  0  0  0  0  0
    9.0947    6.5697   -8.8962 C   0  0  0  0  0  0  0  0  0  0  0  0
    9.9611    7.3066   -7.9424 N   0  0  1  0  0  0  0  0  0  0  0  0
    9.5836    8.7274   -7.7555 C   0  0  0  0  0  0  0  0  0  0  0  0
   10.7506    9.4661   -7.0805 C   0  0  0  0  0  0  0  0  0  0  0  0
   11.2117    8.7787   -5.8250 C   0  0  0  0  0  0  0  0  0  0  0  0
   11.9109    9.5199   -4.8586 C   0  0  0  0  0  0  0  0  0  0  0  0
   12.3445    8.9102   -3.6682 C   0  0  0  0  0  0  0  0  0  0  0  0
   12.0857    7.5443   -3.4537 C   0  0  0  0  0  0  0  0  0  0  0  0
   11.3848    6.8041   -4.4268 C   0  0  0  0  0  0  0  0  0  0  0  0
   10.9371    7.4115   -5.6178 C   0  0  0  0  0  0  0  0  0  0  0  0
   10.1509    6.6041   -6.6485 C   0  0  0  0  0  0  0  0  0  0  0  0
    9.4275    5.5590  -11.1708 N   0  0  0  0  0  0  0  0  0  0  0  0
    8.8689    3.9545  -13.5843 C   0  0  0  0  0  0  0  0  0  0  0  0
    6.8824   -1.5308  -13.6374 H   0  0  0  0  0  0  0  0  0  0  0  0
    6.0268   -0.0846  -13.1292 H   0  0  0  0  0  0  0  0  0  0  0  0
    5.9286   -0.6243  -14.8033 H   0  0  0  0  0  0  0  0  0  0  0  0
    8.3891   -0.1164  -15.1105 H   0  0  0  0  0  0  0  0  0  0  0  0
    8.4854    0.4280  -13.4456 H   0  0  0  0  0  0  0  0  0  0  0  0
    9.7365    2.1498  -16.3572 H   0  0  0  0  0  0  0  0  0  0  0  0
   11.7553    3.5310  -16.1537 H   0  0  0  0  0  0  0  0  0  0  0  0
   13.8946    6.2384  -15.0481 H   0  0  0  0  0  0  0  0  0  0  0  0
   13.6841    4.5178  -15.3431 H   0  0  0  0  0  0  0  0  0  0  0  0
   12.7132    5.7068  -16.2406 H   0  0  0  0  0  0  0  0  0  0  0  0
   11.3236    7.4390  -13.0103 H   0  0  0  0  0  0  0  0  0  0  0  0
   10.8122    8.4260  -10.5478 H   0  0  0  0  0  0  0  0  0  0  0  0
    8.9998    5.5287   -8.5781 H   0  0  0  0  0  0  0  0  0  0  0  0
    8.0863    6.9704   -8.8843 H   0  0  0  0  0  0  0  0  0  0  0  0
    8.6770    8.7908   -7.1480 H   0  0  0  0  0  0  0  0  0  0  0  0
    9.3558    9.1952   -8.7145 H   0  0  0  0  0  0  0  0  0  0  0  0
   10.4853   10.4777   -6.7803 H   0  0  0  0  0  0  0  0  0  0  0  0
   11.5962    9.5440   -7.7648 H   0  0  0  0  0  0  0  0  0  0  0  0
   12.1007   10.5666   -5.0459 H   0  0  0  0  0  0  0  0  0  0  0  0
   12.8722    9.4899   -2.9221 H   0  0  0  0  0  0  0  0  0  0  0  0
   12.4120    7.0665   -2.5440 H   0  0  0  0  0  0  0  0  0  0  0  0
   11.1707    5.7712   -4.2425 H   0  0  0  0  0  0  0  0  0  0  0  0
   10.7115    5.6994   -6.8604 H   0  0  0  0  0  0  0  0  0  0  0  0
    9.1871    6.3233   -6.2211 H   0  0  0  0  0  0  0  0  0  0  0  0
    8.8569    4.7501  -10.9699 H   0  0  0  0  0  0  0  0  0  0  0  0
    8.0489    4.0562  -12.8910 H   0  0  0  0  0  0  0  0  0  0  0  0
   10.8717    7.3193   -8.3762 H   0  0  0  0  0  0  0  0  0  0  0  0
  2  1  1  0
  3  2  1  0
  4  3  2  0
  5  3  2  0
  6  3  1  0
  7  6  1  0
  8  7  2  0
  9  8  1  0
 10  9  1  0
 11 10  1  0
 12  9  2  0
 13 12  1  0
 14 13  2  0
 15 14  1  0
 16 15  2  0
 17 16  1  0
 18 17  1  0
 19 18  1  0
 20 19  1  0
 21 20  1  0
 22 21  2  0
 23 22  1  0
 24 23  2  0
 25 24  1  0
 26 21  1  0
 26 25  2  0
 27 18  1  0
 27 26  1  0
 28 13  1  0
 28 16  1  0
 29  6  2  0
 29 12  1  0
 30  1  1  0
 31  1  1  0
 32  1  1  0
 33  2  1  0
 34  2  1  0
 35  7  1  0
 36  8  1  0
 37 11  1  0
 38 11  1  0
 39 11  1  0
 40 14  1  0
 41 15  1  0
 42 17  1  0
 43 17  1  0
 44 19  1  0
 45 19  1  0
 46 20  1  0
 47 20  1  0
 48 22  1  0
 49 23  1  0
 50 24  1  0
 51 25  1  0
 52 27  1  0
 53 27  1  0
 54 28  1  0
 55 29  1  0
 18 56  1  6
M  CHG  1  18   1
M  END
>  <b_m_subgroup_collapsed>  (575) 
0

>  <r_i_docking_score>  (575) 
-7.7389126842084801

>  <s_m_subgroup_title>  (575) 
glide-dock_SP_D22_pv

>  <s_m_subgroupid>  (575) 
glide-dock_SP_D22_pv

>  <Molecule ChEMBL ID>  (575) 
CHEMBL419760

>  <Standard Type>  (575) 
Ki

>  <Standard Value>  (575) 
100.0

>  <label>  (575) 
1

$$$$
CHEMBL4644906
     RDKit          3D

 66 70  0  0  1  0  0  0  0  0999 V2000
    9.9261    8.9730  -21.6382 O   0  0  0  0  0  0  0  0  0  0  0  0
    9.8267    7.9484  -20.9723 C   0  0  0  0  0  0  0  0  0  0  0  0
    8.9067    6.8113  -21.4391 C   0  0  0  0  0  0  0  0  0  0  0  0
    8.3196    6.0054  -20.2641 C   0  0  0  0  0  0  0  0  0  0  0  0
    9.3805    5.6864  -19.2271 C   0  0  0  0  0  0  0  0  0  0  0  0
    9.3021    4.5241  -18.4349 C   0  0  0  0  0  0  0  0  0  0  0  0
   10.2705    4.2618  -17.4454 C   0  0  0  0  0  0  0  0  0  0  0  0
   10.1094    3.1044  -16.7124 O   0  0  0  0  0  0  0  0  0  0  0  0
   10.8866    2.9102  -15.5346 C   0  0  0  0  0  0  0  0  0  0  0  0
   10.3945    3.8234  -14.3952 C   0  0  0  0  0  0  0  0  0  0  0  0
    8.9758    3.4629  -13.9177 C   0  0  0  0  0  0  0  0  0  0  0  0
    8.3502    4.4932  -12.9585 C   0  0  0  0  0  0  0  0  0  0  0  0
    9.2324    4.8249  -11.7455 C   0  0  0  0  0  0  0  0  0  0  0  0
    8.5158    5.6856  -10.6946 C   0  0  0  0  0  0  0  0  0  0  0  0
    9.4704    6.0979   -9.6402 N   0  0  0  0  0  0  0  0  0  0  0  0
   10.0308    7.4514   -9.8622 C   0  0  0  0  0  0  0  0  0  0  0  0
   11.1933    7.7164   -8.8959 C   0  0  0  0  0  0  0  0  0  0  0  0
   10.8149    7.4251   -7.5099 N   0  0  0  0  0  0  0  0  0  0  0  0
   11.0386    8.3664   -6.4810 C   0  0  0  0  0  0  0  0  0  0  0  0
   10.9223    9.6410   -6.7721 N   0  0  0  0  0  0  0  0  0  0  0  0
   11.2860   10.5720   -5.4477 S   0  0  0  0  0  0  0  0  0  0  0  0
   11.6460    9.2380   -4.3864 C   0  0  0  0  0  0  0  0  0  0  0  0
   12.0741    9.2539   -3.0484 C   0  0  0  0  0  0  0  0  0  0  0  0
   12.2938    8.0421   -2.3765 C   0  0  0  0  0  0  0  0  0  0  0  0
   12.0890    6.8298   -3.0548 C   0  0  0  0  0  0  0  0  0  0  0  0
   11.6859    6.8277   -4.4060 C   0  0  0  0  0  0  0  0  0  0  0  0
   11.4368    8.0307   -5.1162 C   0  0  0  0  0  0  0  0  0  0  0  0
   10.1109    6.1765   -7.2502 C   0  0  0  0  0  0  0  0  0  0  0  0
    8.9664    5.9439   -8.2552 C   0  0  0  0  0  0  0  0  0  0  0  0
   11.3331    5.1832  -17.2639 C   0  0  0  0  0  0  0  0  0  0  0  0
   11.4187    6.3432  -18.0582 C   0  0  0  0  0  0  0  0  0  0  0  0
   10.4451    6.5934  -19.0432 C   0  0  0  0  0  0  0  0  0  0  0  0
   10.5363    7.7579  -19.8484 N   0  0  0  0  0  0  0  0  0  0  0  0
    9.5080    6.1492  -22.0667 H   0  0  0  0  0  0  0  0  0  0  0  0
    8.1065    7.2034  -22.0673 H   0  0  0  0  0  0  0  0  0  0  0  0
    7.8727    5.0834  -20.6354 H   0  0  0  0  0  0  0  0  0  0  0  0
    7.5226    6.5702  -19.7816 H   0  0  0  0  0  0  0  0  0  0  0  0
    8.4860    3.8322  -18.5725 H   0  0  0  0  0  0  0  0  0  0  0  0
   10.7770    1.8683  -15.2317 H   0  0  0  0  0  0  0  0  0  0  0  0
   11.9527    3.0432  -15.7301 H   0  0  0  0  0  0  0  0  0  0  0  0
   11.0882    3.7300  -13.5602 H   0  0  0  0  0  0  0  0  0  0  0  0
   10.4313    4.8695  -14.7004 H   0  0  0  0  0  0  0  0  0  0  0  0
    8.3194    3.3659  -14.7837 H   0  0  0  0  0  0  0  0  0  0  0  0
    8.9981    2.4808  -13.4470 H   0  0  0  0  0  0  0  0  0  0  0  0
    8.1312    5.4142  -13.5035 H   0  0  0  0  0  0  0  0  0  0  0  0
    7.3880    4.1105  -12.6154 H   0  0  0  0  0  0  0  0  0  0  0  0
    9.5803    3.8994  -11.2828 H   0  0  0  0  0  0  0  0  0  0  0  0
   10.1241    5.3493  -12.0938 H   0  0  0  0  0  0  0  0  0  0  0  0
    8.0848    6.5716  -11.1601 H   0  0  0  0  0  0  0  0  0  0  0  0
    7.6859    5.1187  -10.2733 H   0  0  0  0  0  0  0  0  0  0  0  0
   10.3827    7.5526  -10.8904 H   0  0  0  0  0  0  0  0  0  0  0  0
    9.2437    8.1971   -9.7194 H   0  0  0  0  0  0  0  0  0  0  0  0
   12.0513    7.1031   -9.1634 H   0  0  0  0  0  0  0  0  0  0  0  0
   11.5313    8.7459   -9.0170 H   0  0  0  0  0  0  0  0  0  0  0  0
   12.2204   10.1930   -2.5344 H   0  0  0  0  0  0  0  0  0  0  0  0
   12.6189    8.0483   -1.3477 H   0  0  0  0  0  0  0  0  0  0  0  0
   12.2564    5.8933   -2.5437 H   0  0  0  0  0  0  0  0  0  0  0  0
   11.5604    5.8785   -4.9041 H   0  0  0  0  0  0  0  0  0  0  0  0
   10.8428    5.3723   -7.3203 H   0  0  0  0  0  0  0  0  0  0  0  0
    9.7019    6.1726   -6.2395 H   0  0  0  0  0  0  0  0  0  0  0  0
    8.1551    6.6500   -8.0788 H   0  0  0  0  0  0  0  0  0  0  0  0
    8.5536    4.9426   -8.1104 H   0  0  0  0  0  0  0  0  0  0  0  0
   12.0974    5.0276  -16.5198 H   0  0  0  0  0  0  0  0  0  0  0  0
   12.2355    7.0376  -17.9112 H   0  0  0  0  0  0  0  0  0  0  0  0
   11.1918    8.4751  -19.5693 H   0  0  0  0  0  0  0  0  0  0  0  0
   10.2458    5.4557   -9.7066 H   0  0  0  0  0  0  0  0  0  0  0  0
  2  1  2  0
  3  2  1  0
  4  3  1  0
  5  4  1  0
  6  5  1  0
  7  6  2  0
  8  7  1  0
  9  8  1  0
 10  9  1  0
 11 10  1  0
 12 11  1  0
 13 12  1  0
 14 13  1  0
 15 14  1  0
 16 15  1  0
 17 16  1  0
 18 17  1  0
 19 18  1  0
 20 19  2  0
 21 20  1  0
 22 21  1  0
 23 22  2  0
 24 23  1  0
 25 24  2  0
 26 25  1  0
 27 19  1  0
 27 22  1  0
 27 26  2  0
 28 18  1  0
 29 15  1  0
 29 28  1  0
 30  7  1  0
 31 30  2  0
 32  5  2  0
 32 31  1  0
 33  2  1  0
 33 32  1  0
 34  3  1  0
 35  3  1  0
 36  4  1  0
 37  4  1  0
 38  6  1  0
 39  9  1  0
 40  9  1  0
 41 10  1  0
 42 10  1  0
 43 11  1  0
 44 11  1  0
 45 12  1  0
 46 12  1  0
 47 13  1  0
 48 13  1  0
 49 14  1  0
 50 14  1  0
 51 16  1  0
 52 16  1  0
 53 17  1  0
 54 17  1  0
 55 23  1  0
 56 24  1  0
 57 25  1  0
 58 26  1  0
 59 28  1  0
 60 28  1  0
 61 29  1  0
 62 29  1  0
 63 30  1  0
 64 31  1  0
 65 33  1  0
 66 15  1  0
M  CHG  1  15   1
M  END
>  <b_m_subgroup_collapsed>  (576) 
0

>  <r_i_docking_score>  (576) 
-7.7378223661603602

>  <s_m_subgroup_title>  (576) 
glide-dock_SP_D22_pv

>  <s_m_subgroupid>  (576) 
glide-dock_SP_D22_pv

>  <Molecule ChEMBL ID>  (576) 
CHEMBL4644906

>  <Standard Type>  (576) 
Ki

>  <Standard Value>  (576) 
39.0

>  <label>  (576) 
1

$$$$
CHEMBL5723013
     RDKit          3D

 42 45  0  0  1  0  0  0  0  0999 V2000
   10.8745    4.3882  -14.1289 O   0  0  0  0  0  0  0  0  0  0  0  0
   10.0185    4.9508  -13.4455 C   0  0  0  0  0  0  0  0  0  0  0  0
   10.3394    6.1502  -12.6453 C   0  0  0  0  0  0  0  0  0  0  0  0
    9.3958    6.7505  -11.8913 C   0  0  0  0  0  0  0  0  0  0  0  0
    9.6830    7.9639  -11.0364 C   0  0  0  0  0  0  0  0  0  0  0  0
    9.2860    7.7015   -9.6633 N   0  0  0  0  0  0  0  0  0  0  0  0
    9.4931    8.8683   -8.8267 C   0  0  0  0  0  0  0  0  0  0  0  0
   10.9663    8.9840   -8.4230 C   0  0  0  0  0  0  0  0  0  0  0  0
   11.1947    8.7691   -6.9660 C   0  0  0  0  0  0  0  0  0  0  0  0
   11.1183    7.5604   -6.3820 N   0  0  0  0  0  0  0  0  0  0  0  0
   11.3750    7.6713   -5.0195 C   0  0  0  0  0  0  0  0  0  0  0  0
   11.6661    8.9095   -4.5865 C   0  0  0  0  0  0  0  0  0  0  0  0
   11.5786   10.0962   -5.8464 S   0  0  0  0  0  0  0  0  0  0  0  0
   11.9977    8.9791   -3.1503 C   0  0  0  0  0  0  0  0  0  0  0  0
   11.9080    7.4836   -2.7148 C   0  0  0  0  0  0  0  0  0  0  0  0
   11.4486    6.6471   -3.9513 C   0  0  0  0  0  0  0  0  0  0  0  0
    8.0861    6.2923  -11.8469 N   0  0  0  0  0  0  0  0  0  0  0  0
    7.6730    5.1629  -12.5552 C   0  0  0  0  0  0  0  0  0  0  0  0
    6.3423    4.7106  -12.4607 C   0  0  0  0  0  0  0  0  0  0  0  0
    5.9399    3.5634  -13.1699 C   0  0  0  0  0  0  0  0  0  0  0  0
    6.8660    2.8720  -13.9760 C   0  0  0  0  0  0  0  0  0  0  0  0
    6.4859    1.7582  -14.6444 F   0  0  0  0  0  0  0  0  0  0  0  0
    8.1945    3.3262  -14.0787 C   0  0  0  0  0  0  0  0  0  0  0  0
    8.6074    4.4705  -13.3654 C   0  0  0  0  0  0  0  0  0  0  0  0
   11.3535    6.5210  -12.6701 H   0  0  0  0  0  0  0  0  0  0  0  0
   10.7437    8.2108  -11.0910 H   0  0  0  0  0  0  0  0  0  0  0  0
    9.1259    8.8135  -11.4357 H   0  0  0  0  0  0  0  0  0  0  0  0
    8.2826    7.5237   -9.6792 H   0  0  0  0  0  0  0  0  0  0  0  0
    9.1591    9.7662   -9.3486 H   0  0  0  0  0  0  0  0  0  0  0  0
    8.8637    8.7783   -7.9396 H   0  0  0  0  0  0  0  0  0  0  0  0
   11.6140    8.3056   -8.9783 H   0  0  0  0  0  0  0  0  0  0  0  0
   11.2876    9.9888   -8.6812 H   0  0  0  0  0  0  0  0  0  0  0  0
   12.9958    9.3869   -2.9944 H   0  0  0  0  0  0  0  0  0  0  0  0
   11.2860    9.6061   -2.6159 H   0  0  0  0  0  0  0  0  0  0  0  0
   12.8849    7.1366   -2.3793 H   0  0  0  0  0  0  0  0  0  0  0  0
   11.2236    7.3583   -1.8758 H   0  0  0  0  0  0  0  0  0  0  0  0
   10.4852    6.1725   -3.7831 H   0  0  0  0  0  0  0  0  0  0  0  0
   12.1529    5.8564   -4.1965 H   0  0  0  0  0  0  0  0  0  0  0  0
    7.4058    6.7903  -11.2648 H   0  0  0  0  0  0  0  0  0  0  0  0
    5.6359    5.2351  -11.8336 H   0  0  0  0  0  0  0  0  0  0  0  0
    4.9230    3.2081  -13.0908 H   0  0  0  0  0  0  0  0  0  0  0  0
    8.8938    2.7814  -14.6973 H   0  0  0  0  0  0  0  0  0  0  0  0
  2  1  2  0
  3  2  1  0
  4  3  2  0
  5  4  1  0
  6  5  1  0
  7  6  1  0
  8  7  1  0
  9  8  1  0
 10  9  2  0
 11 10  1  0
 12 11  2  0
 13  9  1  0
 13 12  1  0
 14 12  1  0
 15 14  1  0
 16 11  1  0
 16 15  1  0
 17  4  1  0
 18 17  1  0
 19 18  2  0
 20 19  1  0
 21 20  2  0
 22 21  1  0
 23 21  1  0
 24  2  1  0
 24 18  1  0
 24 23  2  0
 25  3  1  0
 26  5  1  0
 27  5  1  0
 28  6  1  0
 29  7  1  0
 30  7  1  0
 31  8  1  0
 32  8  1  0
 33 14  1  0
 34 14  1  0
 35 15  1  0
 36 15  1  0
 37 16  1  0
 38 16  1  0
 39 17  1  0
 40 19  1  0
 41 20  1  0
 42 23  1  0
M  END
>  <b_m_subgroup_collapsed>  (577) 
0

>  <r_i_docking_score>  (577) 
-7.7348987462823304

>  <s_m_subgroup_title>  (577) 
glide-dock_SP_D22_pv

>  <s_m_subgroupid>  (577) 
glide-dock_SP_D22_pv

>  <Molecule ChEMBL ID>  (577) 
CHEMBL5723013

>  <Standard Type>  (577) 
Ki

>  <Standard Value>  (577) 
10000.0

>  <label>  (577) 
0

$$$$
CHEMBL5723000
     RDKit          3D

 43 45  0  0  1  0  0  0  0  0999 V2000
    6.8872    1.7208  -14.8976 C   0  0  0  0  0  0  0  0  0  0  0  0
    7.1958    2.9752  -14.1068 C   0  0  0  0  0  0  0  0  0  0  0  0
    6.1735    3.6389  -13.3984 C   0  0  0  0  0  0  0  0  0  0  0  0
    6.4653    4.7946  -12.6472 C   0  0  0  0  0  0  0  0  0  0  0  0
    7.7828    5.2904  -12.6025 C   0  0  0  0  0  0  0  0  0  0  0  0
    8.0860    6.4268  -11.8468 N   0  0  0  0  0  0  0  0  0  0  0  0
    9.3830    6.9047  -11.7132 C   0  0  0  0  0  0  0  0  0  0  0  0
    9.5661    8.0858  -10.7716 C   0  0  0  0  0  0  0  0  0  0  0  0
    8.8860    7.9012   -9.4679 N   0  0  0  0  0  0  0  0  0  0  0  0
    9.3440    6.7585   -8.6438 C   0  0  0  0  0  0  0  0  0  0  0  0
    9.6420    7.1745   -7.1902 C   0  0  0  0  0  0  0  0  0  0  0  0
   10.9695    7.9440   -7.0430 C   0  0  0  0  0  0  0  0  0  0  0  0
   11.2850    8.2724   -5.6613 N   0  0  0  0  0  0  0  0  0  0  0  0
   11.2857    9.5361   -5.0819 C   0  0  0  0  0  0  0  0  0  0  0  0
   11.6876    9.3722   -3.7750 C   0  0  0  0  0  0  0  0  0  0  0  0
   11.9521    8.0269   -3.5309 N   0  0  0  0  0  0  0  0  0  0  0  0
   11.6842    7.4369   -4.6886 C   0  0  0  0  0  0  0  0  0  0  0  0
   10.4155    6.3306  -12.3662 C   0  0  0  0  0  0  0  0  0  0  0  0
   10.2109    5.1543  -13.2402 C   0  0  0  0  0  0  0  0  0  0  0  0
   11.1501    4.6400  -13.8469 O   0  0  0  0  0  0  0  0  0  0  0  0
    8.8150    4.6315  -13.3162 C   0  0  0  0  0  0  0  0  0  0  0  0
    8.5133    3.4757  -14.0700 C   0  0  0  0  0  0  0  0  0  0  0  0
    6.0318    1.1922  -14.4732 H   0  0  0  0  0  0  0  0  0  0  0  0
    6.6602    1.9718  -15.9339 H   0  0  0  0  0  0  0  0  0  0  0  0
    7.7385    1.0376  -14.8880 H   0  0  0  0  0  0  0  0  0  0  0  0
    5.1632    3.2575  -13.4201 H   0  0  0  0  0  0  0  0  0  0  0  0
    5.6806    5.2907  -12.0947 H   0  0  0  0  0  0  0  0  0  0  0  0
    9.1634    8.9749  -11.2565 H   0  0  0  0  0  0  0  0  0  0  0  0
   10.6277    8.2691  -10.5943 H   0  0  0  0  0  0  0  0  0  0  0  0
    7.8804    7.7852   -9.6618 H   0  0  0  0  0  0  0  0  0  0  0  0
   10.2210    6.2782   -9.0819 H   0  0  0  0  0  0  0  0  0  0  0  0
    8.5462    6.0139   -8.6557 H   0  0  0  0  0  0  0  0  0  0  0  0
    9.6939    6.2710   -6.5820 H   0  0  0  0  0  0  0  0  0  0  0  0
    8.8127    7.7576   -6.7846 H   0  0  0  0  0  0  0  0  0  0  0  0
   10.9418    8.8694   -7.6188 H   0  0  0  0  0  0  0  0  0  0  0  0
   11.7951    7.3531   -7.4455 H   0  0  0  0  0  0  0  0  0  0  0  0
   11.0146   10.4260   -5.6320 H   0  0  0  0  0  0  0  0  0  0  0  0
   11.8158   10.1166   -3.0032 H   0  0  0  0  0  0  0  0  0  0  0  0
   11.7906    6.3710   -4.8352 H   0  0  0  0  0  0  0  0  0  0  0  0
   11.4227    6.7095  -12.2595 H   0  0  0  0  0  0  0  0  0  0  0  0
    9.2968    2.9632  -14.6099 H   0  0  0  0  0  0  0  0  0  0  0  0
    7.3260    6.8758  -11.3256 H   0  0  0  0  0  0  0  0  0  0  0  0
    8.9905    8.7474   -8.9291 H   0  0  0  0  0  0  0  0  0  0  0  0
  2  1  1  0
  3  2  2  0
  4  3  1  0
  5  4  2  0
  6  5  1  0
  7  6  1  0
  8  7  1  0
  9  8  1  0
 10  9  1  0
 11 10  1  0
 12 11  1  0
 13 12  1  0
 14 13  1  0
 15 14  2  0
 16 15  1  0
 17 13  1  0
 17 16  2  0
 18  7  2  0
 19 18  1  0
 20 19  2  0
 21  5  1  0
 21 19  1  0
 22  2  1  0
 22 21  2  0
 23  1  1  0
 24  1  1  0
 25  1  1  0
 26  3  1  0
 27  4  1  0
 28  8  1  0
 29  8  1  0
 30  9  1  0
 31 10  1  0
 32 10  1  0
 33 11  1  0
 34 11  1  0
 35 12  1  0
 36 12  1  0
 37 14  1  0
 38 15  1  0
 39 17  1  0
 40 18  1  0
 41 22  1  0
 42  6  1  0
 43  9  1  0
M  CHG  1   9   1
M  END
>  <b_m_subgroup_collapsed>  (578) 
0

>  <r_i_docking_score>  (578) 
-7.7326063165422001

>  <s_m_subgroup_title>  (578) 
glide-dock_SP_D22_pv

>  <s_m_subgroupid>  (578) 
glide-dock_SP_D22_pv

>  <Molecule ChEMBL ID>  (578) 
CHEMBL5723000

>  <Standard Type>  (578) 
Ki

>  <Standard Value>  (578) 
10000.0

>  <label>  (578) 
0

$$$$
CHEMBL3780438
     RDKit          3D

 47 48  0  0  1  0  0  0  0  0999 V2000
   12.0806    6.1733   -2.6729 C   0  0  0  0  0  0  0  0  0  0  0  0
   12.2714    7.5403   -2.9747 O   0  0  0  0  0  0  0  0  0  0  0  0
   11.6859    8.0325   -4.1216 C   0  0  0  0  0  0  0  0  0  0  0  0
   11.2906    7.2349   -5.2287 C   0  0  0  0  0  0  0  0  0  0  0  0
   10.7464    7.8276   -6.3898 C   0  0  0  0  0  0  0  0  0  0  0  0
   10.4087    6.9752   -7.6055 C   0  0  0  0  0  0  0  0  0  0  0  0
    8.9239    7.0622   -8.0343 C   0  0  0  0  0  0  0  0  0  0  0  0
    8.5666    6.1981   -9.1953 N   0  0  2  0  0  0  0  0  0  0  0  0
    8.7285    4.7539   -8.9113 C   0  0  0  0  0  0  0  0  0  0  0  0
    9.1455    6.6570  -10.4941 C   0  0  0  0  0  0  0  0  0  0  0  0
    8.7221    5.8341  -11.7186 C   0  0  0  0  0  0  0  0  0  0  0  0
    7.3899    5.3724  -11.8176 C   0  0  0  0  0  0  0  0  0  0  0  0
    6.9959    4.5285  -12.8646 C   0  0  0  0  0  0  0  0  0  0  0  0
    7.9298    4.1695  -13.8469 C   0  0  0  0  0  0  0  0  0  0  0  0
    9.2365    4.6927  -13.8234 C   0  0  0  0  0  0  0  0  0  0  0  0
   10.0346    4.3476  -14.8756 O   0  0  0  0  0  0  0  0  0  0  0  0
    9.6527    5.5468  -12.7554 C   0  0  0  0  0  0  0  0  0  0  0  0
   10.8854    6.1720  -12.6473 O   0  0  0  0  0  0  0  0  0  0  0  0
   11.9751    5.8386  -13.4920 C   0  0  0  0  0  0  0  0  0  0  0  0
   10.5632    9.2239   -6.4297 C   0  0  0  0  0  0  0  0  0  0  0  0
   10.8885   10.0151   -5.3124 C   0  0  0  0  0  0  0  0  0  0  0  0
   11.4376    9.4191   -4.1615 C   0  0  0  0  0  0  0  0  0  0  0  0
   11.6864   10.1722   -3.0496 O   0  0  0  0  0  0  0  0  0  0  0  0
   12.5907    5.9286   -1.7429 H   0  0  0  0  0  0  0  0  0  0  0  0
   11.0197    5.9666   -2.5414 H   0  0  0  0  0  0  0  0  0  0  0  0
   12.4864    5.5295   -3.4476 H   0  0  0  0  0  0  0  0  0  0  0  0
   11.4428    6.1679   -5.2220 H   0  0  0  0  0  0  0  0  0  0  0  0
   11.0602    7.3000   -8.4164 H   0  0  0  0  0  0  0  0  0  0  0  0
   10.6807    5.9409   -7.3926 H   0  0  0  0  0  0  0  0  0  0  0  0
    8.2886    6.7858   -7.1910 H   0  0  0  0  0  0  0  0  0  0  0  0
    8.6584    8.0917   -8.2775 H   0  0  0  0  0  0  0  0  0  0  0  0
    9.7685    4.4371   -9.0027 H   0  0  0  0  0  0  0  0  0  0  0  0
    8.3757    4.5100   -7.9095 H   0  0  0  0  0  0  0  0  0  0  0  0
    8.1271    4.1723   -9.6027 H   0  0  0  0  0  0  0  0  0  0  0  0
    8.8778    7.6995  -10.6698 H   0  0  0  0  0  0  0  0  0  0  0  0
   10.2297    6.6312  -10.4004 H   0  0  0  0  0  0  0  0  0  0  0  0
    6.6633    5.6405  -11.0633 H   0  0  0  0  0  0  0  0  0  0  0  0
    5.9840    4.1520  -12.9080 H   0  0  0  0  0  0  0  0  0  0  0  0
    7.6285    3.5104  -14.6466 H   0  0  0  0  0  0  0  0  0  0  0  0
   10.8827    4.7595  -14.8509 H   0  0  0  0  0  0  0  0  0  0  0  0
   12.8677    6.3613  -13.1447 H   0  0  0  0  0  0  0  0  0  0  0  0
   12.1948    4.7712  -13.4655 H   0  0  0  0  0  0  0  0  0  0  0  0
   11.7985    6.1621  -14.5178 H   0  0  0  0  0  0  0  0  0  0  0  0
   10.1573    9.6946   -7.3129 H   0  0  0  0  0  0  0  0  0  0  0  0
   10.7095   11.0786   -5.3404 H   0  0  0  0  0  0  0  0  0  0  0  0
   11.4698   11.0924   -3.1186 H   0  0  0  0  0  0  0  0  0  0  0  0
    7.5706    6.3695   -9.3082 H   0  0  0  0  0  0  0  0  0  0  0  0
  2  1  1  0
  3  2  1  0
  4  3  1  0
  5  4  2  0
  6  5  1  0
  7  6  1  0
  8  7  1  0
  9  8  1  0
 10  8  1  0
 11 10  1  0
 12 11  2  0
 13 12  1  0
 14 13  2  0
 15 14  1  0
 16 15  1  0
 17 11  1  0
 17 15  2  0
 18 17  1  0
 19 18  1  0
 20  5  1  0
 21 20  2  0
 22  3  2  0
 22 21  1  0
 23 22  1  0
 24  1  1  0
 25  1  1  0
 26  1  1  0
 27  4  1  0
 28  6  1  0
 29  6  1  0
 30  7  1  0
 31  7  1  0
 32  9  1  0
 33  9  1  0
 34  9  1  0
 35 10  1  0
 36 10  1  0
 37 12  1  0
 38 13  1  0
 39 14  1  0
 40 16  1  0
 41 19  1  0
 42 19  1  0
 43 19  1  0
 44 20  1  0
 45 21  1  0
 46 23  1  0
  8 47  1  6
M  CHG  1   8   1
M  END
>  <b_m_subgroup_collapsed>  (579) 
0

>  <r_i_docking_score>  (579) 
-7.7310620034156896

>  <s_m_subgroup_title>  (579) 
glide-dock_SP_D22_pv

>  <s_m_subgroupid>  (579) 
glide-dock_SP_D22_pv

>  <Molecule ChEMBL ID>  (579) 
CHEMBL3780438

>  <Standard Type>  (579) 
Ki

>  <Standard Value>  (579) 
10000.0

>  <label>  (579) 
0

$$$$
CHEMBL3084517
     RDKit          3D

 49 53  0  0  1  0  0  0  0  0999 V2000
   11.1829    7.0066  -11.8097 O   0  0  0  0  0  0  0  0  0  0  0  0
    9.9051    6.7344  -11.2763 C   0  0  1  0  0  0  0  0  0  0  0  0
    9.0759    5.7706  -12.1739 C   0  0  0  0  0  0  0  0  0  0  0  0
    7.7072    5.6240  -11.8457 C   0  0  0  0  0  0  0  0  0  0  0  0
    6.8522    4.7531  -12.5361 C   0  0  0  0  0  0  0  0  0  0  0  0
    7.3603    3.9782  -13.5851 C   0  0  0  0  0  0  0  0  0  0  0  0
    8.7161    4.0752  -13.9323 C   0  0  0  0  0  0  0  0  0  0  0  0
    9.2997    3.0757  -15.2165 Cl  0  0  0  0  0  0  0  0  0  0  0  0
    9.5846    4.9598  -13.2453 C   0  0  0  0  0  0  0  0  0  0  0  0
   11.2416    4.9573  -13.7616 Cl  0  0  0  0  0  0  0  0  0  0  0  0
   10.0817    6.0902   -9.8616 C   0  0  0  0  0  0  0  0  0  0  0  0
   10.4334    7.0329   -8.7133 C   0  0  1  0  0  0  0  0  0  0  0  0
   11.6883    7.8897   -8.9917 C   0  0  0  0  0  0  0  0  0  0  0  0
   11.1268    9.1542   -9.6552 C   0  0  0  0  0  0  0  0  0  0  0  0
    9.6191    8.8775   -9.7809 C   0  0  1  0  0  0  0  0  0  0  0  0
    9.2851    8.1645  -11.1356 C   0  0  0  0  0  0  0  0  0  0  0  0
    9.3266    7.9777   -8.6446 N   0  0  2  0  0  0  0  0  0  0  0  0
    9.0879    8.5711   -7.2989 C   0  0  0  0  0  0  0  0  0  0  0  0
   10.2747    8.9720   -6.4163 C   0  0  0  0  0  0  0  0  0  0  0  0
   10.8864   10.1960   -6.2447 C   0  0  0  0  0  0  0  0  0  0  0  0
   11.6883   10.2701   -5.1744 O   0  0  0  0  0  0  0  0  0  0  0  0
   11.7531    9.0218   -4.6627 C   0  0  0  0  0  0  0  0  0  0  0  0
   12.4864    8.6378   -3.5377 C   0  0  0  0  0  0  0  0  0  0  0  0
   12.4690    7.2874   -3.1859 C   0  0  0  0  0  0  0  0  0  0  0  0
   11.6830    6.4027   -3.9356 C   0  0  0  0  0  0  0  0  0  0  0  0
   10.9138    6.8157   -5.0394 C   0  0  0  0  0  0  0  0  0  0  0  0
   10.9404    8.1577   -5.4401 C   0  0  0  0  0  0  0  0  0  0  0  0
   11.6296    7.6222  -11.2521 H   0  0  0  0  0  0  0  0  0  0  0  0
    7.2869    6.1700  -11.0179 H   0  0  0  0  0  0  0  0  0  0  0  0
    5.8139    4.6709  -12.2466 H   0  0  0  0  0  0  0  0  0  0  0  0
    6.7101    3.2987  -14.1176 H   0  0  0  0  0  0  0  0  0  0  0  0
    9.1786    5.5477   -9.5776 H   0  0  0  0  0  0  0  0  0  0  0  0
   10.8679    5.3714   -9.8469 H   0  0  0  0  0  0  0  0  0  0  0  0
   10.5374    6.4481   -7.7999 H   0  0  0  0  0  0  0  0  0  0  0  0
   12.4259    7.3795   -9.6086 H   0  0  0  0  0  0  0  0  0  0  0  0
   12.2051    8.1500   -8.0689 H   0  0  0  0  0  0  0  0  0  0  0  0
   11.6036    9.3836  -10.6085 H   0  0  0  0  0  0  0  0  0  0  0  0
   11.2867   10.0152   -9.0117 H   0  0  0  0  0  0  0  0  0  0  0  0
    9.0146    9.7724   -9.7137 H   0  0  0  0  0  0  0  0  0  0  0  0
    9.5885    8.7943  -11.9735 H   0  0  0  0  0  0  0  0  0  0  0  0
    8.2116    8.1320  -11.2636 H   0  0  0  0  0  0  0  0  0  0  0  0
    8.3800    9.3724   -7.4452 H   0  0  0  0  0  0  0  0  0  0  0  0
    8.5115    7.8239   -6.7516 H   0  0  0  0  0  0  0  0  0  0  0  0
   10.7845   11.1816   -6.6470 H   0  0  0  0  0  0  0  0  0  0  0  0
   13.0816    9.3554   -2.9885 H   0  0  0  0  0  0  0  0  0  0  0  0
   13.0431    6.9079   -2.3609 H   0  0  0  0  0  0  0  0  0  0  0  0
   11.6867    5.3736   -3.6456 H   0  0  0  0  0  0  0  0  0  0  0  0
   10.2882    6.1129   -5.5618 H   0  0  0  0  0  0  0  0  0  0  0  0
    8.4558    7.5046   -8.8703 H   0  0  0  0  0  0  0  0  0  0  0  0
  2  1  1  6
  3  2  1  0
  4  3  2  0
  5  4  1  0
  6  5  2  0
  7  6  1  0
  8  7  1  0
  9  3  1  0
  9  7  2  0
 10  9  1  0
 11  2  1  0
 12 11  1  0
 13 12  1  0
 14 13  1  0
 15 14  1  0
 16  2  1  0
 16 15  1  0
 17 12  1  0
 17 15  1  0
 18 17  1  0
 19 18  1  0
 20 19  2  0
 21 20  1  0
 22 21  1  0
 23 22  2  0
 24 23  1  0
 25 24  2  0
 26 25  1  0
 27 19  1  0
 27 22  1  0
 27 26  2  0
 28  1  1  0
 29  4  1  0
 30  5  1  0
 31  6  1  0
 32 11  1  0
 33 11  1  0
 12 34  1  1
 35 13  1  0
 36 13  1  0
 37 14  1  0
 38 14  1  0
 15 39  1  1
 40 16  1  0
 41 16  1  0
 42 18  1  0
 43 18  1  0
 44 20  1  0
 45 23  1  0
 46 24  1  0
 47 25  1  0
 48 26  1  0
 17 49  1  6
M  CHG  1  17   1
M  END
>  <b_m_subgroup_collapsed>  (580) 
0

>  <r_i_docking_score>  (580) 
-7.7267866139061399

>  <s_m_subgroup_title>  (580) 
glide-dock_SP_D22_pv

>  <s_m_subgroupid>  (580) 
glide-dock_SP_D22_pv

>  <Molecule ChEMBL ID>  (580) 
CHEMBL3084517

>  <Standard Type>  (580) 
Ki

>  <Standard Value>  (580) 
40.1

>  <label>  (580) 
1

$$$$
CHEMBL122758
     RDKit          3D

 52 55  0  0  1  0  0  0  0  0999 V2000
    9.5555    9.0061   -8.1945 O   0  0  0  0  0  0  0  0  0  0  0  0
   10.2429    8.9100   -6.9648 C   0  0  2  0  0  0  0  0  0  0  0  0
   11.5073    9.7284   -6.9940 C   0  0  0  0  0  0  0  0  0  0  0  0
   11.8951   10.1090   -5.5760 C   0  0  0  0  0  0  0  0  0  0  0  0
   11.8661    8.9038   -4.6587 C   0  0  0  0  0  0  0  0  0  0  0  0
   12.4317    9.0428   -3.3749 C   0  0  0  0  0  0  0  0  0  0  0  0
   12.4770    7.9513   -2.4945 C   0  0  0  0  0  0  0  0  0  0  0  0
   11.9880    6.7051   -2.9143 C   0  0  0  0  0  0  0  0  0  0  0  0
   11.4057    6.5723   -4.1890 C   0  0  0  0  0  0  0  0  0  0  0  0
   11.2860    7.6664   -5.0704 C   0  0  0  0  0  0  0  0  0  0  0  0
   10.5431    7.5016   -6.4305 C   0  0  1  0  0  0  0  0  0  0  0  0
    9.1584    6.8274   -6.2729 C   0  0  0  0  0  0  0  0  0  0  0  0
    8.5149    6.2186   -7.5555 C   0  0  0  0  0  0  0  0  0  0  0  0
    9.4938    5.4705   -8.3759 N   0  0  1  0  0  0  0  0  0  0  0  0
    8.9441    4.7754   -9.5677 C   0  0  0  0  0  0  0  0  0  0  0  0
    8.7070    5.6819  -10.7965 C   0  0  0  0  0  0  0  0  0  0  0  0
    8.0827    4.9158  -11.9442 C   0  0  0  0  0  0  0  0  0  0  0  0
    6.6833    4.9162  -12.1166 C   0  0  0  0  0  0  0  0  0  0  0  0
    6.0946    4.1399  -13.1324 C   0  0  0  0  0  0  0  0  0  0  0  0
    6.9078    3.3723  -13.9881 C   0  0  0  0  0  0  0  0  0  0  0  0
    8.3090    3.4020  -13.8469 C   0  0  0  0  0  0  0  0  0  0  0  0
    8.8966    4.1723  -12.8245 C   0  0  0  0  0  0  0  0  0  0  0  0
   10.6684    6.2989   -8.6859 C   0  0  0  0  0  0  0  0  0  0  0  0
   11.4110    6.6506   -7.3911 C   0  0  0  0  0  0  0  0  0  0  0  0
    8.6400    8.8039   -8.0582 H   0  0  0  0  0  0  0  0  0  0  0  0
    9.5700    9.3723   -6.2487 H   0  0  0  0  0  0  0  0  0  0  0  0
   12.3302    9.2330   -7.5037 H   0  0  0  0  0  0  0  0  0  0  0  0
   11.2860   10.5739   -7.5832 H   0  0  0  0  0  0  0  0  0  0  0  0
   12.8861   10.5584   -5.5788 H   0  0  0  0  0  0  0  0  0  0  0  0
   11.2047   10.8577   -5.1848 H   0  0  0  0  0  0  0  0  0  0  0  0
   12.8359    9.9932   -3.0578 H   0  0  0  0  0  0  0  0  0  0  0  0
   12.8889    8.0696   -1.5040 H   0  0  0  0  0  0  0  0  0  0  0  0
   12.0353    5.8527   -2.2516 H   0  0  0  0  0  0  0  0  0  0  0  0
   11.0170    5.6164   -4.4786 H   0  0  0  0  0  0  0  0  0  0  0  0
    9.1942    6.0887   -5.4957 H   0  0  0  0  0  0  0  0  0  0  0  0
    8.4860    7.5731   -5.8696 H   0  0  0  0  0  0  0  0  0  0  0  0
    7.6860    5.5683   -7.2783 H   0  0  0  0  0  0  0  0  0  0  0  0
    8.0860    6.9973   -8.1775 H   0  0  0  0  0  0  0  0  0  0  0  0
    9.6694    4.0090   -9.8473 H   0  0  0  0  0  0  0  0  0  0  0  0
    8.0369    4.2444   -9.2876 H   0  0  0  0  0  0  0  0  0  0  0  0
    8.0860    6.5347  -10.5372 H   0  0  0  0  0  0  0  0  0  0  0  0
    9.6447    6.0995  -11.1625 H   0  0  0  0  0  0  0  0  0  0  0  0
    6.0575    5.4942  -11.4500 H   0  0  0  0  0  0  0  0  0  0  0  0
    5.0211    4.1294  -13.2513 H   0  0  0  0  0  0  0  0  0  0  0  0
    6.4585    2.7721  -14.7651 H   0  0  0  0  0  0  0  0  0  0  0  0
    8.9318    2.8196  -14.5099 H   0  0  0  0  0  0  0  0  0  0  0  0
    9.9702    4.1672  -12.7041 H   0  0  0  0  0  0  0  0  0  0  0  0
   11.2860    5.7723   -9.3809 H   0  0  0  0  0  0  0  0  0  0  0  0
   10.4053    7.1656   -9.2785 H   0  0  0  0  0  0  0  0  0  0  0  0
   12.3522    7.1393   -7.6277 H   0  0  0  0  0  0  0  0  0  0  0  0
   11.6961    5.7231   -6.8950 H   0  0  0  0  0  0  0  0  0  0  0  0
    9.8251    4.7301   -7.7758 H   0  0  0  0  0  0  0  0  0  0  0  0
  2  1  1  0
  3  2  1  0
  4  3  1  0
  5  4  1  0
  6  5  2  0
  7  6  1  0
  8  7  2  0
  9  8  1  0
 10  5  1  0
 10  9  2  0
 11  2  1  0
 11 10  1  0
 11 12  1  1
 13 12  1  0
 14 13  1  0
 15 14  1  0
 16 15  1  0
 17 16  1  0
 18 17  2  0
 19 18  1  0
 20 19  2  0
 21 20  1  0
 22 17  1  0
 22 21  2  0
 23 14  1  0
 24 11  1  0
 24 23  1  0
 25  1  1  0
  2 26  1  1
 27  3  1  0
 28  3  1  0
 29  4  1  0
 30  4  1  0
 31  6  1  0
 32  7  1  0
 33  8  1  0
 34  9  1  0
 35 12  1  0
 36 12  1  0
 37 13  1  0
 38 13  1  0
 39 15  1  0
 40 15  1  0
 41 16  1  0
 42 16  1  0
 43 18  1  0
 44 19  1  0
 45 20  1  0
 46 21  1  0
 47 22  1  0
 48 23  1  0
 49 23  1  0
 50 24  1  0
 51 24  1  0
 14 52  1  1
M  CHG  1  14   1
M  END
>  <b_m_subgroup_collapsed>  (581) 
0

>  <r_i_docking_score>  (581) 
-7.7264620988069401

>  <s_m_subgroup_title>  (581) 
glide-dock_SP_D22_pv

>  <s_m_subgroupid>  (581) 
glide-dock_SP_D22_pv

>  <Molecule ChEMBL ID>  (581) 
CHEMBL122758

>  <Standard Type>  (581) 
Ki

>  <Standard Value>  (581) 
10000.0

>  <label>  (581) 
0

$$$$
CHEMBL3759819
     RDKit          3D

 64 68  0  0  1  0  0  0  0  0999 V2000
   10.9680    4.7897  -16.9833 O   0  0  0  0  0  0  0  0  0  0  0  0
   11.0095    4.0844  -15.6944 S   0  0  0  0  0  0  0  0  0  0  0  0
   12.2930    3.7849  -15.0434 O   0  0  0  0  0  0  0  0  0  0  0  0
   10.0563    5.0054  -14.5902 N   0  0  0  0  0  0  0  0  0  0  0  0
   10.1574    4.8021  -13.1363 C   0  0  1  0  0  0  0  0  0  0  0  0
    9.9994    6.1575  -12.3999 C   0  0  0  0  0  0  0  0  0  0  0  0
    8.5560    6.4043  -11.8762 C   0  0  1  0  0  0  0  0  0  0  0  0
    7.5646    6.3823  -13.0467 C   0  0  0  0  0  0  0  0  0  0  0  0
    7.0027    4.9524  -13.0796 C   0  0  0  0  0  0  0  0  0  0  0  0
    7.8465    4.2192  -12.0411 C   0  0  1  0  0  0  0  0  0  0  0  0
    9.1878    3.6998  -12.6270 C   0  0  0  0  0  0  0  0  0  0  0  0
    8.0919    5.2728  -11.0505 N   0  0  1  0  0  0  0  0  0  0  0  0
    8.9074    4.9032   -9.8762 C   0  0  0  0  0  0  0  0  0  0  0  0
    8.4626    5.6867   -8.6655 C   0  0  0  0  0  0  0  0  0  0  0  0
    9.5359    5.6286   -7.7847 O   0  0  0  0  0  0  0  0  0  0  0  0
   10.2073    6.7886   -7.5924 C   0  0  0  0  0  0  0  0  0  0  0  0
   10.5338    7.7133   -8.6080 C   0  0  0  0  0  0  0  0  0  0  0  0
   11.2481    8.8755   -8.2707 C   0  0  0  0  0  0  0  0  0  0  0  0
   11.6204    9.1050   -6.9312 C   0  0  0  0  0  0  0  0  0  0  0  0
   11.2847    8.1695   -5.9253 C   0  0  0  0  0  0  0  0  0  0  0  0
   11.6881    8.3316   -4.5334 C   0  0  0  0  0  0  0  0  0  0  0  0
   11.6807    9.6078   -3.9577 C   0  0  0  0  0  0  0  0  0  0  0  0
   12.0861    9.7723   -2.6330 C   0  0  0  0  0  0  0  0  0  0  0  0
   12.4863    8.6769   -1.8484 C   0  0  0  0  0  0  0  0  0  0  0  0
   12.4762    7.3899   -2.4114 C   0  0  0  0  0  0  0  0  0  0  0  0
   12.0866    7.2231   -3.7497 C   0  0  0  0  0  0  0  0  0  0  0  0
   10.5796    7.0170   -6.2739 C   0  0  0  0  0  0  0  0  0  0  0  0
   10.0713    2.5742  -15.8447 C   0  0  0  0  0  0  0  0  0  0  0  0
   10.4272    1.4330  -15.0983 C   0  0  0  0  0  0  0  0  0  0  0  0
    9.6460    0.2657  -15.2024 C   0  0  0  0  0  0  0  0  0  0  0  0
    8.5123    0.2535  -16.0398 C   0  0  0  0  0  0  0  0  0  0  0  0
    8.1686    1.3936  -16.7901 C   0  0  0  0  0  0  0  0  0  0  0  0
    6.7817    1.3677  -17.8134 Cl  0  0  0  0  0  0  0  0  0  0  0  0
    8.9529    2.5570  -16.6994 C   0  0  0  0  0  0  0  0  0  0  0  0
   10.0928    5.9939  -14.8415 H   0  0  0  0  0  0  0  0  0  0  0  0
   11.1724    4.4583  -12.9421 H   0  0  0  0  0  0  0  0  0  0  0  0
   10.3204    6.9765  -13.0419 H   0  0  0  0  0  0  0  0  0  0  0  0
   10.7126    6.1982  -11.5813 H   0  0  0  0  0  0  0  0  0  0  0  0
    8.4965    7.3435  -11.3239 H   0  0  0  0  0  0  0  0  0  0  0  0
    8.0860    6.5786  -13.9773 H   0  0  0  0  0  0  0  0  0  0  0  0
    6.7700    7.1200  -12.9217 H   0  0  0  0  0  0  0  0  0  0  0  0
    7.0607    4.4897  -14.0670 H   0  0  0  0  0  0  0  0  0  0  0  0
    5.9534    4.9595  -12.7784 H   0  0  0  0  0  0  0  0  0  0  0  0
    7.2711    3.4116  -11.5944 H   0  0  0  0  0  0  0  0  0  0  0  0
    9.7032    3.1369  -11.8483 H   0  0  0  0  0  0  0  0  0  0  0  0
    8.9766    2.9700  -13.4054 H   0  0  0  0  0  0  0  0  0  0  0  0
    9.9818    5.0026  -10.0463 H   0  0  0  0  0  0  0  0  0  0  0  0
    8.7672    3.8663   -9.5756 H   0  0  0  0  0  0  0  0  0  0  0  0
    7.6857    5.1445   -8.1496 H   0  0  0  0  0  0  0  0  0  0  0  0
    8.0862    6.6869   -8.8822 H   0  0  0  0  0  0  0  0  0  0  0  0
   10.2547    7.5394   -9.6349 H   0  0  0  0  0  0  0  0  0  0  0  0
   11.5145    9.5847   -9.0411 H   0  0  0  0  0  0  0  0  0  0  0  0
   12.1858    9.9917   -6.6814 H   0  0  0  0  0  0  0  0  0  0  0  0
   11.3613   10.4689   -4.5261 H   0  0  0  0  0  0  0  0  0  0  0  0
   12.0862   10.7750   -2.2441 H   0  0  0  0  0  0  0  0  0  0  0  0
   12.8006    8.8300   -0.8300 H   0  0  0  0  0  0  0  0  0  0  0  0
   12.7755    6.5301   -1.8295 H   0  0  0  0  0  0  0  0  0  0  0  0
   12.0968    6.2270   -4.1686 H   0  0  0  0  0  0  0  0  0  0  0  0
   10.3002    6.2910   -5.5233 H   0  0  0  0  0  0  0  0  0  0  0  0
   11.2743    1.4571  -14.4310 H   0  0  0  0  0  0  0  0  0  0  0  0
    9.9053   -0.6149  -14.6328 H   0  0  0  0  0  0  0  0  0  0  0  0
    7.8941   -0.6269  -16.1058 H   0  0  0  0  0  0  0  0  0  0  0  0
    8.6908    3.4348  -17.2712 H   0  0  0  0  0  0  0  0  0  0  0  0
    7.1821    5.5428  -10.6903 H   0  0  0  0  0  0  0  0  0  0  0  0
  2  1  2  0
  3  2  2  0
  4  2  1  0
  5  4  1  0
  6  5  1  0
  7  6  1  0
  8  7  1  0
  9  8  1  0
 10  9  1  0
 11  5  1  0
 11 10  1  0
 12  7  1  0
 12 10  1  0
 13 12  1  0
 14 13  1  0
 15 14  1  0
 16 15  1  0
 17 16  1  0
 18 17  2  0
 19 18  1  0
 20 19  2  0
 21 20  1  0
 22 21  2  0
 23 22  1  0
 24 23  2  0
 25 24  1  0
 26 21  1  0
 26 25  2  0
 27 16  2  0
 27 20  1  0
 28  2  1  0
 29 28  2  0
 30 29  1  0
 31 30  2  0
 32 31  1  0
 33 32  1  0
 34 28  1  0
 34 32  2  0
 35  4  1  0
  5 36  1  6
 37  6  1  0
 38  6  1  0
  7 39  1  1
 40  8  1  0
 41  8  1  0
 42  9  1  0
 43  9  1  0
 10 44  1  1
 45 11  1  0
 46 11  1  0
 47 13  1  0
 48 13  1  0
 49 14  1  0
 50 14  1  0
 51 17  1  0
 52 18  1  0
 53 19  1  0
 54 22  1  0
 55 23  1  0
 56 24  1  0
 57 25  1  0
 58 26  1  0
 59 27  1  0
 60 29  1  0
 61 30  1  0
 62 31  1  0
 63 34  1  0
 12 64  1  1
M  CHG  1  12   1
M  END
>  <b_m_subgroup_collapsed>  (582) 
0

>  <r_i_docking_score>  (582) 
-7.7249114532240402

>  <s_m_subgroup_title>  (582) 
glide-dock_SP_D22_pv

>  <s_m_subgroupid>  (582) 
glide-dock_SP_D22_pv

>  <Molecule ChEMBL ID>  (582) 
CHEMBL3759819

>  <Standard Type>  (582) 
Ki

>  <Standard Value>  (582) 
94.0

>  <label>  (582) 
1

$$$$
CHEMBL6044314
     RDKit          3D

 63 67  0  0  1  0  0  0  0  0999 V2000
    9.1253    5.0995   -9.6786 C   0  0  0  0  0  0  0  0  0  0  0  0
    9.2858    6.4253  -10.2551 N   0  0  0  0  0  0  0  0  0  0  0  0
    8.9483    6.8225  -11.4949 C   0  0  0  0  0  0  0  0  0  0  0  0
    8.1575    5.7618  -12.6506 S   0  0  0  0  0  0  0  0  0  0  0  0
    9.6596    5.1150  -13.4290 C   0  0  0  0  0  0  0  0  0  0  0  0
    9.3424    4.5418  -14.8107 C   0  0  0  0  0  0  0  0  0  0  0  0
   10.5912    4.0037  -15.5250 C   0  0  0  0  0  0  0  0  0  0  0  0
   10.3197    3.3498  -16.8043 N   0  0  0  0  0  0  0  0  0  0  0  0
    9.8073    4.2783  -17.8091 C   0  0  0  0  0  0  0  0  0  0  0  0
    9.5247    3.5681  -19.1421 C   0  0  0  0  0  0  0  0  0  0  0  0
   10.7249    2.9624  -19.6095 O   0  0  0  0  0  0  0  0  0  0  0  0
   11.2784    2.0229  -18.6901 C   0  0  1  0  0  0  0  0  0  0  0  0
   12.5689    1.4496  -19.2477 C   0  0  0  0  0  0  0  0  0  0  0  0
   13.5613    2.3258  -19.7281 C   0  0  0  0  0  0  0  0  0  0  0  0
   14.7653    1.8167  -20.2465 C   0  0  0  0  0  0  0  0  0  0  0  0
   14.9810    0.4255  -20.2945 C   0  0  0  0  0  0  0  0  0  0  0  0
   16.2835   -0.1172  -20.8477 C   0  0  0  0  0  0  0  0  0  0  0  0
   17.1545   -0.2287  -19.8457 F   0  0  0  0  0  0  0  0  0  0  0  0
   16.0841   -1.3127  -21.4056 F   0  0  0  0  0  0  0  0  0  0  0  0
   16.7913    0.6969  -21.7743 F   0  0  0  0  0  0  0  0  0  0  0  0
   13.9909   -0.4542  -19.8028 C   0  0  0  0  0  0  0  0  0  0  0  0
   12.7881    0.0559  -19.2769 C   0  0  0  0  0  0  0  0  0  0  0  0
   11.5220    2.7114  -17.3284 C   0  0  0  0  0  0  0  0  0  0  0  0
    9.2826    8.0804  -11.7730 N   0  0  0  0  0  0  0  0  0  0  0  0
    9.8166    8.5720  -10.6101 N   0  0  0  0  0  0  0  0  0  0  0  0
    9.7734    7.5738   -9.7199 C   0  0  0  0  0  0  0  0  0  0  0  0
   10.2277    7.7654   -8.3406 C   0  0  0  0  0  0  0  0  0  0  0  0
    9.6747    7.0243   -7.2739 C   0  0  0  0  0  0  0  0  0  0  0  0
   10.1638    7.1858   -5.9668 C   0  0  0  0  0  0  0  0  0  0  0  0
   11.1680    8.1376   -5.6959 C   0  0  0  0  0  0  0  0  0  0  0  0
   11.6866    8.2746   -4.3478 C   0  0  0  0  0  0  0  0  0  0  0  0
   12.0903    9.3723   -3.7136 N   0  0  0  0  0  0  0  0  0  0  0  0
   12.4827    8.9397   -2.4534 C   0  0  0  0  0  0  0  0  0  0  0  0
   12.3104    7.5811   -2.4053 C   0  0  0  0  0  0  0  0  0  0  0  0
   11.7953    7.1468   -3.5925 O   0  0  0  0  0  0  0  0  0  0  0  0
   11.6861    8.9240   -6.7453 C   0  0  0  0  0  0  0  0  0  0  0  0
   11.2350    8.7200   -8.0635 C   0  0  0  0  0  0  0  0  0  0  0  0
    9.2545    4.3349  -10.4441 H   0  0  0  0  0  0  0  0  0  0  0  0
    9.8703    4.9265   -8.9012 H   0  0  0  0  0  0  0  0  0  0  0  0
    8.1251    5.0035   -9.2532 H   0  0  0  0  0  0  0  0  0  0  0  0
   10.3911    5.9202  -13.5216 H   0  0  0  0  0  0  0  0  0  0  0  0
   10.0989    4.3541  -12.7812 H   0  0  0  0  0  0  0  0  0  0  0  0
    8.6001    3.7457  -14.7154 H   0  0  0  0  0  0  0  0  0  0  0  0
    8.8841    5.3361  -15.4007 H   0  0  0  0  0  0  0  0  0  0  0  0
   11.3097    4.8138  -15.6665 H   0  0  0  0  0  0  0  0  0  0  0  0
   11.0743    3.2854  -14.8593 H   0  0  0  0  0  0  0  0  0  0  0  0
    8.8865    4.7459  -17.4683 H   0  0  0  0  0  0  0  0  0  0  0  0
   10.5213    5.0864  -17.9743 H   0  0  0  0  0  0  0  0  0  0  0  0
    8.7458    2.8123  -19.0227 H   0  0  0  0  0  0  0  0  0  0  0  0
    9.1692    4.2811  -19.8863 H   0  0  0  0  0  0  0  0  0  0  0  0
   10.5636    1.2099  -18.5596 H   0  0  0  0  0  0  0  0  0  0  0  0
   13.3986    3.3940  -19.7045 H   0  0  0  0  0  0  0  0  0  0  0  0
   15.5188    2.4994  -20.6128 H   0  0  0  0  0  0  0  0  0  0  0  0
   14.1573   -1.5221  -19.8221 H   0  0  0  0  0  0  0  0  0  0  0  0
   12.0374   -0.6240  -18.9022 H   0  0  0  0  0  0  0  0  0  0  0  0
   12.3101    3.4567  -17.4382 H   0  0  0  0  0  0  0  0  0  0  0  0
   11.8925    1.9742  -16.6146 H   0  0  0  0  0  0  0  0  0  0  0  0
    8.8693    6.3204   -7.4436 H   0  0  0  0  0  0  0  0  0  0  0  0
    9.7515    6.5802   -5.1726 H   0  0  0  0  0  0  0  0  0  0  0  0
   12.8504    9.6161   -1.6995 H   0  0  0  0  0  0  0  0  0  0  0  0
   12.4843    6.8239   -1.6563 H   0  0  0  0  0  0  0  0  0  0  0  0
   12.4616    9.6523   -6.5477 H   0  0  0  0  0  0  0  0  0  0  0  0
   11.6666    9.3082   -8.8626 H   0  0  0  0  0  0  0  0  0  0  0  0
  2  1  1  0
  3  2  1  0
  4  3  1  0
  5  4  1  0
  6  5  1  0
  7  6  1  0
  8  7  1  0
  9  8  1  0
 10  9  1  0
 11 10  1  0
 12 11  1  0
 13 12  1  0
 14 13  1  0
 15 14  2  0
 16 15  1  0
 17 16  1  0
 18 17  1  0
 19 17  1  0
 20 17  1  0
 21 16  2  0
 22 13  2  0
 22 21  1  0
 23  8  1  0
 23 12  1  0
 24  3  2  0
 25 24  1  0
 26  2  1  0
 26 25  2  0
 27 26  1  0
 28 27  1  0
 29 28  2  0
 30 29  1  0
 31 30  1  0
 32 31  2  0
 33 32  1  0
 34 33  2  0
 35 31  1  0
 35 34  1  0
 36 30  2  0
 37 27  2  0
 37 36  1  0
 38  1  1  0
 39  1  1  0
 40  1  1  0
 41  5  1  0
 42  5  1  0
 43  6  1  0
 44  6  1  0
 45  7  1  0
 46  7  1  0
 47  9  1  0
 48  9  1  0
 49 10  1  0
 50 10  1  0
 12 51  1  1
 52 14  1  0
 53 15  1  0
 54 21  1  0
 55 22  1  0
 56 23  1  0
 57 23  1  0
 58 28  1  0
 59 29  1  0
 60 33  1  0
 61 34  1  0
 62 36  1  0
 63 37  1  0
M  END
>  <b_m_subgroup_collapsed>  (583) 
0

>  <r_i_docking_score>  (583) 
-7.7238534992657497

>  <s_m_subgroup_title>  (583) 
glide-dock_SP_D22_pv

>  <s_m_subgroupid>  (583) 
glide-dock_SP_D22_pv

>  <Molecule ChEMBL ID>  (583) 
CHEMBL6044314

>  <Standard Type>  (583) 
Ki

>  <Standard Value>  (583) 
15488.0

>  <label>  (583) 
0

$$$$
CHEMBL2207487
     RDKit          3D

 40 42  0  0  1  0  0  0  0  0999 V2000
    6.8640    4.2900  -12.5182 C   0  0  0  0  0  0  0  0  0  0  0  0
    7.2850    5.3606  -11.5046 C   0  0  0  0  0  0  0  0  0  0  0  0
    8.2000    4.8079  -10.4044 C   0  0  0  0  0  0  0  0  0  0  0  0
    8.6459    5.8715   -9.4684 N   0  0  2  0  0  0  0  0  0  0  0  0
   10.0541    6.2475   -9.7385 C   0  0  0  0  0  0  0  0  0  0  0  0
   10.5388    7.3670   -8.8227 C   0  0  0  0  0  0  0  0  0  0  0  0
   10.4241    6.9592   -7.3363 C   0  0  1  0  0  0  0  0  0  0  0  0
   10.8632    8.0490   -6.3965 C   0  0  0  0  0  0  0  0  0  0  0  0
   10.7963    9.3735   -6.7316 C   0  0  0  0  0  0  0  0  0  0  0  0
   11.2860   10.4797   -5.5028 S   0  0  0  0  0  0  0  0  0  0  0  0
   11.6328    9.1584   -4.4133 C   0  0  0  0  0  0  0  0  0  0  0  0
   12.0921    9.2549   -3.0876 C   0  0  0  0  0  0  0  0  0  0  0  0
   12.3207    8.0892   -2.3399 C   0  0  0  0  0  0  0  0  0  0  0  0
   12.0858    6.8350   -2.9264 C   0  0  0  0  0  0  0  0  0  0  0  0
   11.6210    6.7493   -4.2529 C   0  0  0  0  0  0  0  0  0  0  0  0
   11.3664    7.8964   -5.0397 C   0  0  0  0  0  0  0  0  0  0  0  0
    8.9646    6.5736   -7.0638 C   0  0  0  0  0  0  0  0  0  0  0  0
    8.4518    5.5014   -8.0407 C   0  0  0  0  0  0  0  0  0  0  0  0
    6.2129    4.7157  -13.2834 H   0  0  0  0  0  0  0  0  0  0  0  0
    7.7289    3.8576  -13.0204 H   0  0  0  0  0  0  0  0  0  0  0  0
    6.3173    3.4807  -12.0310 H   0  0  0  0  0  0  0  0  0  0  0  0
    6.3847    5.7723  -11.0505 H   0  0  0  0  0  0  0  0  0  0  0  0
    7.7766    6.1819  -12.0270 H   0  0  0  0  0  0  0  0  0  0  0  0
    9.0570    4.3093  -10.8593 H   0  0  0  0  0  0  0  0  0  0  0  0
    7.6860    4.0250   -9.8548 H   0  0  0  0  0  0  0  0  0  0  0  0
   10.1745    6.5343  -10.7838 H   0  0  0  0  0  0  0  0  0  0  0  0
   10.6690    5.3723   -9.5573 H   0  0  0  0  0  0  0  0  0  0  0  0
    9.9327    8.2459   -9.0453 H   0  0  0  0  0  0  0  0  0  0  0  0
   11.5714    7.6208   -9.0641 H   0  0  0  0  0  0  0  0  0  0  0  0
   11.0511    6.0806   -7.1746 H   0  0  0  0  0  0  0  0  0  0  0  0
   10.4512    9.7723   -7.6674 H   0  0  0  0  0  0  0  0  0  0  0  0
   12.2701   10.2241   -2.6464 H   0  0  0  0  0  0  0  0  0  0  0  0
   12.6703    8.1625   -1.3206 H   0  0  0  0  0  0  0  0  0  0  0  0
   12.2521    5.9315   -2.3561 H   0  0  0  0  0  0  0  0  0  0  0  0
   11.4294    5.7783   -4.6790 H   0  0  0  0  0  0  0  0  0  0  0  0
    8.8715    6.2066   -6.0422 H   0  0  0  0  0  0  0  0  0  0  0  0
    8.3297    7.4583   -7.1295 H   0  0  0  0  0  0  0  0  0  0  0  0
    7.3917    5.3666   -7.8470 H   0  0  0  0  0  0  0  0  0  0  0  0
    8.9482    4.5499   -7.8469 H   0  0  0  0  0  0  0  0  0  0  0  0
    8.0435    6.6744   -9.6382 H   0  0  0  0  0  0  0  0  0  0  0  0
  2  1  1  0
  3  2  1  0
  4  3  1  0
  5  4  1  0
  6  5  1  0
  7  6  1  0
  8  7  1  0
  9  8  2  0
 10  9  1  0
 11 10  1  0
 12 11  2  0
 13 12  1  0
 14 13  2  0
 15 14  1  0
 16  8  1  0
 16 11  1  0
 16 15  2  0
 17  7  1  0
 18  4  1  0
 18 17  1  0
 19  1  1  0
 20  1  1  0
 21  1  1  0
 22  2  1  0
 23  2  1  0
 24  3  1  0
 25  3  1  0
 26  5  1  0
 27  5  1  0
 28  6  1  0
 29  6  1  0
  7 30  1  6
 31  9  1  0
 32 12  1  0
 33 13  1  0
 34 14  1  0
 35 15  1  0
 36 17  1  0
 37 17  1  0
 38 18  1  0
 39 18  1  0
  4 40  1  6
M  CHG  1   4   1
M  END
>  <b_m_subgroup_collapsed>  (584) 
0

>  <r_i_docking_score>  (584) 
-7.7235040708353502

>  <s_m_subgroup_title>  (584) 
glide-dock_SP_D22_pv

>  <s_m_subgroupid>  (584) 
glide-dock_SP_D22_pv

>  <Molecule ChEMBL ID>  (584) 
CHEMBL2207487

>  <Standard Type>  (584) 
Ki

>  <Standard Value>  (584) 
26.0

>  <label>  (584) 
1

$$$$
CHEMBL29529
     RDKit          3D

 52 55  0  0  1  0  0  0  0  0999 V2000
   10.9473    6.8826  -12.5959 O   0  0  0  0  0  0  0  0  0  0  0  0
    9.8356    6.4762  -12.2527 C   0  0  0  0  0  0  0  0  0  0  0  0
    9.0676    7.1964  -11.4168 N   0  0  0  0  0  0  0  0  0  0  0  0
    9.3582    8.5722  -11.0255 C   0  0  0  0  0  0  0  0  0  0  0  0
   10.5965    8.6797  -10.1210 C   0  0  0  0  0  0  0  0  0  0  0  0
   10.2885    8.0579   -8.8401 N   0  0  0  0  0  0  0  0  0  0  0  0
   11.4490    7.3243   -8.3444 C   0  0  0  0  0  0  0  0  0  0  0  0
   11.1237    6.6313   -7.0050 C   0  0  0  0  0  0  0  0  0  0  0  0
   10.6336    7.6216   -6.0576 N   0  0  0  0  0  0  0  0  0  0  0  0
   11.2861    7.8695   -4.8408 C   0  0  0  0  0  0  0  0  0  0  0  0
   11.4953    9.1836   -4.3663 C   0  0  0  0  0  0  0  0  0  0  0  0
   12.0862    9.3977   -3.1062 C   0  0  0  0  0  0  0  0  0  0  0  0
   12.4846    8.3074   -2.3121 C   0  0  0  0  0  0  0  0  0  0  0  0
   12.2774    6.9971   -2.7761 C   0  0  0  0  0  0  0  0  0  0  0  0
   11.6861    6.7829   -4.0348 C   0  0  0  0  0  0  0  0  0  0  0  0
    9.5332    8.4462   -6.5390 C   0  0  0  0  0  0  0  0  0  0  0  0
    9.9059    9.0843   -7.8763 C   0  0  0  0  0  0  0  0  0  0  0  0
    9.2158    5.2155  -12.8433 C   0  0  0  0  0  0  0  0  0  0  0  0
    7.8194    5.0207  -12.7176 C   0  0  0  0  0  0  0  0  0  0  0  0
    7.1677    3.9267  -13.3065 C   0  0  0  0  0  0  0  0  0  0  0  0
    5.2861    3.7704  -13.0464 Br  0  0  0  0  0  0  0  0  0  0  0  0
    7.8999    2.9724  -14.0458 C   0  0  0  0  0  0  0  0  0  0  0  0
    7.2569    1.8561  -14.6324 C   0  0  0  0  0  0  0  0  0  0  0  0
    7.9973    0.8852  -15.3298 C   0  0  0  0  0  0  0  0  0  0  0  0
    9.3876    1.0309  -15.4632 C   0  0  0  0  0  0  0  0  0  0  0  0
   10.0325    2.1463  -14.8972 C   0  0  0  0  0  0  0  0  0  0  0  0
    9.3043    3.1280  -14.1785 C   0  0  0  0  0  0  0  0  0  0  0  0
    9.9585    4.2491  -13.5957 C   0  0  0  0  0  0  0  0  0  0  0  0
   11.3110    4.3732  -13.7936 O   0  0  0  0  0  0  0  0  0  0  0  0
    8.1650    6.8404  -11.1244 H   0  0  0  0  0  0  0  0  0  0  0  0
    8.4858    8.9883  -10.5264 H   0  0  0  0  0  0  0  0  0  0  0  0
    9.4969    9.1578  -11.9328 H   0  0  0  0  0  0  0  0  0  0  0  0
   10.8979    9.7194   -9.9830 H   0  0  0  0  0  0  0  0  0  0  0  0
   11.4504    8.1988  -10.5957 H   0  0  0  0  0  0  0  0  0  0  0  0
   12.3108    7.9855   -8.2402 H   0  0  0  0  0  0  0  0  0  0  0  0
   11.6860    6.5728   -9.0948 H   0  0  0  0  0  0  0  0  0  0  0  0
   12.0098    6.1199   -6.6293 H   0  0  0  0  0  0  0  0  0  0  0  0
   10.3549    5.8710   -7.1520 H   0  0  0  0  0  0  0  0  0  0  0  0
   11.1997   10.0365   -4.9599 H   0  0  0  0  0  0  0  0  0  0  0  0
   12.2238   10.4031   -2.7388 H   0  0  0  0  0  0  0  0  0  0  0  0
   12.9279    8.4801   -1.3429 H   0  0  0  0  0  0  0  0  0  0  0  0
   12.5614    6.1512   -2.1666 H   0  0  0  0  0  0  0  0  0  0  0  0
   11.5079    5.7723   -4.3684 H   0  0  0  0  0  0  0  0  0  0  0  0
    8.6409    7.8266   -6.6494 H   0  0  0  0  0  0  0  0  0  0  0  0
    9.2861    9.2414   -5.8469 H   0  0  0  0  0  0  0  0  0  0  0  0
   10.7380    9.7722   -7.7261 H   0  0  0  0  0  0  0  0  0  0  0  0
    9.0571    9.6551   -8.2547 H   0  0  0  0  0  0  0  0  0  0  0  0
    7.2002    5.7212  -12.1761 H   0  0  0  0  0  0  0  0  0  0  0  0
    6.1910    1.7144  -14.5418 H   0  0  0  0  0  0  0  0  0  0  0  0
    7.4995    0.0272  -15.7593 H   0  0  0  0  0  0  0  0  0  0  0  0
    9.9635    0.2884  -15.9955 H   0  0  0  0  0  0  0  0  0  0  0  0
   11.1034    2.2291  -15.0098 H   0  0  0  0  0  0  0  0  0  0  0  0
  2  1  2  0
  3  2  1  0
  4  3  1  0
  5  4  1  0
  6  5  1  0
  7  6  1  0
  8  7  1  0
  9  8  1  0
 10  9  1  0
 11 10  2  0
 12 11  1  0
 13 12  2  0
 14 13  1  0
 15 10  1  0
 15 14  2  0
 16  9  1  0
 17  6  1  0
 17 16  1  0
 18  2  1  0
 19 18  1  0
 20 19  2  0
 21 20  1  0
 22 20  1  0
 23 22  2  0
 24 23  1  0
 25 24  2  0
 26 25  1  0
 27 22  1  0
 27 26  2  0
 28 18  2  0
 28 27  1  0
 29 28  1  0
 30  3  1  0
 31  4  1  0
 32  4  1  0
 33  5  1  0
 34  5  1  0
 35  7  1  0
 36  7  1  0
 37  8  1  0
 38  8  1  0
 39 11  1  0
 40 12  1  0
 41 13  1  0
 42 14  1  0
 43 15  1  0
 44 16  1  0
 45 16  1  0
 46 17  1  0
 47 17  1  0
 48 19  1  0
 49 23  1  0
 50 24  1  0
 51 25  1  0
 52 26  1  0
M  CHG  1  29  -1
M  END
>  <b_m_subgroup_collapsed>  (585) 
0

>  <r_i_docking_score>  (585) 
-7.7227671027750198

>  <s_m_subgroup_title>  (585) 
glide-dock_SP_D22_pv

>  <s_m_subgroupid>  (585) 
glide-dock_SP_D22_pv

>  <Molecule ChEMBL ID>  (585) 
CHEMBL29529

>  <Standard Type>  (585) 
Ki

>  <Standard Value>  (585) 
10000.0

>  <label>  (585) 
0

$$$$
CHEMBL378515
     RDKit          3D

 46 49  0  0  1  0  0  0  0  0999 V2000
   11.8823   10.7011   -6.2607 C   0  0  0  0  0  0  0  0  0  0  0  0
   10.9388   10.3430   -5.2739 O   0  0  0  0  0  0  0  0  0  0  0  0
   11.2861    9.1811   -4.6393 C   0  0  0  0  0  0  0  0  0  0  0  0
   11.8657    9.2989   -3.3612 C   0  0  0  0  0  0  0  0  0  0  0  0
   12.2618    8.1546   -2.6500 C   0  0  0  0  0  0  0  0  0  0  0  0
   12.0780    6.8861   -3.2230 C   0  0  0  0  0  0  0  0  0  0  0  0
   11.4984    6.7634   -4.5018 C   0  0  0  0  0  0  0  0  0  0  0  0
   11.0755    7.9006   -5.2284 C   0  0  0  0  0  0  0  0  0  0  0  0
   10.4428    7.7564   -6.4859 N   0  0  0  0  0  0  0  0  0  0  0  0
    9.1587    8.3986   -6.7228 C   0  0  0  0  0  0  0  0  0  0  0  0
    9.0588    8.8355   -8.1914 C   0  0  0  0  0  0  0  0  0  0  0  0
    9.2862    7.7112   -9.1380 N   0  0  0  0  0  0  0  0  0  0  0  0
    9.3408    8.2064  -10.5402 C   0  0  0  0  0  0  0  0  0  0  0  0
    9.4229    7.0834  -11.5298 C   0  0  0  0  0  0  0  0  0  0  0  0
    8.4639    6.1623  -11.8475 C   0  0  0  0  0  0  0  0  0  0  0  0
    9.0362    5.2924  -12.7564 N   0  0  0  0  0  0  0  0  0  0  0  0
    8.4252    4.2123  -13.3069 N   0  0  0  0  0  0  0  0  0  0  0  0
    9.2306    3.5318  -14.1191 C   0  0  0  0  0  0  0  0  0  0  0  0
    8.5668    2.1230  -14.8614 Cl  0  0  0  0  0  0  0  0  0  0  0  0
   10.5733    3.8649  -14.4307 C   0  0  0  0  0  0  0  0  0  0  0  0
   11.1430    4.9791  -13.8609 C   0  0  0  0  0  0  0  0  0  0  0  0
   10.3595    5.7502  -12.9673 C   0  0  0  0  0  0  0  0  0  0  0  0
   10.5957    6.8378  -12.2369 N   0  0  0  0  0  0  0  0  0  0  0  0
   10.4953    6.8962   -8.7934 C   0  0  0  0  0  0  0  0  0  0  0  0
   10.6343    6.5601   -7.2947 C   0  0  0  0  0  0  0  0  0  0  0  0
   11.6847   11.7008   -6.6447 H   0  0  0  0  0  0  0  0  0  0  0  0
   12.8861   10.6944   -5.8470 H   0  0  0  0  0  0  0  0  0  0  0  0
   11.8564    9.9956   -7.0879 H   0  0  0  0  0  0  0  0  0  0  0  0
   12.0091   10.2779   -2.9236 H   0  0  0  0  0  0  0  0  0  0  0  0
   12.7001    8.2527   -1.6682 H   0  0  0  0  0  0  0  0  0  0  0  0
   12.3736    6.0005   -2.6807 H   0  0  0  0  0  0  0  0  0  0  0  0
   11.3508    5.7723   -4.8994 H   0  0  0  0  0  0  0  0  0  0  0  0
    8.3571    7.6966   -6.4910 H   0  0  0  0  0  0  0  0  0  0  0  0
    9.0153    9.2505   -6.0683 H   0  0  0  0  0  0  0  0  0  0  0  0
    8.0894    9.2981   -8.3786 H   0  0  0  0  0  0  0  0  0  0  0  0
    9.8113    9.5999   -8.3795 H   0  0  0  0  0  0  0  0  0  0  0  0
    8.4798    8.8334  -10.7560 H   0  0  0  0  0  0  0  0  0  0  0  0
   10.2059    8.8625  -10.6508 H   0  0  0  0  0  0  0  0  0  0  0  0
    7.4420    6.0300  -11.5120 H   0  0  0  0  0  0  0  0  0  0  0  0
   11.1497    3.2433  -15.1095 H   0  0  0  0  0  0  0  0  0  0  0  0
   12.1691    5.2658  -14.0665 H   0  0  0  0  0  0  0  0  0  0  0  0
   10.4963    5.9666   -9.3638 H   0  0  0  0  0  0  0  0  0  0  0  0
   11.3862    7.4487   -9.1001 H   0  0  0  0  0  0  0  0  0  0  0  0
   11.6179    6.1255   -7.1139 H   0  0  0  0  0  0  0  0  0  0  0  0
    9.8953    5.8106   -7.0082 H   0  0  0  0  0  0  0  0  0  0  0  0
    8.4653    7.1177   -9.0744 H   0  0  0  0  0  0  0  0  0  0  0  0
  2  1  1  0
  3  2  1  0
  4  3  2  0
  5  4  1  0
  6  5  2  0
  7  6  1  0
  8  3  1  0
  8  7  2  0
  9  8  1  0
 10  9  1  0
 11 10  1  0
 12 11  1  0
 13 12  1  0
 14 13  1  0
 15 14  2  0
 16 15  1  0
 17 16  1  0
 18 17  2  0
 19 18  1  0
 20 18  1  0
 21 20  2  0
 22 16  1  0
 22 21  1  0
 23 14  1  0
 23 22  2  0
 24 12  1  0
 25  9  1  0
 25 24  1  0
 26  1  1  0
 27  1  1  0
 28  1  1  0
 29  4  1  0
 30  5  1  0
 31  6  1  0
 32  7  1  0
 33 10  1  0
 34 10  1  0
 35 11  1  0
 36 11  1  0
 37 13  1  0
 38 13  1  0
 39 15  1  0
 40 20  1  0
 41 21  1  0
 42 24  1  0
 43 24  1  0
 44 25  1  0
 45 25  1  0
 46 12  1  0
M  CHG  1  12   1
M  END
>  <b_m_subgroup_collapsed>  (586) 
0

>  <r_i_docking_score>  (586) 
-7.7221871313655202

>  <s_m_subgroup_title>  (586) 
glide-dock_SP_D22_pv

>  <s_m_subgroupid>  (586) 
glide-dock_SP_D22_pv

>  <Molecule ChEMBL ID>  (586) 
CHEMBL378515

>  <Standard Type>  (586) 
Ki

>  <Standard Value>  (586) 
79.0

>  <label>  (586) 
1

$$$$
CHEMBL4526351
     RDKit          3D

 54 58  0  0  1  0  0  0  0  0999 V2000
   13.2524    6.5204  -16.0229 C   0  0  0  0  0  0  0  0  0  0  0  0
   12.2281    5.6124  -15.3753 C   0  0  0  0  0  0  0  0  0  0  0  0
   11.6416    5.9843  -14.1508 C   0  0  0  0  0  0  0  0  0  0  0  0
   10.6804    5.1475  -13.5324 C   0  0  0  0  0  0  0  0  0  0  0  0
   10.0860    5.4479  -12.2787 N   0  0  0  0  0  0  0  0  0  0  0  0
   10.0160    6.6415  -11.6623 C   0  0  0  0  0  0  0  0  0  0  0  0
   10.1876    7.7296  -12.2076 O   0  0  0  0  0  0  0  0  0  0  0  0
    9.7624    6.5706  -10.1878 C   0  0  0  0  0  0  0  0  0  0  0  0
    8.8835    5.6104   -9.6418 C   0  0  0  0  0  0  0  0  0  0  0  0
    8.6642    5.5664   -8.2535 C   0  0  0  0  0  0  0  0  0  0  0  0
    9.3122    6.4777   -7.4029 C   0  0  0  0  0  0  0  0  0  0  0  0
   10.2040    7.4302   -7.9380 C   0  0  0  0  0  0  0  0  0  0  0  0
   11.0906    8.5593   -6.8489 S   0  0  0  0  0  0  0  0  0  0  0  0
   12.4857    8.1888   -7.5783 F   0  0  0  0  0  0  0  0  0  0  0  0
    9.7083    8.9741   -6.1173 F   0  0  0  0  0  0  0  0  0  0  0  0
   11.8863    9.5764   -5.8790 F   0  0  0  0  0  0  0  0  0  0  0  0
   10.8858    9.7717   -7.8916 F   0  0  0  0  0  0  0  0  0  0  0  0
   11.3438    7.3837   -5.7638 F   0  0  0  0  0  0  0  0  0  0  0  0
   10.4191    7.4794   -9.3308 C   0  0  0  0  0  0  0  0  0  0  0  0
   10.3560    3.9129  -14.1308 C   0  0  0  0  0  0  0  0  0  0  0  0
   10.9270    3.5400  -15.3688 C   0  0  0  0  0  0  0  0  0  0  0  0
   10.5689    2.3224  -15.9994 N   0  0  0  0  0  0  0  0  0  0  0  0
   11.3349    1.5460  -16.8469 C   0  0  0  0  0  0  0  0  0  0  0  0
   10.5866    0.4043  -17.3199 C   0  0  0  0  0  0  0  0  0  0  0  0
    9.3958    0.5445  -16.7197 N   0  0  0  0  0  0  0  0  0  0  0  0
    8.2494   -0.1409  -16.7249 N   0  0  0  0  0  0  0  0  0  0  0  0
    7.4954    0.5737  -15.8444 C   0  0  0  0  0  0  0  0  0  0  0  0
    6.1549    0.0936  -15.4969 C   0  0  0  0  0  0  0  0  0  0  0  0
    5.3703   -0.6466  -16.4062 C   0  0  0  0  0  0  0  0  0  0  0  0
    4.0800   -1.0607  -16.0216 C   0  0  0  0  0  0  0  0  0  0  0  0
    3.6239   -0.7243  -14.7344 C   0  0  0  0  0  0  0  0  0  0  0  0
    4.3654   -0.0320  -13.8455 N   0  0  0  0  0  0  0  0  0  0  0  0
    5.6007    0.3644  -14.2273 C   0  0  0  0  0  0  0  0  0  0  0  0
    8.1493    1.7604  -15.3277 C   0  0  0  0  0  0  0  0  0  0  0  0
    9.4051    1.6311  -15.9630 C   0  0  0  0  0  0  0  0  0  0  0  0
   11.8609    4.3980  -15.9872 C   0  0  0  0  0  0  0  0  0  0  0  0
   13.8746    5.9736  -16.7313 H   0  0  0  0  0  0  0  0  0  0  0  0
   12.7507    7.3297  -16.5565 H   0  0  0  0  0  0  0  0  0  0  0  0
   13.9067    6.9587  -15.2690 H   0  0  0  0  0  0  0  0  0  0  0  0
   11.9534    6.9145  -13.6947 H   0  0  0  0  0  0  0  0  0  0  0  0
    9.7805    4.6550  -11.7359 H   0  0  0  0  0  0  0  0  0  0  0  0
    8.3487    4.9152  -10.2722 H   0  0  0  0  0  0  0  0  0  0  0  0
    7.9740    4.8435   -7.8468 H   0  0  0  0  0  0  0  0  0  0  0  0
    9.1191    6.4384   -6.3395 H   0  0  0  0  0  0  0  0  0  0  0  0
   11.1006    8.2045   -9.7490 H   0  0  0  0  0  0  0  0  0  0  0  0
    9.6698    3.2486  -13.6253 H   0  0  0  0  0  0  0  0  0  0  0  0
   12.3529    1.8418  -17.0628 H   0  0  0  0  0  0  0  0  0  0  0  0
   10.8068   -0.4241  -17.9826 H   0  0  0  0  0  0  0  0  0  0  0  0
    5.7437   -0.8925  -17.3900 H   0  0  0  0  0  0  0  0  0  0  0  0
    3.4575   -1.6346  -16.6926 H   0  0  0  0  0  0  0  0  0  0  0  0
    2.6414   -1.0253  -14.4043 H   0  0  0  0  0  0  0  0  0  0  0  0
    6.1588    0.9222  -13.4874 H   0  0  0  0  0  0  0  0  0  0  0  0
    7.8527    2.5430  -14.6470 H   0  0  0  0  0  0  0  0  0  0  0  0
   12.3068    4.1349  -16.9363 H   0  0  0  0  0  0  0  0  0  0  0  0
  2  1  1  0
  3  2  2  0
  4  3  1  0
  5  4  1  0
  6  5  1  0
  7  6  2  0
  8  6  1  0
  9  8  1  0
 10  9  2  0
 11 10  1  0
 12 11  2  0
 13 12  1  0
 14 13  1  0
 15 13  1  0
 16 13  1  0
 17 13  1  0
 18 13  1  0
 19  8  2  0
 19 12  1  0
 20  4  2  0
 21 20  1  0
 22 21  1  0
 23 22  1  0
 24 23  2  0
 25 24  1  0
 26 25  1  0
 27 26  2  0
 28 27  1  0
 29 28  1  0
 30 29  2  0
 31 30  1  0
 32 31  2  0
 33 28  2  0
 33 32  1  0
 34 27  1  0
 35 22  1  0
 35 25  1  0
 35 34  2  0
 36  2  1  0
 36 21  2  0
 37  1  1  0
 38  1  1  0
 39  1  1  0
 40  3  1  0
 41  5  1  0
 42  9  1  0
 43 10  1  0
 44 11  1  0
 45 19  1  0
 46 20  1  0
 47 23  1  0
 48 24  1  0
 49 29  1  0
 50 30  1  0
 51 31  1  0
 52 33  1  0
 53 34  1  0
 54 36  1  0
M  END
>  <b_m_subgroup_collapsed>  (587) 
0

>  <r_i_docking_score>  (587) 
-7.7218256616396097

>  <s_m_subgroup_title>  (587) 
glide-dock_SP_D22_pv

>  <s_m_subgroupid>  (587) 
glide-dock_SP_D22_pv

>  <Molecule ChEMBL ID>  (587) 
CHEMBL4526351

>  <Standard Type>  (587) 
Ki

>  <Standard Value>  (587) 
10000.0

>  <label>  (587) 
0

$$$$
CHEMBL5789483
     RDKit          3D

 58 60  0  0  1  0  0  0  0  0999 V2000
   12.2925    7.0812  -14.3453 C   0  0  0  0  0  0  0  0  0  0  0  0
   12.2021    5.6327  -13.8482 C   0  0  0  0  0  0  0  0  0  0  0  0
   10.8057    5.2332  -13.6109 N   0  0  0  0  0  0  0  0  0  0  0  0
   10.1038    5.8546  -12.4692 C   0  0  0  0  0  0  0  0  0  0  0  0
    9.3858    4.8216  -11.5741 C   0  0  0  0  0  0  0  0  0  0  0  0
    8.6257    5.4317  -10.3796 C   0  0  0  0  0  0  0  0  0  0  0  0
    9.5465    6.0443   -9.4201 N   0  0  0  0  0  0  0  0  0  0  0  0
    9.5087    7.5058   -9.5558 C   0  0  0  0  0  0  0  0  0  0  0  0
   10.5932    8.1332   -8.6588 C   0  0  0  0  0  0  0  0  0  0  0  0
   10.3984    7.7300   -7.2688 N   0  0  0  0  0  0  0  0  0  0  0  0
   10.8848    8.5592   -6.2422 C   0  0  0  0  0  0  0  0  0  0  0  0
   10.8859    9.8836   -6.3557 N   0  0  0  0  0  0  0  0  0  0  0  0
   11.2861   10.4159   -5.1051 O   0  0  0  0  0  0  0  0  0  0  0  0
   11.6213    9.3847   -4.2463 C   0  0  0  0  0  0  0  0  0  0  0  0
   12.0898    9.4102   -2.9285 C   0  0  0  0  0  0  0  0  0  0  0  0
   12.3843    8.1845   -2.3065 C   0  0  0  0  0  0  0  0  0  0  0  0
   12.8859    8.1727   -1.0496 F   0  0  0  0  0  0  0  0  0  0  0  0
   12.1738    6.9721   -3.0015 C   0  0  0  0  0  0  0  0  0  0  0  0
   11.6808    6.9707   -4.3269 C   0  0  0  0  0  0  0  0  0  0  0  0
   11.3891    8.2043   -4.9595 C   0  0  0  0  0  0  0  0  0  0  0  0
   10.1604    6.3122   -7.0465 C   0  0  0  0  0  0  0  0  0  0  0  0
    9.1271    5.7528   -8.0461 C   0  0  0  0  0  0  0  0  0  0  0  0
    9.9127    4.5091  -14.9034 S   0  0  0  0  0  0  0  0  0  0  0  0
   10.5029    4.9676  -16.1704 O   0  0  0  0  0  0  0  0  0  0  0  0
    8.4865    4.7338  -14.6322 O   0  0  0  0  0  0  0  0  0  0  0  0
   10.3005    2.7149  -14.6672 C   0  0  2  0  0  0  0  0  0  0  0  0
   11.2451    2.2236  -15.7787 C   0  0  0  0  0  0  0  0  0  0  0  0
    8.9992    1.9017  -14.6061 C   0  0  0  0  0  0  0  0  0  0  0  0
    9.2849    0.5702  -14.2469 O   0  0  0  0  0  0  0  0  0  0  0  0
   13.3294    7.3631  -14.5276 H   0  0  0  0  0  0  0  0  0  0  0  0
   11.7429    7.2201  -15.2766 H   0  0  0  0  0  0  0  0  0  0  0  0
   11.8872    7.7731  -13.6090 H   0  0  0  0  0  0  0  0  0  0  0  0
   12.7839    5.5166  -12.9366 H   0  0  0  0  0  0  0  0  0  0  0  0
   12.6524    4.9584  -14.5773 H   0  0  0  0  0  0  0  0  0  0  0  0
   10.8231    6.4147  -11.8729 H   0  0  0  0  0  0  0  0  0  0  0  0
    9.3813    6.5762  -12.8481 H   0  0  0  0  0  0  0  0  0  0  0  0
    8.6620    4.2636  -12.1655 H   0  0  0  0  0  0  0  0  0  0  0  0
   10.0861    4.0749  -11.2067 H   0  0  0  0  0  0  0  0  0  0  0  0
    7.8612    6.1363  -10.7130 H   0  0  0  0  0  0  0  0  0  0  0  0
    8.0879    4.6152   -9.8971 H   0  0  0  0  0  0  0  0  0  0  0  0
    9.6795    7.8043  -10.5889 H   0  0  0  0  0  0  0  0  0  0  0  0
    8.5182    7.8866   -9.2880 H   0  0  0  0  0  0  0  0  0  0  0  0
   11.5844    7.8168   -8.9861 H   0  0  0  0  0  0  0  0  0  0  0  0
   10.5551    9.2174   -8.7666 H   0  0  0  0  0  0  0  0  0  0  0  0
   12.2338   10.3456   -2.4122 H   0  0  0  0  0  0  0  0  0  0  0  0
   12.4001    6.0336   -2.5167 H   0  0  0  0  0  0  0  0  0  0  0  0
   11.5467    6.0273   -4.8313 H   0  0  0  0  0  0  0  0  0  0  0  0
   11.1048    5.7732   -7.1247 H   0  0  0  0  0  0  0  0  0  0  0  0
    9.7646    6.1724   -6.0414 H   0  0  0  0  0  0  0  0  0  0  0  0
    8.1376    6.1727   -7.8525 H   0  0  0  0  0  0  0  0  0  0  0  0
    9.0446    4.6757   -7.8970 H   0  0  0  0  0  0  0  0  0  0  0  0
   10.8061    2.6351  -13.7051 H   0  0  0  0  0  0  0  0  0  0  0  0
   11.5225    1.1797  -15.6352 H   0  0  0  0  0  0  0  0  0  0  0  0
   10.7778    2.3075  -16.7599 H   0  0  0  0  0  0  0  0  0  0  0  0
   12.1659    2.8063  -15.7982 H   0  0  0  0  0  0  0  0  0  0  0  0
    8.4816    1.9207  -15.5655 H   0  0  0  0  0  0  0  0  0  0  0  0
    8.3176    2.3101  -13.8594 H   0  0  0  0  0  0  0  0  0  0  0  0
    9.5935    0.5726  -13.3436 H   0  0  0  0  0  0  0  0  0  0  0  0
  2  1  1  0
  3  2  1  0
  4  3  1  0
  5  4  1  0
  6  5  1  0
  7  6  1  0
  8  7  1  0
  9  8  1  0
 10  9  1  0
 11 10  1  0
 12 11  2  0
 13 12  1  0
 14 13  1  0
 15 14  2  0
 16 15  1  0
 17 16  1  0
 18 16  2  0
 19 18  1  0
 20 11  1  0
 20 14  1  0
 20 19  2  0
 21 10  1  0
 22  7  1  0
 22 21  1  0
 23  3  1  0
 24 23  2  0
 25 23  2  0
 26 23  1  0
 27 26  1  0
 28 26  1  0
 29 28  1  0
 30  1  1  0
 31  1  1  0
 32  1  1  0
 33  2  1  0
 34  2  1  0
 35  4  1  0
 36  4  1  0
 37  5  1  0
 38  5  1  0
 39  6  1  0
 40  6  1  0
 41  8  1  0
 42  8  1  0
 43  9  1  0
 44  9  1  0
 45 15  1  0
 46 18  1  0
 47 19  1  0
 48 21  1  0
 49 21  1  0
 50 22  1  0
 51 22  1  0
 26 52  1  1
 53 27  1  0
 54 27  1  0
 55 27  1  0
 56 28  1  0
 57 28  1  0
 58 29  1  0
M  END
>  <b_m_subgroup_collapsed>  (588) 
0

>  <r_i_docking_score>  (588) 
-7.7209766934899102

>  <s_m_subgroup_title>  (588) 
glide-dock_SP_D22_pv

>  <s_m_subgroupid>  (588) 
glide-dock_SP_D22_pv

>  <Molecule ChEMBL ID>  (588) 
CHEMBL5789483

>  <Standard Type>  (588) 
Ki

>  <Standard Value>  (588) 
78.0

>  <label>  (588) 
1

$$$$
CHEMBL5079536
     RDKit          3D

 60 64  0  0  1  0  0  0  0  0999 V2000
    8.1167    1.3967  -18.2302 C   0  0  0  0  0  0  0  0  0  0  0  0
    7.5648    0.9106  -16.9193 C   0  0  0  0  0  0  0  0  0  0  0  0
    8.1786    1.0946  -15.6977 C   0  0  0  0  0  0  0  0  0  0  0  0
    9.7605    1.8844  -15.4274 S   0  0  0  0  0  0  0  0  0  0  0  0
   10.7418    0.7896  -15.3950 O   0  0  0  0  0  0  0  0  0  0  0  0
    9.8850    2.9900  -16.3907 O   0  0  0  0  0  0  0  0  0  0  0  0
    9.7010    2.5727  -13.8469 N   0  0  0  0  0  0  0  0  0  0  0  0
    9.2603    3.9552  -13.6008 C   0  0  1  0  0  0  0  0  0  0  0  0
    7.7417    4.1315  -13.7050 C   0  0  0  0  0  0  0  0  0  0  0  0
    7.2568    4.5717  -12.3183 C   0  0  2  0  0  0  0  0  0  0  0  0
    6.0835    5.5558  -12.4134 C   0  0  0  0  0  0  0  0  0  0  0  0
    8.4452    5.1626  -11.6677 N   0  0  1  0  0  0  0  0  0  0  0  0
    8.3771    5.2667  -10.1894 C   0  0  0  0  0  0  0  0  0  0  0  0
    9.5338    6.1011   -9.6138 C   0  0  0  0  0  0  0  0  0  0  0  0
    9.2896    6.5270   -8.1525 C   0  0  0  0  0  0  0  0  0  0  0  0
   10.2252    7.6117   -7.6869 C   0  0  0  0  0  0  0  0  0  0  0  0
   10.4439    8.6765   -8.4581 N   0  0  0  0  0  0  0  0  0  0  0  0
   11.2859    9.5607   -7.7344 O   0  0  0  0  0  0  0  0  0  0  0  0
   11.5264    9.0529   -6.4758 C   0  0  0  0  0  0  0  0  0  0  0  0
   12.2090    9.5896   -5.3801 C   0  0  0  0  0  0  0  0  0  0  0  0
   12.2702    8.8115   -4.2050 C   0  0  0  0  0  0  0  0  0  0  0  0
   12.8837    9.3012   -3.1027 F   0  0  0  0  0  0  0  0  0  0  0  0
   11.6860    7.5225   -4.1722 C   0  0  0  0  0  0  0  0  0  0  0  0
   10.9779    7.0184   -5.2900 C   0  0  0  0  0  0  0  0  0  0  0  0
   10.8924    7.8090   -6.4557 C   0  0  0  0  0  0  0  0  0  0  0  0
    9.6236    4.4389  -12.1898 C   0  0  0  0  0  0  0  0  0  0  0  0
    7.3141    0.4167  -14.3454 S   0  0  0  0  0  0  0  0  0  0  0  0
    6.0849   -0.2332  -15.4150 C   0  0  0  0  0  0  0  0  0  0  0  0
    4.9815   -1.0347  -15.0622 C   0  0  0  0  0  0  0  0  0  0  0  0
    4.1259   -1.5290  -16.0617 C   0  0  0  0  0  0  0  0  0  0  0  0
    4.3642   -1.1955  -17.4051 C   0  0  0  0  0  0  0  0  0  0  0  0
    3.3501   -1.8281  -18.6470 Cl  0  0  0  0  0  0  0  0  0  0  0  0
    5.4502   -0.3695  -17.7485 C   0  0  0  0  0  0  0  0  0  0  0  0
    6.3578    0.1170  -16.7767 C   0  0  0  0  0  0  0  0  0  0  0  0
    7.5644    1.0022  -19.0824 H   0  0  0  0  0  0  0  0  0  0  0  0
    8.0831    2.4840  -18.2952 H   0  0  0  0  0  0  0  0  0  0  0  0
    9.1558    1.0912  -18.3567 H   0  0  0  0  0  0  0  0  0  0  0  0
    9.6856    1.9015  -13.0722 H   0  0  0  0  0  0  0  0  0  0  0  0
    9.7437    4.6044  -14.3329 H   0  0  0  0  0  0  0  0  0  0  0  0
    7.5537    4.9273  -14.4240 H   0  0  0  0  0  0  0  0  0  0  0  0
    7.2097    3.2499  -14.0593 H   0  0  0  0  0  0  0  0  0  0  0  0
    6.9470    3.6925  -11.7515 H   0  0  0  0  0  0  0  0  0  0  0  0
    5.2862    5.1406  -13.0293 H   0  0  0  0  0  0  0  0  0  0  0  0
    5.6564    5.7719  -11.4347 H   0  0  0  0  0  0  0  0  0  0  0  0
    6.3802    6.5064  -12.8579 H   0  0  0  0  0  0  0  0  0  0  0  0
    7.4468    5.7717   -9.9416 H   0  0  0  0  0  0  0  0  0  0  0  0
    8.3340    4.2811   -9.7250 H   0  0  0  0  0  0  0  0  0  0  0  0
   10.4848    5.5739   -9.6934 H   0  0  0  0  0  0  0  0  0  0  0  0
    9.6244    6.9939  -10.2345 H   0  0  0  0  0  0  0  0  0  0  0  0
    8.2682    6.8867   -8.0383 H   0  0  0  0  0  0  0  0  0  0  0  0
    9.3713    5.6562   -7.5024 H   0  0  0  0  0  0  0  0  0  0  0  0
   12.6583   10.5704   -5.4472 H   0  0  0  0  0  0  0  0  0  0  0  0
   11.7485    6.9321   -3.2691 H   0  0  0  0  0  0  0  0  0  0  0  0
   10.4954    6.0558   -5.2388 H   0  0  0  0  0  0  0  0  0  0  0  0
    9.8570    3.5957  -11.5360 H   0  0  0  0  0  0  0  0  0  0  0  0
   10.4858    5.1007  -12.2119 H   0  0  0  0  0  0  0  0  0  0  0  0
    4.8224   -1.3090  -14.0324 H   0  0  0  0  0  0  0  0  0  0  0  0
    3.3123   -2.2036  -15.8139 H   0  0  0  0  0  0  0  0  0  0  0  0
    5.6097   -0.1425  -18.7916 H   0  0  0  0  0  0  0  0  0  0  0  0
    8.5011    6.1090  -12.0177 H   0  0  0  0  0  0  0  0  0  0  0  0
  2  1  1  0
  3  2  2  0
  4  3  1  0
  5  4  2  0
  6  4  2  0
  7  4  1  0
  8  7  1  0
  9  8  1  0
 10  9  1  0
 11 10  1  0
 12 10  1  0
 13 12  1  0
 14 13  1  0
 15 14  1  0
 16 15  1  0
 17 16  2  0
 18 17  1  0
 19 18  1  0
 20 19  2  0
 21 20  1  0
 22 21  1  0
 23 21  2  0
 24 23  1  0
 25 16  1  0
 25 19  1  0
 25 24  2  0
 26  8  1  0
 26 12  1  0
 27  3  1  0
 28 27  1  0
 29 28  2  0
 30 29  1  0
 31 30  2  0
 32 31  1  0
 33 31  1  0
 34  2  1  0
 34 28  1  0
 34 33  2  0
 35  1  1  0
 36  1  1  0
 37  1  1  0
 38  7  1  0
  8 39  1  6
 40  9  1  0
 41  9  1  0
 10 42  1  1
 43 11  1  0
 44 11  1  0
 45 11  1  0
 46 13  1  0
 47 13  1  0
 48 14  1  0
 49 14  1  0
 50 15  1  0
 51 15  1  0
 52 20  1  0
 53 23  1  0
 54 24  1  0
 55 26  1  0
 56 26  1  0
 57 29  1  0
 58 30  1  0
 59 33  1  0
 12 60  1  6
M  CHG  1  12   1
M  END
>  <b_m_subgroup_collapsed>  (589) 
0

>  <r_i_docking_score>  (589) 
-7.7200237405645797

>  <s_m_subgroup_title>  (589) 
glide-dock_SP_D22_pv

>  <s_m_subgroupid>  (589) 
glide-dock_SP_D22_pv

>  <Molecule ChEMBL ID>  (589) 
CHEMBL5079536

>  <Standard Type>  (589) 
Ki

>  <Standard Value>  (589) 
53.7

>  <label>  (589) 
1

$$$$
CHEMBL90005
     RDKit          3D

 49 52  0  0  1  0  0  0  0  0999 V2000
    8.6159    5.5339  -12.7506 C   0  0  0  0  0  0  0  0  0  0  0  0
   10.0347    6.0795  -12.6468 C   0  0  0  0  0  0  0  0  0  0  0  0
   11.0699    5.8380  -13.4582 C   0  0  0  0  0  0  0  0  0  0  0  0
   11.2254    4.8861  -14.5201 C   0  0  0  0  0  0  0  0  0  0  0  0
   12.1845    5.0277  -15.4907 C   0  0  0  0  0  0  0  0  0  0  0  0
   12.1731    3.9469  -16.4219 C   0  0  0  0  0  0  0  0  0  0  0  0
   11.2100    3.0106  -16.1433 C   0  0  0  0  0  0  0  0  0  0  0  0
   10.2839    3.4327  -14.7271 S   0  0  0  0  0  0  0  0  0  0  0  0
   12.0861    6.6572  -13.0283 N   0  0  0  0  0  0  0  0  0  0  0  0
   11.7095    7.3723  -11.9630 C   0  0  0  0  0  0  0  0  0  0  0  0
   12.4450    8.1524  -11.3632 O   0  0  0  0  0  0  0  0  0  0  0  0
   10.4299    7.0168  -11.6795 N   0  0  0  0  0  0  0  0  0  0  0  0
    9.5568    7.4565  -10.5598 C   0  0  1  0  0  0  0  0  0  0  0  0
    9.0279    6.2968   -9.6676 C   0  0  0  0  0  0  0  0  0  0  0  0
    9.9414    5.9051   -8.5092 C   0  0  0  0  0  0  0  0  0  0  0  0
   10.3446    7.0783   -7.6944 N   0  0  1  0  0  0  0  0  0  0  0  0
   11.1122    6.6235   -6.5082 C   0  0  0  0  0  0  0  0  0  0  0  0
   11.2860    7.5777   -5.3334 C   0  0  0  0  0  0  0  0  0  0  0  0
   10.9863    8.9579   -5.3816 C   0  0  0  0  0  0  0  0  0  0  0  0
   11.2858    9.7779   -4.2784 C   0  0  0  0  0  0  0  0  0  0  0  0
   11.8486    9.2359   -3.1093 C   0  0  0  0  0  0  0  0  0  0  0  0
   12.0905    7.8544   -3.0319 C   0  0  0  0  0  0  0  0  0  0  0  0
   11.8113    7.0337   -4.1398 C   0  0  0  0  0  0  0  0  0  0  0  0
   11.0606    8.0509   -8.5602 C   0  0  0  0  0  0  0  0  0  0  0  0
   10.1102    8.5823   -9.6509 C   0  0  0  0  0  0  0  0  0  0  0  0
    8.3026    5.5280  -13.7947 H   0  0  0  0  0  0  0  0  0  0  0  0
    8.5739    4.5088  -12.3824 H   0  0  0  0  0  0  0  0  0  0  0  0
    7.8817    6.1304  -12.2102 H   0  0  0  0  0  0  0  0  0  0  0  0
   12.8858    5.8452  -15.5679 H   0  0  0  0  0  0  0  0  0  0  0  0
   12.8651    3.8934  -17.2498 H   0  0  0  0  0  0  0  0  0  0  0  0
   10.9904    2.0987  -16.6796 H   0  0  0  0  0  0  0  0  0  0  0  0
   13.0101    6.6534  -13.4391 H   0  0  0  0  0  0  0  0  0  0  0  0
    8.6935    7.8944  -11.0631 H   0  0  0  0  0  0  0  0  0  0  0  0
    8.0861    6.6072   -9.2242 H   0  0  0  0  0  0  0  0  0  0  0  0
    8.7858    5.3983  -10.2274 H   0  0  0  0  0  0  0  0  0  0  0  0
   10.8276    5.4008   -8.8923 H   0  0  0  0  0  0  0  0  0  0  0  0
    9.4122    5.1796   -7.8899 H   0  0  0  0  0  0  0  0  0  0  0  0
   10.5859    5.7726   -6.0857 H   0  0  0  0  0  0  0  0  0  0  0  0
   12.0871    6.2510   -6.8212 H   0  0  0  0  0  0  0  0  0  0  0  0
   10.5261    9.4195   -6.2391 H   0  0  0  0  0  0  0  0  0  0  0  0
   11.0708   10.8346   -4.3273 H   0  0  0  0  0  0  0  0  0  0  0  0
   12.0737    9.8752   -2.2670 H   0  0  0  0  0  0  0  0  0  0  0  0
   12.5027    7.4262   -2.1300 H   0  0  0  0  0  0  0  0  0  0  0  0
   12.0287    5.9771   -4.0750 H   0  0  0  0  0  0  0  0  0  0  0  0
   11.9261    7.5559   -8.9986 H   0  0  0  0  0  0  0  0  0  0  0  0
   11.4722    8.8898   -8.0063 H   0  0  0  0  0  0  0  0  0  0  0  0
   10.5845    9.3706  -10.2344 H   0  0  0  0  0  0  0  0  0  0  0  0
    9.2671    9.0719   -9.1595 H   0  0  0  0  0  0  0  0  0  0  0  0
    9.4946    7.5134   -7.3613 H   0  0  0  0  0  0  0  0  0  0  0  0
  2  1  1  0
  3  2  2  0
  4  3  1  0
  5  4  2  0
  6  5  1  0
  7  6  2  0
  8  4  1  0
  8  7  1  0
  9  3  1  0
 10  9  1  0
 11 10  2  0
 12  2  1  0
 12 10  1  0
 13 12  1  0
 14 13  1  0
 15 14  1  0
 16 15  1  0
 17 16  1  0
 18 17  1  0
 19 18  2  0
 20 19  1  0
 21 20  2  0
 22 21  1  0
 23 18  1  0
 23 22  2  0
 24 16  1  0
 25 13  1  0
 25 24  1  0
 26  1  1  0
 27  1  1  0
 28  1  1  0
 29  5  1  0
 30  6  1  0
 31  7  1  0
 32  9  1  0
 13 33  1  6
 34 14  1  0
 35 14  1  0
 36 15  1  0
 37 15  1  0
 38 17  1  0
 39 17  1  0
 40 19  1  0
 41 20  1  0
 42 21  1  0
 43 22  1  0
 44 23  1  0
 45 24  1  0
 46 24  1  0
 47 25  1  0
 48 25  1  0
 16 49  1  1
M  CHG  1  16   1
M  END
>  <b_m_subgroup_collapsed>  (590) 
0

>  <r_i_docking_score>  (590) 
-7.7188214241481896

>  <s_m_subgroup_title>  (590) 
glide-dock_SP_D22_pv

>  <s_m_subgroupid>  (590) 
glide-dock_SP_D22_pv

>  <Molecule ChEMBL ID>  (590) 
CHEMBL90005

>  <Standard Type>  (590) 
Ki

>  <Standard Value>  (590) 
7.8

>  <label>  (590) 
1

$$$$
CHEMBL1080926
     RDKit          3D

 57 61  0  0  1  0  0  0  0  0999 V2000
    9.9083    4.2453  -17.3779 C   0  0  0  0  0  0  0  0  0  0  0  0
   10.6499    3.1662  -16.5630 C   0  0  1  0  0  0  0  0  0  0  0  0
   11.8061    3.7286  -15.7115 C   0  0  0  0  0  0  0  0  0  0  0  0
   11.2871    4.4336  -14.5323 N   0  0  0  0  0  0  0  0  0  0  0  0
   11.4567    5.7725  -14.3791 C   0  0  0  0  0  0  0  0  0  0  0  0
   11.9528    6.4766  -15.2634 O   0  0  0  0  0  0  0  0  0  0  0  0
   11.1798    6.4179  -13.0468 C   0  0  0  0  0  0  0  0  0  0  0  0
   12.1816    7.2231  -12.4825 C   0  0  0  0  0  0  0  0  0  0  0  0
   12.0260    7.7729  -11.2019 C   0  0  0  0  0  0  0  0  0  0  0  0
   10.8465    7.5776  -10.4443 C   0  0  0  0  0  0  0  0  0  0  0  0
   10.7386    8.0910   -9.0521 C   0  0  0  0  0  0  0  0  0  0  0  0
   11.8816    8.5583   -8.3524 C   0  0  0  0  0  0  0  0  0  0  0  0
   11.7952    9.0416   -7.0371 C   0  0  0  0  0  0  0  0  0  0  0  0
   10.5616    9.0552   -6.3716 C   0  0  0  0  0  0  0  0  0  0  0  0
   10.4862    9.5483   -5.1144 F   0  0  0  0  0  0  0  0  0  0  0  0
    9.4160    8.5722   -7.0292 C   0  0  0  0  0  0  0  0  0  0  0  0
    9.5018    8.1130   -8.3564 C   0  0  0  0  0  0  0  0  0  0  0  0
    9.7951    6.8620  -11.0725 C   0  0  0  0  0  0  0  0  0  0  0  0
    9.9495    6.3028  -12.3598 C   0  0  0  0  0  0  0  0  0  0  0  0
   10.4962    3.5154  -13.7050 C   0  0  0  0  0  0  0  0  0  0  0  0
    9.2543    3.1290  -14.5231 C   0  0  0  0  0  0  0  0  0  0  0  0
    9.7001    2.3947  -15.7263 N   0  0  0  0  0  0  0  0  0  0  0  0
    9.3821    1.1105  -16.0358 C   0  0  0  0  0  0  0  0  0  0  0  0
   10.0570    0.4171  -16.8005 O   0  0  0  0  0  0  0  0  0  0  0  0
    8.0503    0.5779  -15.5946 C   0  0  0  0  0  0  0  0  0  0  0  0
    7.7565    0.2723  -14.2469 C   0  0  0  0  0  0  0  0  0  0  0  0
    6.4925   -0.2350  -13.8821 C   0  0  0  0  0  0  0  0  0  0  0  0
    5.5079   -0.5048  -14.8599 C   0  0  0  0  0  0  0  0  0  0  0  0
    4.1709   -1.0288  -14.8398 C   0  0  0  0  0  0  0  0  0  0  0  0
    3.7791   -1.1499  -16.1445 C   0  0  0  0  0  0  0  0  0  0  0  0
    4.7632   -0.6352  -16.9640 N   0  0  0  0  0  0  0  0  0  0  0  0
    5.8477   -0.2352  -16.2163 C   0  0  0  0  0  0  0  0  0  0  0  0
    7.0871    0.3051  -16.5846 C   0  0  0  0  0  0  0  0  0  0  0  0
   10.5970    4.7708  -18.0388 H   0  0  0  0  0  0  0  0  0  0  0  0
    9.1281    3.8014  -17.9959 H   0  0  0  0  0  0  0  0  0  0  0  0
    9.4410    4.9948  -16.7386 H   0  0  0  0  0  0  0  0  0  0  0  0
   11.1225    2.5192  -17.3024 H   0  0  0  0  0  0  0  0  0  0  0  0
   12.4617    4.3449  -16.3311 H   0  0  0  0  0  0  0  0  0  0  0  0
   12.4401    2.9090  -15.3734 H   0  0  0  0  0  0  0  0  0  0  0  0
   13.1103    7.3828  -13.0160 H   0  0  0  0  0  0  0  0  0  0  0  0
   12.8501    8.3619  -10.8285 H   0  0  0  0  0  0  0  0  0  0  0  0
   12.8616    8.5620   -8.8017 H   0  0  0  0  0  0  0  0  0  0  0  0
   12.6821    9.4051   -6.5380 H   0  0  0  0  0  0  0  0  0  0  0  0
    8.4599    8.5723   -6.5256 H   0  0  0  0  0  0  0  0  0  0  0  0
    8.5866    7.7767   -8.8212 H   0  0  0  0  0  0  0  0  0  0  0  0
    8.8517    6.6986  -10.5775 H   0  0  0  0  0  0  0  0  0  0  0  0
    9.1205    5.7650  -12.7950 H   0  0  0  0  0  0  0  0  0  0  0  0
   11.0852    2.6268  -13.4626 H   0  0  0  0  0  0  0  0  0  0  0  0
   10.2203    3.8977  -12.7296 H   0  0  0  0  0  0  0  0  0  0  0  0
    8.5846    2.5763  -13.8774 H   0  0  0  0  0  0  0  0  0  0  0  0
    8.6922    4.0154  -14.8146 H   0  0  0  0  0  0  0  0  0  0  0  0
    8.5033    0.4214  -13.4802 H   0  0  0  0  0  0  0  0  0  0  0  0
    6.2893   -0.4558  -12.8460 H   0  0  0  0  0  0  0  0  0  0  0  0
    3.6131   -1.3381  -13.9685 H   0  0  0  0  0  0  0  0  0  0  0  0
    2.8856   -1.5719  -16.5693 H   0  0  0  0  0  0  0  0  0  0  0  0
    4.6923   -0.6207  -17.9716 H   0  0  0  0  0  0  0  0  0  0  0  0
    7.3078    0.4845  -17.6270 H   0  0  0  0  0  0  0  0  0  0  0  0
  2  1  1  0
  3  2  1  0
  4  3  1  0
  5  4  1  0
  6  5  2  0
  7  5  1  0
  8  7  1  0
  9  8  2  0
 10  9  1  0
 11 10  1  0
 12 11  1  0
 13 12  2  0
 14 13  1  0
 15 14  1  0
 16 14  2  0
 17 11  2  0
 17 16  1  0
 18 10  2  0
 19  7  2  0
 19 18  1  0
 20  4  1  0
 21 20  1  0
 22  2  1  0
 22 21  1  0
 23 22  1  0
 24 23  2  0
 25 23  1  0
 26 25  2  0
 27 26  1  0
 28 27  2  0
 29 28  1  0
 30 29  2  0
 31 30  1  0
 32 28  1  0
 32 31  1  0
 33 25  1  0
 33 32  2  0
 34  1  1  0
 35  1  1  0
 36  1  1  0
  2 37  1  6
 38  3  1  0
 39  3  1  0
 40  8  1  0
 41  9  1  0
 42 12  1  0
 43 13  1  0
 44 16  1  0
 45 17  1  0
 46 18  1  0
 47 19  1  0
 48 20  1  0
 49 20  1  0
 50 21  1  0
 51 21  1  0
 52 26  1  0
 53 27  1  0
 54 29  1  0
 55 30  1  0
 56 31  1  0
 57 33  1  0
M  END
>  <b_m_subgroup_collapsed>  (591) 
0

>  <r_i_docking_score>  (591) 
-7.7154026897010803

>  <s_m_subgroup_title>  (591) 
glide-dock_SP_D22_pv

>  <s_m_subgroupid>  (591) 
glide-dock_SP_D22_pv

>  <Molecule ChEMBL ID>  (591) 
CHEMBL1080926

>  <Standard Type>  (591) 
Ki

>  <Standard Value>  (591) 
10000.0

>  <label>  (591) 
0

$$$$
CHEMBL306634
     RDKit          3D

 56 60  0  0  1  0  0  0  0  0999 V2000
    3.9657   -1.8271  -16.2555 C   0  0  0  0  0  0  0  0  0  0  0  0
    4.7437   -0.8619  -15.4970 N   0  0  0  0  0  0  0  0  0  0  0  0
    4.4012   -0.3433  -14.2499 C   0  0  0  0  0  0  0  0  0  0  0  0
    3.4387   -0.6275  -13.5412 O   0  0  0  0  0  0  0  0  0  0  0  0
    5.3591    0.5750  -13.9299 O   0  0  0  0  0  0  0  0  0  0  0  0
    6.2443    0.6857  -14.9662 C   0  0  0  0  0  0  0  0  0  0  0  0
    7.3014    1.6076  -15.1638 C   0  0  0  0  0  0  0  0  0  0  0  0
    7.5980    2.6511  -14.2594 N   0  0  0  0  0  0  0  0  0  0  0  0
    6.5612    3.1795  -13.3759 C   0  0  0  0  0  0  0  0  0  0  0  0
    6.8138    4.6496  -12.9991 C   0  0  0  0  0  0  0  0  0  0  0  0
    8.2249    4.9527  -12.6377 N   0  0  0  0  0  0  0  0  0  0  0  0
    8.3907    6.4163  -12.4355 C   0  0  0  0  0  0  0  0  0  0  0  0
    9.6898    6.8162  -11.7493 C   0  0  0  0  0  0  0  0  0  0  0  0
   10.8846    6.9743  -12.4840 C   0  0  0  0  0  0  0  0  0  0  0  0
   12.0434    7.4518  -11.8525 C   0  0  0  0  0  0  0  0  0  0  0  0
   12.0198    7.7712  -10.4827 C   0  0  0  0  0  0  0  0  0  0  0  0
   10.8554    7.5508   -9.7097 C   0  0  0  0  0  0  0  0  0  0  0  0
   10.8601    7.7803   -8.2516 C   0  0  0  0  0  0  0  0  0  0  0  0
   11.6789    8.7786   -7.6774 C   0  0  0  0  0  0  0  0  0  0  0  0
   11.6859    9.0094   -6.2902 C   0  0  0  0  0  0  0  0  0  0  0  0
   10.8865    8.2185   -5.4491 C   0  0  0  0  0  0  0  0  0  0  0  0
   10.0864    7.2009   -5.9977 C   0  0  0  0  0  0  0  0  0  0  0  0
   10.0667    6.9912   -7.3874 C   0  0  0  0  0  0  0  0  0  0  0  0
    9.6896    7.0913  -10.3668 C   0  0  0  0  0  0  0  0  0  0  0  0
    9.2069    4.3966  -13.6120 C   0  0  0  0  0  0  0  0  0  0  0  0
    8.9900    2.9054  -13.9055 C   0  0  0  0  0  0  0  0  0  0  0  0
    8.0277    1.4836  -16.3794 C   0  0  0  0  0  0  0  0  0  0  0  0
    7.6841    0.5153  -17.3552 C   0  0  0  0  0  0  0  0  0  0  0  0
    6.5868   -0.3489  -17.1558 C   0  0  0  0  0  0  0  0  0  0  0  0
    5.8918   -0.2226  -15.9448 C   0  0  0  0  0  0  0  0  0  0  0  0
    3.1450   -2.2265  -15.6650 H   0  0  0  0  0  0  0  0  0  0  0  0
    3.5451   -1.3636  -17.1469 H   0  0  0  0  0  0  0  0  0  0  0  0
    4.5905   -2.6644  -16.5643 H   0  0  0  0  0  0  0  0  0  0  0  0
    6.4860    2.5735  -12.4769 H   0  0  0  0  0  0  0  0  0  0  0  0
    5.5882    3.1198  -13.8650 H   0  0  0  0  0  0  0  0  0  0  0  0
    6.1560    4.9316  -12.1760 H   0  0  0  0  0  0  0  0  0  0  0  0
    6.5345    5.2792  -13.8391 H   0  0  0  0  0  0  0  0  0  0  0  0
    7.5582    6.7904  -11.8450 H   0  0  0  0  0  0  0  0  0  0  0  0
    8.2894    6.9414  -13.3835 H   0  0  0  0  0  0  0  0  0  0  0  0
   10.9188    6.7622  -13.5413 H   0  0  0  0  0  0  0  0  0  0  0  0
   12.9492    7.5945  -12.4238 H   0  0  0  0  0  0  0  0  0  0  0  0
   12.9284    8.1311  -10.0244 H   0  0  0  0  0  0  0  0  0  0  0  0
   12.3175    9.3723   -8.3090 H   0  0  0  0  0  0  0  0  0  0  0  0
   12.3163    9.7827   -5.8740 H   0  0  0  0  0  0  0  0  0  0  0  0
   10.8972    8.3798   -4.3817 H   0  0  0  0  0  0  0  0  0  0  0  0
    9.4869    6.5768   -5.3515 H   0  0  0  0  0  0  0  0  0  0  0  0
    9.4420    6.2015   -7.7797 H   0  0  0  0  0  0  0  0  0  0  0  0
    8.7708    6.9708   -9.8101 H   0  0  0  0  0  0  0  0  0  0  0  0
    9.1409    4.9587  -14.5461 H   0  0  0  0  0  0  0  0  0  0  0  0
   10.2217    4.5172  -13.2361 H   0  0  0  0  0  0  0  0  0  0  0  0
    9.2834    2.3019  -13.0463 H   0  0  0  0  0  0  0  0  0  0  0  0
    9.6710    2.6037  -14.7002 H   0  0  0  0  0  0  0  0  0  0  0  0
    8.8372    2.1616  -16.6035 H   0  0  0  0  0  0  0  0  0  0  0  0
    8.2492    0.4571  -18.2738 H   0  0  0  0  0  0  0  0  0  0  0  0
    6.2895   -1.0683  -17.9046 H   0  0  0  0  0  0  0  0  0  0  0  0
    8.3953    4.5040  -11.7485 H   0  0  0  0  0  0  0  0  0  0  0  0
  2  1  1  0
  3  2  1  0
  4  3  2  0
  5  3  1  0
  6  5  1  0
  7  6  2  0
  8  7  1  0
  9  8  1  0
 10  9  1  0
 11 10  1  0
 12 11  1  0
 13 12  1  0
 14 13  2  0
 15 14  1  0
 16 15  2  0
 17 16  1  0
 18 17  1  0
 19 18  2  0
 20 19  1  0
 21 20  2  0
 22 21  1  0
 23 18  1  0
 23 22  2  0
 24 13  1  0
 24 17  2  0
 25 11  1  0
 26  8  1  0
 26 25  1  0
 27  7  1  0
 28 27  2  0
 29 28  1  0
 30  2  1  0
 30  6  1  0
 30 29  2  0
 31  1  1  0
 32  1  1  0
 33  1  1  0
 34  9  1  0
 35  9  1  0
 36 10  1  0
 37 10  1  0
 38 12  1  0
 39 12  1  0
 40 14  1  0
 41 15  1  0
 42 16  1  0
 43 19  1  0
 44 20  1  0
 45 21  1  0
 46 22  1  0
 47 23  1  0
 48 24  1  0
 49 25  1  0
 50 25  1  0
 51 26  1  0
 52 26  1  0
 53 27  1  0
 54 28  1  0
 55 29  1  0
 56 11  1  0
M  CHG  1  11   1
M  END
>  <b_m_subgroup_collapsed>  (592) 
0

>  <r_i_docking_score>  (592) 
-7.7108266898688802

>  <s_m_subgroup_title>  (592) 
glide-dock_SP_D22_pv

>  <s_m_subgroupid>  (592) 
glide-dock_SP_D22_pv

>  <Molecule ChEMBL ID>  (592) 
CHEMBL306634

>  <Standard Type>  (592) 
Ki

>  <Standard Value>  (592) 
10.0

>  <label>  (592) 
1

$$$$
CHEMBL478043
     RDKit          3D

 66 70  0  0  1  0  0  0  0  0999 V2000
    6.0162   -0.0646  -18.8197 C   0  0  0  0  0  0  0  0  0  0  0  0
    6.6501   -0.2772  -17.4398 C   0  0  0  0  0  0  0  0  0  0  0  0
    8.0506    0.3584  -17.3403 C   0  0  0  0  0  0  0  0  0  0  0  0
    8.6626    0.1706  -15.9907 N   0  0  1  0  0  0  0  0  0  0  0  0
   10.0627   -0.2863  -16.0505 C   0  0  0  0  0  0  0  0  0  0  0  0
   10.9346    0.8042  -16.6750 C   0  0  0  0  0  0  0  0  0  0  0  0
   10.7612    2.1968  -16.0747 C   0  0  0  0  0  0  0  0  0  0  0  0
   11.6621    3.2506  -16.2954 C   0  0  0  0  0  0  0  0  0  0  0  0
   11.3799    4.5231  -15.7819 C   0  0  0  0  0  0  0  0  0  0  0  0
   10.2180    4.7367  -15.0213 C   0  0  0  0  0  0  0  0  0  0  0  0
    9.2890    3.7091  -14.7065 C   0  0  0  0  0  0  0  0  0  0  0  0
    9.5865    2.4523  -15.3084 C   0  0  0  0  0  0  0  0  0  0  0  0
    8.5644    1.3253  -15.0544 C   0  0  1  0  0  0  0  0  0  0  0  0
    7.1180    1.8376  -14.9153 C   0  0  0  0  0  0  0  0  0  0  0  0
    7.0173    2.9921  -13.9479 C   0  0  0  0  0  0  0  0  0  0  0  0
    5.8577    3.1036  -13.1538 C   0  0  0  0  0  0  0  0  0  0  0  0
    5.7368    4.1618  -12.2484 C   0  0  0  0  0  0  0  0  0  0  0  0
    6.7601    5.1059  -12.1486 C   0  0  0  0  0  0  0  0  0  0  0  0
    7.9516    4.9707  -12.8926 C   0  0  0  0  0  0  0  0  0  0  0  0
    8.9512    5.8764  -12.6447 O   0  0  0  0  0  0  0  0  0  0  0  0
    9.5141    5.9217  -11.4199 C   0  0  0  0  0  0  0  0  0  0  0  0
    9.3130    5.1216  -10.4999 O   0  0  0  0  0  0  0  0  0  0  0  0
   10.4843    7.0932  -11.2803 C   0  0  0  0  0  0  0  0  0  0  0  0
   10.8912    7.2568   -9.8901 N   0  0  0  0  0  0  0  0  0  0  0  0
   10.4006    8.2559   -9.0766 C   0  0  0  0  0  0  0  0  0  0  0  0
    9.6735    9.1844   -9.4226 O   0  0  0  0  0  0  0  0  0  0  0  0
   10.8451    8.0428   -7.8295 O   0  0  0  0  0  0  0  0  0  0  0  0
   10.4192    8.8987   -6.7830 C   0  0  0  0  0  0  0  0  0  0  0  0
   11.0880    8.5826   -5.4602 C   0  0  0  0  0  0  0  0  0  0  0  0
   11.2830    7.2459   -5.0470 C   0  0  0  0  0  0  0  0  0  0  0  0
   11.8658    6.9732   -3.7938 C   0  0  0  0  0  0  0  0  0  0  0  0
   12.2584    8.0319   -2.9524 C   0  0  0  0  0  0  0  0  0  0  0  0
   12.0665    9.3651   -3.3630 C   0  0  0  0  0  0  0  0  0  0  0  0
   11.4710    9.6384   -4.6084 C   0  0  0  0  0  0  0  0  0  0  0  0
    8.0876    3.9187  -13.8468 C   0  0  0  0  0  0  0  0  0  0  0  0
    5.0274   -0.5273  -18.8662 H   0  0  0  0  0  0  0  0  0  0  0  0
    6.6258   -0.5070  -19.6099 H   0  0  0  0  0  0  0  0  0  0  0  0
    5.8927    0.9966  -19.0417 H   0  0  0  0  0  0  0  0  0  0  0  0
    5.9769    0.1314  -16.6865 H   0  0  0  0  0  0  0  0  0  0  0  0
    6.7185   -1.3483  -17.2397 H   0  0  0  0  0  0  0  0  0  0  0  0
    8.6680   -0.1237  -18.1005 H   0  0  0  0  0  0  0  0  0  0  0  0
    8.0297    1.4159  -17.6070 H   0  0  0  0  0  0  0  0  0  0  0  0
   10.4137   -0.5179  -15.0430 H   0  0  0  0  0  0  0  0  0  0  0  0
   10.1393   -1.2156  -16.6184 H   0  0  0  0  0  0  0  0  0  0  0  0
   11.9867    0.5228  -16.6042 H   0  0  0  0  0  0  0  0  0  0  0  0
   10.7337    0.8841  -17.7460 H   0  0  0  0  0  0  0  0  0  0  0  0
   12.5544    3.0930  -16.8855 H   0  0  0  0  0  0  0  0  0  0  0  0
   12.0585    5.3410  -15.9730 H   0  0  0  0  0  0  0  0  0  0  0  0
   10.0604    5.7466  -14.6852 H   0  0  0  0  0  0  0  0  0  0  0  0
    8.8371    0.9329  -14.0730 H   0  0  0  0  0  0  0  0  0  0  0  0
    6.7390    2.2091  -15.8691 H   0  0  0  0  0  0  0  0  0  0  0  0
    6.4603    1.0280  -14.5951 H   0  0  0  0  0  0  0  0  0  0  0  0
    5.0653    2.3744  -13.2308 H   0  0  0  0  0  0  0  0  0  0  0  0
    4.8852    4.2538  -11.6012 H   0  0  0  0  0  0  0  0  0  0  0  0
    6.6569    5.9162  -11.4424 H   0  0  0  0  0  0  0  0  0  0  0  0
   11.3630    6.9098  -11.8983 H   0  0  0  0  0  0  0  0  0  0  0  0
   10.0067    8.0004  -11.6550 H   0  0  0  0  0  0  0  0  0  0  0  0
   11.4204    6.5267   -9.4382 H   0  0  0  0  0  0  0  0  0  0  0  0
   10.6370    9.9342   -7.0470 H   0  0  0  0  0  0  0  0  0  0  0  0
    9.3387    8.8145   -6.6615 H   0  0  0  0  0  0  0  0  0  0  0  0
   10.9767    6.4289   -5.6808 H   0  0  0  0  0  0  0  0  0  0  0  0
   12.0064    5.9517   -3.4743 H   0  0  0  0  0  0  0  0  0  0  0  0
   12.6970    7.8234   -1.9899 H   0  0  0  0  0  0  0  0  0  0  0  0
   12.3585   10.1726   -2.7100 H   0  0  0  0  0  0  0  0  0  0  0  0
   11.2963   10.6608   -4.9085 H   0  0  0  0  0  0  0  0  0  0  0  0
    8.1484   -0.5935  -15.5698 H   0  0  0  0  0  0  0  0  0  0  0  0
  2  1  1  0
  3  2  1  0
  4  3  1  0
  5  4  1  0
  6  5  1  0
  7  6  1  0
  8  7  2  0
  9  8  1  0
 10  9  2  0
 11 10  1  0
 12  7  1  0
 12 11  2  0
 13  4  1  0
 13 12  1  0
 14 13  1  0
 15 14  1  0
 16 15  2  0
 17 16  1  0
 18 17  2  0
 19 18  1  0
 20 19  1  0
 21 20  1  0
 22 21  2  0
 23 21  1  0
 24 23  1  0
 25 24  1  0
 26 25  2  0
 27 25  1  0
 28 27  1  0
 29 28  1  0
 30 29  2  0
 31 30  1  0
 32 31  2  0
 33 32  1  0
 34 29  1  0
 34 33  2  0
 35 11  1  0
 35 15  1  0
 35 19  2  0
 36  1  1  0
 37  1  1  0
 38  1  1  0
 39  2  1  0
 40  2  1  0
 41  3  1  0
 42  3  1  0
 43  5  1  0
 44  5  1  0
 45  6  1  0
 46  6  1  0
 47  8  1  0
 48  9  1  0
 49 10  1  0
 13 50  1  1
 51 14  1  0
 52 14  1  0
 53 16  1  0
 54 17  1  0
 55 18  1  0
 56 23  1  0
 57 23  1  0
 58 24  1  0
 59 28  1  0
 60 28  1  0
 61 30  1  0
 62 31  1  0
 63 32  1  0
 64 33  1  0
 65 34  1  0
  4 66  1  1
M  CHG  1   4   1
M  END
>  <b_m_subgroup_collapsed>  (593) 
0

>  <r_i_docking_score>  (593) 
-7.70977837920067

>  <s_m_subgroup_title>  (593) 
glide-dock_SP_D22_pv

>  <s_m_subgroupid>  (593) 
glide-dock_SP_D22_pv

>  <Molecule ChEMBL ID>  (593) 
CHEMBL478043

>  <Standard Type>  (593) 
Ki

>  <Standard Value>  (593) 
10000.0

>  <label>  (593) 
0

$$$$
CHEMBL3697998
     RDKit          3D

 65 69  0  0  1  0  0  0  0  0999 V2000
    5.6958   -0.3919  -14.2443 O   0  0  0  0  0  0  0  0  0  0  0  0
    6.0987    0.0592  -15.3176 C   0  0  0  0  0  0  0  0  0  0  0  0
    6.8860    1.1479  -15.4080 N   0  0  0  0  0  0  0  0  0  0  0  0
    7.2659    1.9791  -14.2700 C   0  0  1  0  0  0  0  0  0  0  0  0
    8.5699    2.7535  -14.5533 C   0  0  0  0  0  0  0  0  0  0  0  0
    8.9343    3.7264  -13.4111 C   0  0  0  0  0  0  0  0  0  0  0  0
    7.7621    4.6782  -13.0687 C   0  0  2  0  0  0  0  0  0  0  0  0
    8.0746    5.7123  -11.9661 C   0  0  0  0  0  0  0  0  0  0  0  0
    8.4324    5.1149  -10.5896 C   0  0  0  0  0  0  0  0  0  0  0  0
    8.4981    6.1079   -9.4854 N   0  0  0  0  0  0  0  0  0  0  0  0
    8.9051    5.4392   -8.2212 C   0  0  0  0  0  0  0  0  0  0  0  0
    9.1700    6.3991   -7.0464 C   0  0  0  0  0  0  0  0  0  0  0  0
   10.0115    7.5307   -7.4403 N   0  0  0  0  0  0  0  0  0  0  0  0
   10.8547    8.2114   -6.5121 C   0  0  0  0  0  0  0  0  0  0  0  0
   11.4252    9.4721   -6.8356 C   0  0  0  0  0  0  0  0  0  0  0  0
   12.2515   10.1735   -5.9380 C   0  0  0  0  0  0  0  0  0  0  0  0
   12.5847    9.6459   -4.6826 C   0  0  0  0  0  0  0  0  0  0  0  0
   12.0532    8.4070   -4.3577 C   0  0  0  0  0  0  0  0  0  0  0  0
   11.2261    7.7161   -5.2291 C   0  0  0  0  0  0  0  0  0  0  0  0
   10.8886    6.5601   -4.6171 O   0  0  0  0  0  0  0  0  0  0  0  0
   11.5727    6.5194   -3.3906 C   0  0  0  0  0  0  0  0  0  0  0  0
   12.2427    7.7226   -3.2070 O   0  0  0  0  0  0  0  0  0  0  0  0
    9.4754    8.2305   -8.6118 C   0  0  0  0  0  0  0  0  0  0  0  0
    9.3492    7.2789   -9.8034 C   0  0  0  0  0  0  0  0  0  0  0  0
    6.4646    3.9070  -12.7749 C   0  0  0  0  0  0  0  0  0  0  0  0
    6.1097    2.9364  -13.9047 C   0  0  0  0  0  0  0  0  0  0  0  0
    5.6253   -0.5315  -16.6155 C   0  0  0  0  0  0  0  0  0  0  0  0
    4.4348   -1.2918  -16.6610 C   0  0  0  0  0  0  0  0  0  0  0  0
    4.0152   -1.8282  -17.8910 C   0  0  0  0  0  0  0  0  0  0  0  0
    4.8082   -1.5988  -19.0331 C   0  0  0  0  0  0  0  0  0  0  0  0
    5.9595   -0.8934  -19.0045 N   0  0  0  0  0  0  0  0  0  0  0  0
    6.3579   -0.3868  -17.8176 C   0  0  0  0  0  0  0  0  0  0  0  0
    7.1687    1.4618  -16.3241 H   0  0  0  0  0  0  0  0  0  0  0  0
    7.4577    1.2970  -13.4477 H   0  0  0  0  0  0  0  0  0  0  0  0
    9.3911    2.0484  -14.7058 H   0  0  0  0  0  0  0  0  0  0  0  0
    8.4859    3.3194  -15.4802 H   0  0  0  0  0  0  0  0  0  0  0  0
    9.2597    3.1558  -12.5396 H   0  0  0  0  0  0  0  0  0  0  0  0
    9.7999    4.3152  -13.7177 H   0  0  0  0  0  0  0  0  0  0  0  0
    7.5795    5.2545  -13.9726 H   0  0  0  0  0  0  0  0  0  0  0  0
    8.8902    6.3412  -12.3197 H   0  0  0  0  0  0  0  0  0  0  0  0
    7.2159    6.3749  -11.8497 H   0  0  0  0  0  0  0  0  0  0  0  0
    7.6910    4.3739  -10.2982 H   0  0  0  0  0  0  0  0  0  0  0  0
    9.3845    4.5905  -10.6658 H   0  0  0  0  0  0  0  0  0  0  0  0
    8.1455    4.7081   -7.9332 H   0  0  0  0  0  0  0  0  0  0  0  0
    9.8222    4.8792   -8.4114 H   0  0  0  0  0  0  0  0  0  0  0  0
    8.2276    6.7754   -6.6486 H   0  0  0  0  0  0  0  0  0  0  0  0
    9.6258    5.7773   -6.2829 H   0  0  0  0  0  0  0  0  0  0  0  0
   11.2842    9.9607   -7.7791 H   0  0  0  0  0  0  0  0  0  0  0  0
   12.6580   11.1253   -6.2425 H   0  0  0  0  0  0  0  0  0  0  0  0
   13.2404   10.1615   -3.9990 H   0  0  0  0  0  0  0  0  0  0  0  0
   10.8827    6.3434   -2.5659 H   0  0  0  0  0  0  0  0  0  0  0  0
   12.3204    5.7318   -3.4138 H   0  0  0  0  0  0  0  0  0  0  0  0
    8.4993    8.6506   -8.3576 H   0  0  0  0  0  0  0  0  0  0  0  0
   10.0837    9.0507   -8.9717 H   0  0  0  0  0  0  0  0  0  0  0  0
   10.3385    6.9390  -10.1203 H   0  0  0  0  0  0  0  0  0  0  0  0
    8.9106    7.8384  -10.6305 H   0  0  0  0  0  0  0  0  0  0  0  0
    6.5350    3.3672  -11.8346 H   0  0  0  0  0  0  0  0  0  0  0  0
    5.6434    4.6110  -12.6420 H   0  0  0  0  0  0  0  0  0  0  0  0
    5.8276    3.5216  -14.7756 H   0  0  0  0  0  0  0  0  0  0  0  0
    5.2273    2.3670  -13.6155 H   0  0  0  0  0  0  0  0  0  0  0  0
    3.8429   -1.4638  -15.7729 H   0  0  0  0  0  0  0  0  0  0  0  0
    3.1132   -2.4221  -17.9500 H   0  0  0  0  0  0  0  0  0  0  0  0
    4.5123   -1.9982  -19.9933 H   0  0  0  0  0  0  0  0  0  0  0  0
    7.2868    0.1645  -17.8461 H   0  0  0  0  0  0  0  0  0  0  0  0
    7.5663    6.4983   -9.3566 H   0  0  0  0  0  0  0  0  0  0  0  0
  2  1  2  0
  3  2  1  0
  4  3  1  0
  5  4  1  0
  6  5  1  0
  7  6  1  0
  8  7  1  0
  9  8  1  0
 10  9  1  0
 11 10  1  0
 12 11  1  0
 13 12  1  0
 14 13  1  0
 15 14  2  0
 16 15  1  0
 17 16  2  0
 18 17  1  0
 19 14  1  0
 19 18  2  0
 20 19  1  0
 21 20  1  0
 22 18  1  0
 22 21  1  0
 23 13  1  0
 24 10  1  0
 24 23  1  0
 25  7  1  0
 26  4  1  0
 26 25  1  0
 27  2  1  0
 28 27  1  0
 29 28  2  0
 30 29  1  0
 31 30  2  0
 32 27  2  0
 32 31  1  0
 33  3  1  0
  4 34  1  1
 35  5  1  0
 36  5  1  0
 37  6  1  0
 38  6  1  0
  7 39  1  6
 40  8  1  0
 41  8  1  0
 42  9  1  0
 43  9  1  0
 44 11  1  0
 45 11  1  0
 46 12  1  0
 47 12  1  0
 48 15  1  0
 49 16  1  0
 50 17  1  0
 51 21  1  0
 52 21  1  0
 53 23  1  0
 54 23  1  0
 55 24  1  0
 56 24  1  0
 57 25  1  0
 58 25  1  0
 59 26  1  0
 60 26  1  0
 61 28  1  0
 62 29  1  0
 63 30  1  0
 64 32  1  0
 65 10  1  0
M  CHG  1  10   1
M  END
>  <b_m_subgroup_collapsed>  (594) 
0

>  <r_i_docking_score>  (594) 
-7.7084294036529704

>  <s_m_subgroup_title>  (594) 
glide-dock_SP_D22_pv

>  <s_m_subgroupid>  (594) 
glide-dock_SP_D22_pv

>  <Molecule ChEMBL ID>  (594) 
CHEMBL3697998

>  <Standard Type>  (594) 
Ki

>  <Standard Value>  (594) 
88.19

>  <label>  (594) 
1

$$$$
CHEMBL307444
     RDKit          3D

 52 54  0  0  1  0  0  0  0  0999 V2000
   11.3594    3.4469  -14.6975 C   0  0  0  0  0  0  0  0  0  0  0  0
   10.6581    2.2989  -14.8033 C   0  0  0  0  0  0  0  0  0  0  0  0
    9.2134    2.0103  -14.6465 C   0  0  0  0  0  0  0  0  0  0  0  0
    8.2403    2.9581  -14.2458 C   0  0  0  0  0  0  0  0  0  0  0  0
    6.8861    2.5935  -14.1111 C   0  0  0  0  0  0  0  0  0  0  0  0
    6.4869    1.2675  -14.3482 C   0  0  0  0  0  0  0  0  0  0  0  0
    7.4387    0.3123  -14.7405 C   0  0  0  0  0  0  0  0  0  0  0  0
    8.7873    0.6842  -14.8947 C   0  0  0  0  0  0  0  0  0  0  0  0
   10.8660    4.8482  -14.4055 C   0  0  0  0  0  0  0  0  0  0  0  0
   10.6821    5.0155  -13.0094 O   0  0  0  0  0  0  0  0  0  0  0  0
   10.1263    6.2731  -12.6655 C   0  0  0  0  0  0  0  0  0  0  0  0
   10.1384    6.5259  -11.1504 C   0  0  1  0  0  0  0  0  0  0  0  0
    9.5086    7.8873  -10.8320 C   0  0  0  0  0  0  0  0  0  0  0  0
    9.5305    8.1706   -9.3260 C   0  0  0  0  0  0  0  0  0  0  0  0
    8.8862    7.0818   -8.5434 N   0  0  2  0  0  0  0  0  0  0  0  0
    8.7558    7.3773   -7.0915 C   0  0  0  0  0  0  0  0  0  0  0  0
   10.0248    7.8052   -6.3476 C   0  0  0  0  0  0  0  0  0  0  0  0
   10.4856    9.1325   -6.4381 C   0  0  0  0  0  0  0  0  0  0  0  0
   11.5092    9.6120   -5.6010 C   0  0  0  0  0  0  0  0  0  0  0  0
   12.0869    8.7528   -4.6494 C   0  0  0  0  0  0  0  0  0  0  0  0
   11.6859    7.4053   -4.5927 C   0  0  0  0  0  0  0  0  0  0  0  0
   10.6691    6.9353   -5.4469 C   0  0  0  0  0  0  0  0  0  0  0  0
    9.4669    5.7464   -8.8312 C   0  0  0  0  0  0  0  0  0  0  0  0
    9.4144    5.4367  -10.3393 C   0  0  0  0  0  0  0  0  0  0  0  0
   12.4291    3.3800  -14.8341 H   0  0  0  0  0  0  0  0  0  0  0  0
   11.2551    1.4267  -15.0279 H   0  0  0  0  0  0  0  0  0  0  0  0
    8.4936    3.9729  -14.0006 H   0  0  0  0  0  0  0  0  0  0  0  0
    6.1587    3.3314  -13.8026 H   0  0  0  0  0  0  0  0  0  0  0  0
    5.4513    0.9828  -14.2334 H   0  0  0  0  0  0  0  0  0  0  0  0
    7.1338   -0.7083  -14.9229 H   0  0  0  0  0  0  0  0  0  0  0  0
    9.4991   -0.0696  -15.1967 H   0  0  0  0  0  0  0  0  0  0  0  0
   11.6219    5.5521  -14.7561 H   0  0  0  0  0  0  0  0  0  0  0  0
    9.9652    5.0676  -14.9780 H   0  0  0  0  0  0  0  0  0  0  0  0
   10.7268    7.0549  -13.1289 H   0  0  0  0  0  0  0  0  0  0  0  0
    9.1081    6.3417  -13.0474 H   0  0  0  0  0  0  0  0  0  0  0  0
   11.1790    6.5731  -10.8282 H   0  0  0  0  0  0  0  0  0  0  0  0
   10.0439    8.6783  -11.3558 H   0  0  0  0  0  0  0  0  0  0  0  0
    8.4860    7.9173  -11.2041 H   0  0  0  0  0  0  0  0  0  0  0  0
    9.0154    9.1118   -9.1309 H   0  0  0  0  0  0  0  0  0  0  0  0
   10.5686    8.2920   -9.0140 H   0  0  0  0  0  0  0  0  0  0  0  0
    8.0343    8.1849   -6.9811 H   0  0  0  0  0  0  0  0  0  0  0  0
    8.3013    6.5217   -6.5930 H   0  0  0  0  0  0  0  0  0  0  0  0
   10.0154    9.7889   -7.1439 H   0  0  0  0  0  0  0  0  0  0  0  0
   11.8326   10.6389   -5.6742 H   0  0  0  0  0  0  0  0  0  0  0  0
   12.8610    9.1172   -3.9908 H   0  0  0  0  0  0  0  0  0  0  0  0
   12.1432    6.7326   -3.8809 H   0  0  0  0  0  0  0  0  0  0  0  0
   10.3440    5.9149   -5.3519 H   0  0  0  0  0  0  0  0  0  0  0  0
    8.9108    4.9815   -8.2874 H   0  0  0  0  0  0  0  0  0  0  0  0
   10.4960    5.7067   -8.4714 H   0  0  0  0  0  0  0  0  0  0  0  0
    8.3763    5.3568  -10.6632 H   0  0  0  0  0  0  0  0  0  0  0  0
    9.8675    4.4624  -10.5257 H   0  0  0  0  0  0  0  0  0  0  0  0
    7.9250    7.0436   -8.8769 H   0  0  0  0  0  0  0  0  0  0  0  0
  2  1  2  0
  3  2  1  0
  4  3  2  0
  5  4  1  0
  6  5  2  0
  7  6  1  0
  8  3  1  0
  8  7  2  0
  9  1  1  0
 10  9  1  0
 11 10  1  0
 12 11  1  0
 13 12  1  0
 14 13  1  0
 15 14  1  0
 16 15  1  0
 17 16  1  0
 18 17  2  0
 19 18  1  0
 20 19  2  0
 21 20  1  0
 22 17  1  0
 22 21  2  0
 23 15  1  0
 24 12  1  0
 24 23  1  0
 25  1  1  0
 26  2  1  0
 27  4  1  0
 28  5  1  0
 29  6  1  0
 30  7  1  0
 31  8  1  0
 32  9  1  0
 33  9  1  0
 34 11  1  0
 35 11  1  0
 12 36  1  1
 37 13  1  0
 38 13  1  0
 39 14  1  0
 40 14  1  0
 41 16  1  0
 42 16  1  0
 43 18  1  0
 44 19  1  0
 45 20  1  0
 46 21  1  0
 47 22  1  0
 48 23  1  0
 49 23  1  0
 50 24  1  0
 51 24  1  0
 15 52  1  6
M  CHG  1  15   1
M  END
>  <b_m_subgroup_collapsed>  (595) 
0

>  <r_i_docking_score>  (595) 
-7.7075492323193897

>  <s_m_subgroup_title>  (595) 
glide-dock_SP_D22_pv

>  <s_m_subgroupid>  (595) 
glide-dock_SP_D22_pv

>  <Molecule ChEMBL ID>  (595) 
CHEMBL307444

>  <Standard Type>  (595) 
Ki

>  <Standard Value>  (595) 
10000.0

>  <label>  (595) 
0

$$$$
CHEMBL1771108
     RDKit          3D

 71 75  0  0  1  0  0  0  0  0999 V2000
   11.8211   11.2227   -6.2468 C   0  0  0  0  0  0  0  0  0  0  0  0
   11.3836    9.9310   -6.5754 O   0  0  0  0  0  0  0  0  0  0  0  0
   11.4624    8.9862   -5.5761 C   0  0  0  0  0  0  0  0  0  0  0  0
   12.1257    9.2250   -4.3390 C   0  0  0  0  0  0  0  0  0  0  0  0
   12.2376    8.2231   -3.3640 C   0  0  0  0  0  0  0  0  0  0  0  0
   11.6862    6.9625   -3.6148 C   0  0  0  0  0  0  0  0  0  0  0  0
   11.0158    6.7246   -4.8269 C   0  0  0  0  0  0  0  0  0  0  0  0
   10.8801    7.7175   -5.8209 C   0  0  0  0  0  0  0  0  0  0  0  0
   10.1873    7.4404   -7.0242 N   0  0  0  0  0  0  0  0  0  0  0  0
   10.0045    6.0661   -7.4735 C   0  0  0  0  0  0  0  0  0  0  0  0
    9.9011    5.9842   -9.0056 C   0  0  0  0  0  0  0  0  0  0  0  0
    8.9466    6.9759   -9.5725 N   0  0  0  0  0  0  0  0  0  0  0  0
    8.9007    6.9194  -11.0531 C   0  0  0  0  0  0  0  0  0  0  0  0
    8.0193    5.7640  -11.5689 C   0  0  0  0  0  0  0  0  0  0  0  0
    8.4981    5.2200  -12.9209 C   0  0  0  0  0  0  0  0  0  0  0  0
    9.7069    4.2707  -12.7845 C   0  0  0  0  0  0  0  0  0  0  0  0
   10.3672    4.0690  -14.0775 N   0  0  0  0  0  0  0  0  0  0  0  0
    9.8874    2.9200  -14.8558 C   0  0  0  0  0  0  0  0  0  0  0  0
   10.8990    2.4162  -15.8955 C   0  0  0  0  0  0  0  0  0  0  0  0
   11.5606    3.5648  -16.6408 C   0  0  0  0  0  0  0  0  0  0  0  0
   11.7579    4.7871  -15.9516 C   0  0  0  0  0  0  0  0  0  0  0  0
   12.3962    5.8612  -16.6093 C   0  0  0  0  0  0  0  0  0  0  0  0
   12.8128    5.7287  -17.9445 C   0  0  0  0  0  0  0  0  0  0  0  0
   12.5890    4.5230  -18.6319 C   0  0  0  0  0  0  0  0  0  0  0  0
   11.9617    3.4311  -17.9959 C   0  0  0  0  0  0  0  0  0  0  0  0
   11.7181    2.2075  -18.7757 C   0  0  0  0  0  0  0  0  0  0  0  0
   10.6961    2.1818  -19.7486 C   0  0  0  0  0  0  0  0  0  0  0  0
   10.4493    1.0176  -20.5008 C   0  0  0  0  0  0  0  0  0  0  0  0
   11.2254   -0.1362  -20.2860 C   0  0  0  0  0  0  0  0  0  0  0  0
   12.2479   -0.1233  -19.3187 C   0  0  0  0  0  0  0  0  0  0  0  0
   12.4918    1.0453  -18.5726 C   0  0  0  0  0  0  0  0  0  0  0  0
   11.2884    4.9551  -14.5299 C   0  0  0  0  0  0  0  0  0  0  0  0
   11.6855    5.9076  -13.8540 O   0  0  0  0  0  0  0  0  0  0  0  0
    9.2118    8.3464   -9.0622 C   0  0  0  0  0  0  0  0  0  0  0  0
    9.1709    8.3591   -7.5270 C   0  0  0  0  0  0  0  0  0  0  0  0
   11.6857   11.9350   -7.0501 H   0  0  0  0  0  0  0  0  0  0  0  0
   11.2862   11.5812   -5.3643 H   0  0  0  0  0  0  0  0  0  0  0  0
   12.8860   11.1694   -6.0831 H   0  0  0  0  0  0  0  0  0  0  0  0
   12.5819   10.1720   -4.1029 H   0  0  0  0  0  0  0  0  0  0  0  0
   12.7468    8.4221   -2.4319 H   0  0  0  0  0  0  0  0  0  0  0  0
   11.7549    6.1794   -2.8731 H   0  0  0  0  0  0  0  0  0  0  0  0
   10.5509    5.7723   -4.9606 H   0  0  0  0  0  0  0  0  0  0  0  0
    9.0887    5.6773   -7.0311 H   0  0  0  0  0  0  0  0  0  0  0  0
   10.8357    5.4426   -7.1466 H   0  0  0  0  0  0  0  0  0  0  0  0
    9.6266    4.9708   -9.2988 H   0  0  0  0  0  0  0  0  0  0  0  0
   10.8872    6.1747   -9.4291 H   0  0  0  0  0  0  0  0  0  0  0  0
    9.9181    6.8537  -11.4415 H   0  0  0  0  0  0  0  0  0  0  0  0
    8.4976    7.8521  -11.4504 H   0  0  0  0  0  0  0  0  0  0  0  0
    6.9992    6.1386  -11.6720 H   0  0  0  0  0  0  0  0  0  0  0  0
    7.9606    4.9414  -10.8559 H   0  0  0  0  0  0  0  0  0  0  0  0
    8.7296    6.0559  -13.5805 H   0  0  0  0  0  0  0  0  0  0  0  0
    7.6830    4.6793  -13.4040 H   0  0  0  0  0  0  0  0  0  0  0  0
    9.3846    3.3208  -12.3590 H   0  0  0  0  0  0  0  0  0  0  0  0
   10.4274    4.6619  -12.0661 H   0  0  0  0  0  0  0  0  0  0  0  0
    8.9831    3.2403  -15.3708 H   0  0  0  0  0  0  0  0  0  0  0  0
    9.5992    2.0929  -14.2064 H   0  0  0  0  0  0  0  0  0  0  0  0
   10.3920    1.7327  -16.5767 H   0  0  0  0  0  0  0  0  0  0  0  0
   11.6835    1.8414  -15.4032 H   0  0  0  0  0  0  0  0  0  0  0  0
   12.5623    6.7991  -16.0980 H   0  0  0  0  0  0  0  0  0  0  0  0
   13.2935    6.5569  -18.4453 H   0  0  0  0  0  0  0  0  0  0  0  0
   12.9007    4.4364  -19.6629 H   0  0  0  0  0  0  0  0  0  0  0  0
   10.0952    3.0640  -19.9182 H   0  0  0  0  0  0  0  0  0  0  0  0
    9.6654    1.0113  -21.2438 H   0  0  0  0  0  0  0  0  0  0  0  0
   11.0373   -1.0254  -20.8677 H   0  0  0  0  0  0  0  0  0  0  0  0
   12.8489   -1.0055  -19.1533 H   0  0  0  0  0  0  0  0  0  0  0  0
   13.2840    1.0523  -17.8407 H   0  0  0  0  0  0  0  0  0  0  0  0
   10.1879    8.6882   -9.4124 H   0  0  0  0  0  0  0  0  0  0  0  0
    8.4807    9.0493   -9.4571 H   0  0  0  0  0  0  0  0  0  0  0  0
    8.1918    8.0270   -7.1755 H   0  0  0  0  0  0  0  0  0  0  0  0
    9.2779    9.3720   -7.1558 H   0  0  0  0  0  0  0  0  0  0  0  0
    8.0031    6.7691   -9.2601 H   0  0  0  0  0  0  0  0  0  0  0  0
  2  1  1  0
  3  2  1  0
  4  3  2  0
  5  4  1  0
  6  5  2  0
  7  6  1  0
  8  3  1  0
  8  7  2  0
  9  8  1  0
 10  9  1  0
 11 10  1  0
 12 11  1  0
 13 12  1  0
 14 13  1  0
 15 14  1  0
 16 15  1  0
 17 16  1  0
 18 17  1  0
 19 18  1  0
 20 19  1  0
 21 20  2  0
 22 21  1  0
 23 22  2  0
 24 23  1  0
 25 20  1  0
 25 24  2  0
 26 25  1  0
 27 26  2  0
 28 27  1  0
 29 28  2  0
 30 29  1  0
 31 26  1  0
 31 30  2  0
 32 17  1  0
 32 21  1  0
 33 32  2  0
 34 12  1  0
 35  9  1  0
 35 34  1  0
 36  1  1  0
 37  1  1  0
 38  1  1  0
 39  4  1  0
 40  5  1  0
 41  6  1  0
 42  7  1  0
 43 10  1  0
 44 10  1  0
 45 11  1  0
 46 11  1  0
 47 13  1  0
 48 13  1  0
 49 14  1  0
 50 14  1  0
 51 15  1  0
 52 15  1  0
 53 16  1  0
 54 16  1  0
 55 18  1  0
 56 18  1  0
 57 19  1  0
 58 19  1  0
 59 22  1  0
 60 23  1  0
 61 24  1  0
 62 27  1  0
 63 28  1  0
 64 29  1  0
 65 30  1  0
 66 31  1  0
 67 34  1  0
 68 34  1  0
 69 35  1  0
 70 35  1  0
 71 12  1  0
M  CHG  1  12   1
M  END
>  <b_m_subgroup_collapsed>  (596) 
0

>  <r_i_docking_score>  (596) 
-7.7046178379932098

>  <s_m_subgroup_title>  (596) 
glide-dock_SP_D22_pv

>  <s_m_subgroupid>  (596) 
glide-dock_SP_D22_pv

>  <Molecule ChEMBL ID>  (596) 
CHEMBL1771108

>  <Standard Type>  (596) 
Ki

>  <Standard Value>  (596) 
52.0

>  <label>  (596) 
1

$$$$
CHEMBL4474829
     RDKit          3D

 55 59  0  0  1  0  0  0  0  0999 V2000
    3.9378   -1.7563  -16.3366 C   0  0  0  0  0  0  0  0  0  0  0  0
    5.2570   -1.6796  -15.5540 C   0  0  0  0  0  0  0  0  0  0  0  0
    5.3184   -0.4403  -14.6594 C   0  0  0  0  0  0  0  0  0  0  0  0
    4.4158   -0.2270  -13.8462 O   0  0  0  0  0  0  0  0  0  0  0  0
    6.3971    0.3507  -14.8125 N   0  0  0  0  0  0  0  0  0  0  0  0
    6.6116    1.6326  -14.2463 C   0  0  0  0  0  0  0  0  0  0  0  0
    5.7108    2.2793  -13.5039 N   0  0  0  0  0  0  0  0  0  0  0  0
    6.2517    3.5140  -13.2000 C   0  0  0  0  0  0  0  0  0  0  0  0
    5.5022    4.5246  -12.4128 C   0  0  0  0  0  0  0  0  0  0  0  0
    7.5331    3.5202  -13.7217 C   0  0  0  0  0  0  0  0  0  0  0  0
    8.6099    4.4983  -13.5149 C   0  0  0  0  0  0  0  0  0  0  0  0
    8.6094    5.6276  -12.7389 C   0  0  0  0  0  0  0  0  0  0  0  0
    9.9053    6.0942  -12.5620 N   0  0  0  0  0  0  0  0  0  0  0  0
   10.3273    7.3717  -11.4488 S   0  0  0  0  0  0  0  0  0  0  0  0
    9.4226    8.4769  -11.7972 O   0  0  0  0  0  0  0  0  0  0  0  0
   11.7842    7.5330  -11.5659 O   0  0  0  0  0  0  0  0  0  0  0  0
    9.9399    6.8320   -9.7521 C   0  0  0  0  0  0  0  0  0  0  0  0
    9.0000    5.7885   -9.5752 C   0  0  0  0  0  0  0  0  0  0  0  0
    8.5111    5.4667   -8.3044 C   0  0  0  0  0  0  0  0  0  0  0  0
    8.9648    6.1724   -7.1879 C   0  0  0  0  0  0  0  0  0  0  0  0
    9.9846    7.1251   -7.3160 C   0  0  0  0  0  0  0  0  0  0  0  0
   10.4856    7.7100   -6.1367 C   0  0  0  0  0  0  0  0  0  0  0  0
   11.5341    8.6350   -6.2005 C   0  0  0  0  0  0  0  0  0  0  0  0
   12.0793    8.9723   -7.4458 C   0  0  0  0  0  0  0  0  0  0  0  0
   11.5379    8.4392   -8.6383 C   0  0  0  0  0  0  0  0  0  0  0  0
   10.4936    7.4753   -8.5977 C   0  0  0  0  0  0  0  0  0  0  0  0
   10.7348    5.4364  -13.4721 C   0  0  0  0  0  0  0  0  0  0  0  0
   12.0853    5.6106  -13.8478 C   0  0  0  0  0  0  0  0  0  0  0  0
   12.6588    4.7847  -14.8276 C   0  0  0  0  0  0  0  0  0  0  0  0
   11.8972    3.7618  -15.4148 C   0  0  0  0  0  0  0  0  0  0  0  0
   10.5574    3.5759  -15.0308 C   0  0  0  0  0  0  0  0  0  0  0  0
    9.9324    4.4167  -14.0766 C   0  0  0  0  0  0  0  0  0  0  0  0
    7.7301    2.3225  -14.4250 N   0  0  0  0  0  0  0  0  0  0  0  0
    3.9385   -2.6236  -16.9975 H   0  0  0  0  0  0  0  0  0  0  0  0
    3.0793   -1.8507  -15.6687 H   0  0  0  0  0  0  0  0  0  0  0  0
    3.7849   -0.8718  -16.9536 H   0  0  0  0  0  0  0  0  0  0  0  0
    6.0860   -1.6732  -16.2598 H   0  0  0  0  0  0  0  0  0  0  0  0
    5.3794   -2.5680  -14.9363 H   0  0  0  0  0  0  0  0  0  0  0  0
    7.1131    0.0256  -15.4446 H   0  0  0  0  0  0  0  0  0  0  0  0
    5.9747    4.6964  -11.4469 H   0  0  0  0  0  0  0  0  0  0  0  0
    5.4510    5.4747  -12.9454 H   0  0  0  0  0  0  0  0  0  0  0  0
    4.4863    4.1722  -12.2472 H   0  0  0  0  0  0  0  0  0  0  0  0
    7.8023    6.0768  -12.1765 H   0  0  0  0  0  0  0  0  0  0  0  0
    8.5879    5.2236  -10.3871 H   0  0  0  0  0  0  0  0  0  0  0  0
    7.7602    4.7018   -8.1897 H   0  0  0  0  0  0  0  0  0  0  0  0
    8.5501    5.9534   -6.2169 H   0  0  0  0  0  0  0  0  0  0  0  0
   10.0866    7.4253   -5.1766 H   0  0  0  0  0  0  0  0  0  0  0  0
   11.9428    9.0564   -5.2935 H   0  0  0  0  0  0  0  0  0  0  0  0
   12.9180    9.6482   -7.4467 H   0  0  0  0  0  0  0  0  0  0  0  0
   11.9749    8.7663   -9.5684 H   0  0  0  0  0  0  0  0  0  0  0  0
   12.6999    6.3836  -13.4121 H   0  0  0  0  0  0  0  0  0  0  0  0
   13.6870    4.9351  -15.1250 H   0  0  0  0  0  0  0  0  0  0  0  0
   12.3424    3.1145  -16.1561 H   0  0  0  0  0  0  0  0  0  0  0  0
    9.9918    2.7866  -15.5002 H   0  0  0  0  0  0  0  0  0  0  0  0
    4.7965    1.9266  -13.2550 H   0  0  0  0  0  0  0  0  0  0  0  0
  2  1  1  0
  3  2  1  0
  4  3  2  0
  5  3  1  0
  6  5  1  0
  7  6  1  0
  8  7  1  0
  9  8  1  0
 10  8  2  0
 11 10  1  0
 12 11  2  0
 13 12  1  0
 14 13  1  0
 15 14  2  0
 16 14  2  0
 17 14  1  0
 18 17  2  0
 19 18  1  0
 20 19  2  0
 21 20  1  0
 22 21  2  0
 23 22  1  0
 24 23  2  0
 25 24  1  0
 26 17  1  0
 26 21  1  0
 26 25  2  0
 27 13  1  0
 28 27  2  0
 29 28  1  0
 30 29  2  0
 31 30  1  0
 32 11  1  0
 32 27  1  0
 32 31  2  0
 33  6  2  0
 33 10  1  0
 34  1  1  0
 35  1  1  0
 36  1  1  0
 37  2  1  0
 38  2  1  0
 39  5  1  0
 40  9  1  0
 41  9  1  0
 42  9  1  0
 43 12  1  0
 44 18  1  0
 45 19  1  0
 46 20  1  0
 47 22  1  0
 48 23  1  0
 49 24  1  0
 50 25  1  0
 51 28  1  0
 52 29  1  0
 53 30  1  0
 54 31  1  0
 55  7  1  0
M  END
>  <b_m_subgroup_collapsed>  (597) 
0

>  <r_i_docking_score>  (597) 
-7.7038542110329198

>  <s_m_subgroup_title>  (597) 
glide-dock_SP_D22_pv

>  <s_m_subgroupid>  (597) 
glide-dock_SP_D22_pv

>  <Molecule ChEMBL ID>  (597) 
CHEMBL4474829

>  <Standard Type>  (597) 
Ki

>  <Standard Value>  (597) 
10000.0

>  <label>  (597) 
0

$$$$
CHEMBL5722937
     RDKit          3D

 41 43  0  0  1  0  0  0  0  0999 V2000
   11.5332    9.7772   -3.2991 C   0  0  0  0  0  0  0  0  0  0  0  0
   12.4292    9.1798   -4.3824 C   0  0  0  0  0  0  0  0  0  0  0  0
   11.6487    8.6519   -5.5415 C   0  0  0  0  0  0  0  0  0  0  0  0
   11.5106    9.3087   -6.6831 N   0  0  0  0  0  0  0  0  0  0  0  0
   10.8639    8.5369   -7.6642 C   0  0  0  0  0  0  0  0  0  0  0  0
   10.7065    9.0788   -9.0487 C   0  0  0  0  0  0  0  0  0  0  0  0
    9.2524    9.0543   -9.5310 C   0  0  0  0  0  0  0  0  0  0  0  0
    8.8855    7.7956  -10.1462 N   0  0  0  0  0  0  0  0  0  0  0  0
    9.5072    7.7025  -11.4456 C   0  0  0  0  0  0  0  0  0  0  0  0
    9.1603    6.4133  -12.1824 C   0  0  0  0  0  0  0  0  0  0  0  0
   10.0605    5.7792  -12.9620 C   0  0  0  0  0  0  0  0  0  0  0  0
    9.6903    4.5345  -13.6698 C   0  0  0  0  0  0  0  0  0  0  0  0
   10.5028    3.9198  -14.3516 O   0  0  0  0  0  0  0  0  0  0  0  0
    8.2823    4.0664  -13.4871 C   0  0  0  0  0  0  0  0  0  0  0  0
    7.8190    2.9024  -14.1323 C   0  0  0  0  0  0  0  0  0  0  0  0
    6.5086    2.4413  -13.9013 C   0  0  0  0  0  0  0  0  0  0  0  0
    6.0867    1.2865  -14.4796 F   0  0  0  0  0  0  0  0  0  0  0  0
    5.6380    3.1653  -13.0596 C   0  0  0  0  0  0  0  0  0  0  0  0
    6.0840    4.3426  -12.4356 C   0  0  0  0  0  0  0  0  0  0  0  0
    7.4088    4.7892  -12.6428 C   0  0  0  0  0  0  0  0  0  0  0  0
    7.8728    5.9454  -12.0094 N   0  0  0  0  0  0  0  0  0  0  0  0
   10.4294    7.3279   -7.1879 C   0  0  0  0  0  0  0  0  0  0  0  0
   10.8925    7.0706   -5.5321 S   0  0  0  0  0  0  0  0  0  0  0  0
   12.1074   10.1913   -2.4743 H   0  0  0  0  0  0  0  0  0  0  0  0
   10.9000   10.5595   -3.6932 H   0  0  0  0  0  0  0  0  0  0  0  0
   10.8856    8.9989   -2.8842 H   0  0  0  0  0  0  0  0  0  0  0  0
   13.0312    8.3803   -3.9613 H   0  0  0  0  0  0  0  0  0  0  0  0
   13.1238    9.9388   -4.7461 H   0  0  0  0  0  0  0  0  0  0  0  0
   11.0740   10.1032   -9.0683 H   0  0  0  0  0  0  0  0  0  0  0  0
   11.3534    8.5592   -9.7506 H   0  0  0  0  0  0  0  0  0  0  0  0
    8.5967    9.2213   -8.6878 H   0  0  0  0  0  0  0  0  0  0  0  0
    9.0780    9.8445  -10.2451 H   0  0  0  0  0  0  0  0  0  0  0  0
    7.8350    7.7737  -10.2330 H   0  0  0  0  0  0  0  0  0  0  0  0
    9.1972    8.5181  -12.0987 H   0  0  0  0  0  0  0  0  0  0  0  0
   10.5883    7.7829  -11.3388 H   0  0  0  0  0  0  0  0  0  0  0  0
   11.0758    6.1457  -13.0676 H   0  0  0  0  0  0  0  0  0  0  0  0
    8.4708    2.3392  -14.7889 H   0  0  0  0  0  0  0  0  0  0  0  0
    4.6297    2.8117  -12.8922 H   0  0  0  0  0  0  0  0  0  0  0  0
    5.4231    4.8939  -11.7838 H   0  0  0  0  0  0  0  0  0  0  0  0
    7.2561    6.4353  -11.3708 H   0  0  0  0  0  0  0  0  0  0  0  0
    9.8735    6.5690   -7.7171 H   0  0  0  0  0  0  0  0  0  0  0  0
  2  1  1  0
  3  2  1  0
  4  3  2  0
  5  4  1  0
  6  5  1  0
  7  6  1  0
  8  7  1  0
  9  8  1  0
 10  9  1  0
 11 10  2  0
 12 11  1  0
 13 12  2  0
 14 12  1  0
 15 14  2  0
 16 15  1  0
 17 16  1  0
 18 16  2  0
 19 18  1  0
 20 14  1  0
 20 19  2  0
 21 10  1  0
 21 20  1  0
 22  5  2  0
 23  3  1  0
 23 22  1  0
 24  1  1  0
 25  1  1  0
 26  1  1  0
 27  2  1  0
 28  2  1  0
 29  6  1  0
 30  6  1  0
 31  7  1  0
 32  7  1  0
 33  8  1  0
 34  9  1  0
 35  9  1  0
 36 11  1  0
 37 15  1  0
 38 18  1  0
 39 19  1  0
 40 21  1  0
 41 22  1  0
M  END
>  <b_m_subgroup_collapsed>  (598) 
0

>  <r_i_docking_score>  (598) 
-7.7012372151989501

>  <s_m_subgroup_title>  (598) 
glide-dock_SP_D22_pv

>  <s_m_subgroupid>  (598) 
glide-dock_SP_D22_pv

>  <Molecule ChEMBL ID>  (598) 
CHEMBL5722937

>  <Standard Type>  (598) 
Ki

>  <Standard Value>  (598) 
10000.0

>  <label>  (598) 
0

$$$$
CHEMBL135954
     RDKit          3D

 48 50  0  0  1  0  0  0  0  0999 V2000
    9.6634    4.1727  -10.1849 C   0  0  0  0  0  0  0  0  0  0  0  0
    9.4201    4.6867   -8.7737 C   0  0  0  0  0  0  0  0  0  0  0  0
    8.5733    5.9698   -8.7486 C   0  0  0  0  0  0  0  0  0  0  0  0
    9.3182    7.2539   -8.9824 N   0  0  2  0  0  0  0  0  0  0  0  0
   10.2368    7.2773  -10.1686 C   0  0  0  0  0  0  0  0  0  0  0  0
    9.5209    7.0981  -11.5340 C   0  0  0  0  0  0  0  0  0  0  0  0
   10.3986    6.5648  -12.6370 C   0  0  0  0  0  0  0  0  0  0  0  0
   11.6517    6.9720  -13.0234 C   0  0  0  0  0  0  0  0  0  0  0  0
   12.1790    6.2148  -14.1099 C   0  0  0  0  0  0  0  0  0  0  0  0
   11.3448    5.2083  -14.5143 C   0  0  0  0  0  0  0  0  0  0  0  0
    9.8855    5.1733  -13.5682 S   0  0  0  0  0  0  0  0  0  0  0  0
    9.8753    7.8472   -7.7118 C   0  0  2  0  0  0  0  0  0  0  0  0
   10.7164    9.1161   -7.9180 C   0  0  0  0  0  0  0  0  0  0  0  0
   10.9818    9.8457   -6.5920 C   0  0  0  0  0  0  0  0  0  0  0  0
   11.3244    8.9356   -5.4328 C   0  0  0  0  0  0  0  0  0  0  0  0
   11.7025    9.5040   -4.2001 C   0  0  0  0  0  0  0  0  0  0  0  0
   12.0962    8.6895   -3.1238 C   0  0  0  0  0  0  0  0  0  0  0  0
   12.0869    7.2925   -3.2746 C   0  0  0  0  0  0  0  0  0  0  0  0
   12.4744    6.4893   -2.2470 O   0  0  0  0  0  0  0  0  0  0  0  0
   11.6426    6.7229   -4.4806 C   0  0  0  0  0  0  0  0  0  0  0  0
   11.2398    7.5338   -5.5579 C   0  0  0  0  0  0  0  0  0  0  0  0
   10.6950    6.8833   -6.8198 C   0  0  0  0  0  0  0  0  0  0  0  0
   10.0881    3.1765  -10.1443 H   0  0  0  0  0  0  0  0  0  0  0  0
    8.7393    4.1722  -10.7640 H   0  0  0  0  0  0  0  0  0  0  0  0
   10.3716    4.7466  -10.7515 H   0  0  0  0  0  0  0  0  0  0  0  0
   10.3657    4.7806   -8.2497 H   0  0  0  0  0  0  0  0  0  0  0  0
    8.8624    3.9137   -8.2441 H   0  0  0  0  0  0  0  0  0  0  0  0
    8.0797    6.0487   -7.7799 H   0  0  0  0  0  0  0  0  0  0  0  0
    7.7603    5.7971   -9.4577 H   0  0  0  0  0  0  0  0  0  0  0  0
   10.7465    8.2332  -10.2603 H   0  0  0  0  0  0  0  0  0  0  0  0
   11.0470    6.5717  -10.0070 H   0  0  0  0  0  0  0  0  0  0  0  0
    8.6548    6.4455  -11.4369 H   0  0  0  0  0  0  0  0  0  0  0  0
    9.1014    8.0567  -11.8427 H   0  0  0  0  0  0  0  0  0  0  0  0
   12.2098    7.7762  -12.5721 H   0  0  0  0  0  0  0  0  0  0  0  0
   13.1499    6.4207  -14.5376 H   0  0  0  0  0  0  0  0  0  0  0  0
   11.5007    4.4835  -15.3001 H   0  0  0  0  0  0  0  0  0  0  0  0
    8.9943    8.1413   -7.1370 H   0  0  0  0  0  0  0  0  0  0  0  0
   11.6839    8.8466   -8.3447 H   0  0  0  0  0  0  0  0  0  0  0  0
   10.2329    9.7721   -8.6356 H   0  0  0  0  0  0  0  0  0  0  0  0
   10.0910   10.3663   -6.2885 H   0  0  0  0  0  0  0  0  0  0  0  0
   11.7617   10.5982   -6.7052 H   0  0  0  0  0  0  0  0  0  0  0  0
   11.6861   10.5725   -4.0754 H   0  0  0  0  0  0  0  0  0  0  0  0
   12.4024    9.1369   -2.1892 H   0  0  0  0  0  0  0  0  0  0  0  0
   12.2249    5.5822   -2.3623 H   0  0  0  0  0  0  0  0  0  0  0  0
   11.5961    5.6558   -4.5836 H   0  0  0  0  0  0  0  0  0  0  0  0
   11.5404    6.4710   -7.3710 H   0  0  0  0  0  0  0  0  0  0  0  0
   10.0698    6.0580   -6.4864 H   0  0  0  0  0  0  0  0  0  0  0  0
    8.5731    7.8905   -9.2419 H   0  0  0  0  0  0  0  0  0  0  0  0
  2  1  1  0
  3  2  1  0
  4  3  1  0
  5  4  1  0
  6  5  1  0
  7  6  1  0
  8  7  2  0
  9  8  1  0
 10  9  2  0
 11  7  1  0
 11 10  1  0
 12  4  1  0
 13 12  1  0
 14 13  1  0
 15 14  1  0
 16 15  1  0
 17 16  2  0
 18 17  1  0
 19 18  1  0
 20 18  2  0
 21 15  2  0
 21 20  1  0
 22 12  1  0
 22 21  1  0
 23  1  1  0
 24  1  1  0
 25  1  1  0
 26  2  1  0
 27  2  1  0
 28  3  1  0
 29  3  1  0
 30  5  1  0
 31  5  1  0
 32  6  1  0
 33  6  1  0
 34  8  1  0
 35  9  1  0
 36 10  1  0
 12 37  1  1
 38 13  1  0
 39 13  1  0
 40 14  1  0
 41 14  1  0
 42 16  1  0
 43 17  1  0
 44 19  1  0
 45 20  1  0
 46 22  1  0
 47 22  1  0
  4 48  1  6
M  CHG  1   4   1
M  END
>  <b_m_subgroup_collapsed>  (599) 
0

>  <r_i_docking_score>  (599) 
-7.7011325644916004

>  <s_m_subgroup_title>  (599) 
glide-dock_SP_D22_pv

>  <s_m_subgroupid>  (599) 
glide-dock_SP_D22_pv

>  <Molecule ChEMBL ID>  (599) 
CHEMBL135954

>  <Standard Type>  (599) 
Ki

>  <Standard Value>  (599) 
0.76

>  <label>  (599) 
1

$$$$
CHEMBL3895540
     RDKit          3D

 66 70  0  0  1  0  0  0  0  0999 V2000
    8.7411    2.7702  -17.4232 C   0  0  0  0  0  0  0  0  0  0  0  0
    9.5593    2.2503  -16.3150 N   0  0  0  0  0  0  0  0  0  0  0  0
    9.5682    2.9966  -15.0418 C   0  0  1  0  0  0  0  0  0  0  0  0
   10.1451    4.4198  -15.2084 C   0  0  0  0  0  0  0  0  0  0  0  0
   10.1167    5.1776  -13.8744 C   0  0  0  0  0  0  0  0  0  0  0  0
    8.6675    5.2554  -13.3580 C   0  0  2  0  0  0  0  0  0  0  0  0
    8.4995    6.1352  -12.1101 C   0  0  0  0  0  0  0  0  0  0  0  0
    9.0423    5.4832  -10.8219 C   0  0  0  0  0  0  0  0  0  0  0  0
    8.8800    6.2983   -9.6051 N   0  0  0  0  0  0  0  0  0  0  0  0
    9.3380    5.5634   -8.3930 C   0  0  0  0  0  0  0  0  0  0  0  0
    9.1511    6.3886   -7.1112 C   0  0  0  0  0  0  0  0  0  0  0  0
    9.7272    7.7077   -7.2891 N   0  0  0  0  0  0  0  0  0  0  0  0
   10.7389    8.3084   -6.5049 C   0  0  0  0  0  0  0  0  0  0  0  0
   11.2091    9.4373   -6.9794 N   0  0  0  0  0  0  0  0  0  0  0  0
   12.0860   10.2206   -5.8469 S   0  0  0  0  0  0  0  0  0  0  0  0
   11.9843    8.9716   -4.6467 C   0  0  0  0  0  0  0  0  0  0  0  0
   12.4860    8.9768   -3.3360 C   0  0  0  0  0  0  0  0  0  0  0  0
   12.3909    7.8225   -2.5511 C   0  0  0  0  0  0  0  0  0  0  0  0
   11.8157    6.6710   -3.1050 C   0  0  0  0  0  0  0  0  0  0  0  0
   11.2860    6.6903   -4.4125 C   0  0  0  0  0  0  0  0  0  0  0  0
   11.2864    7.8631   -5.2171 C   0  0  0  0  0  0  0  0  0  0  0  0
    9.1501    8.4269   -8.4230 C   0  0  0  0  0  0  0  0  0  0  0  0
    9.4321    7.6676   -9.7092 C   0  0  0  0  0  0  0  0  0  0  0  0
    8.1390    3.8346  -13.1209 C   0  0  0  0  0  0  0  0  0  0  0  0
    8.1696    2.9861  -14.3884 C   0  0  0  0  0  0  0  0  0  0  0  0
    9.8303    0.5442  -16.2919 S   0  0  0  0  0  0  0  0  0  0  0  0
    8.5986   -0.1193  -16.7431 O   0  0  0  0  0  0  0  0  0  0  0  0
   10.4858    0.1722  -15.0297 O   0  0  0  0  0  0  0  0  0  0  0  0
   11.0455    0.3253  -17.5573 C   0  0  0  0  0  0  0  0  0  0  0  0
   12.0864    1.1640  -17.8546 C   0  0  0  0  0  0  0  0  0  0  0  0
   12.8577    0.7065  -18.9632 C   0  0  0  0  0  0  0  0  0  0  0  0
   12.3830   -0.4664  -19.4902 C   0  0  0  0  0  0  0  0  0  0  0  0
   10.9600   -1.0227  -18.6468 S   0  0  0  0  0  0  0  0  0  0  0  0
    8.8862    3.8362  -17.5826 H   0  0  0  0  0  0  0  0  0  0  0  0
    9.0131    2.2665  -18.3513 H   0  0  0  0  0  0  0  0  0  0  0  0
    7.6854    2.5724  -17.2380 H   0  0  0  0  0  0  0  0  0  0  0  0
   10.2459    2.4893  -14.3548 H   0  0  0  0  0  0  0  0  0  0  0  0
   11.1679    4.3647  -15.5829 H   0  0  0  0  0  0  0  0  0  0  0  0
    9.5795    5.0005  -15.9350 H   0  0  0  0  0  0  0  0  0  0  0  0
   10.7593    4.6739  -13.1512 H   0  0  0  0  0  0  0  0  0  0  0  0
   10.5354    6.1723  -14.0126 H   0  0  0  0  0  0  0  0  0  0  0  0
    8.0856    5.7225  -14.1503 H   0  0  0  0  0  0  0  0  0  0  0  0
    8.9923    7.0837  -12.3178 H   0  0  0  0  0  0  0  0  0  0  0  0
    7.4415    6.3645  -11.9711 H   0  0  0  0  0  0  0  0  0  0  0  0
    8.4985    4.5618  -10.6209 H   0  0  0  0  0  0  0  0  0  0  0  0
   10.0861    5.2140  -10.9460 H   0  0  0  0  0  0  0  0  0  0  0  0
    8.7944    4.6221   -8.2992 H   0  0  0  0  0  0  0  0  0  0  0  0
   10.3936    5.3110   -8.5074 H   0  0  0  0  0  0  0  0  0  0  0  0
    8.0879    6.5005   -6.8890 H   0  0  0  0  0  0  0  0  0  0  0  0
    9.5852    5.8647   -6.2750 H   0  0  0  0  0  0  0  0  0  0  0  0
   12.9646    9.8591   -2.9439 H   0  0  0  0  0  0  0  0  0  0  0  0
   12.7794    7.8143   -1.5435 H   0  0  0  0  0  0  0  0  0  0  0  0
   11.7599    5.7723   -2.5118 H   0  0  0  0  0  0  0  0  0  0  0  0
   10.8505    5.7726   -4.7625 H   0  0  0  0  0  0  0  0  0  0  0  0
    8.0860    8.5065   -8.2462 H   0  0  0  0  0  0  0  0  0  0  0  0
    9.4758    9.4571   -8.5433 H   0  0  0  0  0  0  0  0  0  0  0  0
   10.5037    7.6327   -9.9124 H   0  0  0  0  0  0  0  0  0  0  0  0
    8.9567    8.2225  -10.5162 H   0  0  0  0  0  0  0  0  0  0  0  0
    8.7881    3.3723  -12.3843 H   0  0  0  0  0  0  0  0  0  0  0  0
    7.1294    3.8549  -12.7076 H   0  0  0  0  0  0  0  0  0  0  0  0
    7.4017    3.3723  -15.0469 H   0  0  0  0  0  0  0  0  0  0  0  0
    7.8795    1.9609  -14.1543 H   0  0  0  0  0  0  0  0  0  0  0  0
   12.3184    2.0722  -17.3175 H   0  0  0  0  0  0  0  0  0  0  0  0
   13.7214    1.2439  -19.3263 H   0  0  0  0  0  0  0  0  0  0  0  0
   12.7744   -1.0276  -20.3259 H   0  0  0  0  0  0  0  0  0  0  0  0
    7.8812    6.4533   -9.4953 H   0  0  0  0  0  0  0  0  0  0  0  0
  2  1  1  0
  3  2  1  0
  4  3  1  0
  5  4  1  0
  6  5  1  0
  7  6  1  0
  8  7  1  0
  9  8  1  0
 10  9  1  0
 11 10  1  0
 12 11  1  0
 13 12  1  0
 14 13  2  0
 15 14  1  0
 16 15  1  0
 17 16  2  0
 18 17  1  0
 19 18  2  0
 20 19  1  0
 21 13  1  0
 21 16  1  0
 21 20  2  0
 22 12  1  0
 23  9  1  0
 23 22  1  0
 24  6  1  0
 25  3  1  0
 25 24  1  0
 26  2  1  0
 27 26  2  0
 28 26  2  0
 29 26  1  0
 30 29  2  0
 31 30  1  0
 32 31  2  0
 33 29  1  0
 33 32  1  0
 34  1  1  0
 35  1  1  0
 36  1  1  0
  3 37  1  1
 38  4  1  0
 39  4  1  0
 40  5  1  0
 41  5  1  0
  6 42  1  6
 43  7  1  0
 44  7  1  0
 45  8  1  0
 46  8  1  0
 47 10  1  0
 48 10  1  0
 49 11  1  0
 50 11  1  0
 51 17  1  0
 52 18  1  0
 53 19  1  0
 54 20  1  0
 55 22  1  0
 56 22  1  0
 57 23  1  0
 58 23  1  0
 59 24  1  0
 60 24  1  0
 61 25  1  0
 62 25  1  0
 63 30  1  0
 64 31  1  0
 65 32  1  0
 66  9  1  0
M  CHG  1   9   1
M  END
>  <b_m_subgroup_collapsed>  (600) 
0

>  <r_i_docking_score>  (600) 
-7.6966506123693703

>  <s_m_subgroup_title>  (600) 
glide-dock_SP_D22_pv

>  <s_m_subgroupid>  (600) 
glide-dock_SP_D22_pv

>  <Molecule ChEMBL ID>  (600) 
CHEMBL3895540

>  <Standard Type>  (600) 
Ki

>  <Standard Value>  (600) 
0.3

>  <label>  (600) 
1

$$$$
CHEMBL1085672
     RDKit          3D

 41 43  0  0  1  0  0  0  0  0999 V2000
    8.9576    8.5974   -7.4780 O   0  0  0  0  0  0  0  0  0  0  0  0
   10.0961    8.5216   -7.9337 C   0  0  0  0  0  0  0  0  0  0  0  0
   10.4259    8.4561   -9.2332 N   0  0  0  0  0  0  0  0  0  0  0  0
    9.5013    8.4288  -10.3586 C   0  0  0  0  0  0  0  0  0  0  0  0
    9.2199    7.0040  -10.8587 C   0  0  1  0  0  0  0  0  0  0  0  0
    8.8799    5.9990   -9.7443 C   0  0  0  0  0  0  0  0  0  0  0  0
    8.4832    4.6351  -10.3148 C   0  0  0  0  0  0  0  0  0  0  0  0
    7.4415    4.7444  -11.4441 C   0  0  0  0  0  0  0  0  0  0  0  0
    7.8615    5.7629  -12.4991 C   0  0  0  0  0  0  0  0  0  0  0  0
    8.1231    7.0585  -11.8471 N   0  0  0  0  0  0  0  0  0  0  0  0
   11.8547    8.4403   -9.4574 C   0  0  0  0  0  0  0  0  0  0  0  0
   12.4113    8.3378   -8.0411 C   0  0  0  0  0  0  0  0  0  0  0  0
   11.2231    8.4603   -7.2141 N   0  0  0  0  0  0  0  0  0  0  0  0
   11.2986    8.5958   -5.8131 C   0  0  0  0  0  0  0  0  0  0  0  0
   11.0779    9.8559   -5.2258 C   0  0  0  0  0  0  0  0  0  0  0  0
   11.2861   10.0181   -3.8470 C   0  0  0  0  0  0  0  0  0  0  0  0
   11.7285    8.9536   -3.0519 C   0  0  0  0  0  0  0  0  0  0  0  0
   11.9271    7.6962   -3.6353 C   0  0  0  0  0  0  0  0  0  0  0  0
   12.4859    6.4157   -2.6465 Cl  0  0  0  0  0  0  0  0  0  0  0  0
   11.6860    7.5023   -5.0089 C   0  0  0  0  0  0  0  0  0  0  0  0
    8.5757    8.9408  -10.0851 H   0  0  0  0  0  0  0  0  0  0  0  0
    9.9378    8.9802  -11.1862 H   0  0  0  0  0  0  0  0  0  0  0  0
   10.1141    6.6461  -11.3723 H   0  0  0  0  0  0  0  0  0  0  0  0
    9.7330    5.8577   -9.0814 H   0  0  0  0  0  0  0  0  0  0  0  0
    8.0828    6.3936   -9.1182 H   0  0  0  0  0  0  0  0  0  0  0  0
    9.3832    4.1546  -10.6972 H   0  0  0  0  0  0  0  0  0  0  0  0
    8.0910    4.0302   -9.4958 H   0  0  0  0  0  0  0  0  0  0  0  0
    7.2671    3.7724  -11.9021 H   0  0  0  0  0  0  0  0  0  0  0  0
    6.4863    5.0743  -11.0469 H   0  0  0  0  0  0  0  0  0  0  0  0
    8.7504    5.4277  -13.0353 H   0  0  0  0  0  0  0  0  0  0  0  0
    7.0665    5.8816  -13.2316 H   0  0  0  0  0  0  0  0  0  0  0  0
    7.2997    7.3579  -11.2981 H   0  0  0  0  0  0  0  0  0  0  0  0
   12.1600    7.6010  -10.0825 H   0  0  0  0  0  0  0  0  0  0  0  0
   12.1398    9.3708   -9.9467 H   0  0  0  0  0  0  0  0  0  0  0  0
   13.1383    9.1223   -7.8263 H   0  0  0  0  0  0  0  0  0  0  0  0
   12.8827    7.3722   -7.8670 H   0  0  0  0  0  0  0  0  0  0  0  0
   10.7850   10.7019   -5.8313 H   0  0  0  0  0  0  0  0  0  0  0  0
   11.1558   10.9713   -3.3812 H   0  0  0  0  0  0  0  0  0  0  0  0
   11.9132    9.1050   -1.9984 H   0  0  0  0  0  0  0  0  0  0  0  0
   11.8550    6.5305   -5.4517 H   0  0  0  0  0  0  0  0  0  0  0  0
    8.3214    7.7631  -12.5395 H   0  0  0  0  0  0  0  0  0  0  0  0
  2  1  2  0
  3  2  1  0
  4  3  1  0
  5  4  1  0
  6  5  1  0
  7  6  1  0
  8  7  1  0
  9  8  1  0
 10  5  1  0
 10  9  1  0
 11  3  1  0
 12 11  1  0
 13  2  1  0
 13 12  1  0
 14 13  1  0
 15 14  2  0
 16 15  1  0
 17 16  2  0
 18 17  1  0
 19 18  1  0
 20 14  1  0
 20 18  2  0
 21  4  1  0
 22  4  1  0
  5 23  1  6
 24  6  1  0
 25  6  1  0
 26  7  1  0
 27  7  1  0
 28  8  1  0
 29  8  1  0
 30  9  1  0
 31  9  1  0
 32 10  1  0
 33 11  1  0
 34 11  1  0
 35 12  1  0
 36 12  1  0
 37 15  1  0
 38 16  1  0
 39 17  1  0
 40 20  1  0
 41 10  1  0
M  CHG  1  10   1
M  END
>  <b_m_subgroup_collapsed>  (601) 
0

>  <r_i_docking_score>  (601) 
-7.6956417126924803

>  <s_m_subgroup_title>  (601) 
glide-dock_SP_D22_pv

>  <s_m_subgroupid>  (601) 
glide-dock_SP_D22_pv

>  <Molecule ChEMBL ID>  (601) 
CHEMBL1085672

>  <Standard Type>  (601) 
Ki

>  <Standard Value>  (601) 
79.43

>  <label>  (601) 
1

$$$$
CHEMBL1259241
     RDKit          3D

 53 56  0  0  1  0  0  0  0  0999 V2000
    6.0873   -0.8563  -14.7127 C   0  0  0  0  0  0  0  0  0  0  0  0
    6.1006    0.5663  -14.1939 C   0  0  0  0  0  0  0  0  0  0  0  0
    5.2747    0.9364  -13.1195 C   0  0  0  0  0  0  0  0  0  0  0  0
    5.2918    2.2706  -12.6758 C   0  0  0  0  0  0  0  0  0  0  0  0
    6.1473    3.1863  -13.3195 C   0  0  0  0  0  0  0  0  0  0  0  0
    6.2595    4.6238  -12.8376 C   0  0  0  0  0  0  0  0  0  0  0  0
    7.6562    5.0960  -12.9487 N   0  0  0  0  0  0  0  0  0  0  0  0
    7.9612    6.3843  -12.2890 C   0  0  0  0  0  0  0  0  0  0  0  0
    9.0678    6.1961  -11.2349 C   0  0  0  0  0  0  0  0  0  0  0  0
   10.0510    5.5343  -11.8484 F   0  0  0  0  0  0  0  0  0  0  0  0
    9.6776    7.5243  -10.7164 C   0  0  0  0  0  0  0  0  0  0  0  0
   10.7173    7.2826   -9.5948 C   0  0  0  0  0  0  0  0  0  0  0  0
   10.0848    6.5064   -8.5221 N   0  0  0  0  0  0  0  0  0  0  0  0
    9.7332    6.9447   -7.2900 C   0  0  0  0  0  0  0  0  0  0  0  0
    8.8616    6.3781   -6.6468 O   0  0  0  0  0  0  0  0  0  0  0  0
   10.4806    8.0611   -6.6454 C   0  0  0  0  0  0  0  0  0  0  0  0
   10.4885    9.3690   -7.0463 C   0  0  0  0  0  0  0  0  0  0  0  0
   11.2864   10.4433   -5.9409 S   0  0  0  0  0  0  0  0  0  0  0  0
   11.6326    9.1236   -4.8415 C   0  0  0  0  0  0  0  0  0  0  0  0
   12.2625    9.2129   -3.5856 C   0  0  0  0  0  0  0  0  0  0  0  0
   12.4547    8.0576   -2.8134 C   0  0  0  0  0  0  0  0  0  0  0  0
   12.0170    6.8175   -3.3045 C   0  0  0  0  0  0  0  0  0  0  0  0
   11.3784    6.7366   -4.5589 C   0  0  0  0  0  0  0  0  0  0  0  0
   11.1532    7.8785   -5.3681 C   0  0  0  0  0  0  0  0  0  0  0  0
    9.6448    5.1810   -8.9858 C   0  0  0  0  0  0  0  0  0  0  0  0
    8.5633    5.3387  -10.0556 C   0  0  0  0  0  0  0  0  0  0  0  0
    6.9562    2.8330  -14.3440 N   0  0  0  0  0  0  0  0  0  0  0  0
    6.9277    1.5507  -14.7701 C   0  0  0  0  0  0  0  0  0  0  0  0
    5.0723   -1.1608  -14.9691 H   0  0  0  0  0  0  0  0  0  0  0  0
    6.7017   -0.9531  -15.6069 H   0  0  0  0  0  0  0  0  0  0  0  0
    6.4708   -1.5402  -13.9555 H   0  0  0  0  0  0  0  0  0  0  0  0
    4.6349    0.2059  -12.6474 H   0  0  0  0  0  0  0  0  0  0  0  0
    4.6795    2.5727  -11.8471 H   0  0  0  0  0  0  0  0  0  0  0  0
    5.5977    5.2625  -13.4242 H   0  0  0  0  0  0  0  0  0  0  0  0
    5.9352    4.6799  -11.7970 H   0  0  0  0  0  0  0  0  0  0  0  0
    8.2460    4.3936  -12.5248 H   0  0  0  0  0  0  0  0  0  0  0  0
    8.2828    7.0952  -13.0469 H   0  0  0  0  0  0  0  0  0  0  0  0
    7.0624    6.8010  -11.8470 H   0  0  0  0  0  0  0  0  0  0  0  0
   10.1411    8.0707  -11.5387 H   0  0  0  0  0  0  0  0  0  0  0  0
    8.8856    8.1677  -10.3319 H   0  0  0  0  0  0  0  0  0  0  0  0
   11.5658    6.7227   -9.9852 H   0  0  0  0  0  0  0  0  0  0  0  0
   11.1332    8.2290   -9.2598 H   0  0  0  0  0  0  0  0  0  0  0  0
   10.0065    9.7684   -7.9249 H   0  0  0  0  0  0  0  0  0  0  0  0
   12.5869   10.1705   -3.2056 H   0  0  0  0  0  0  0  0  0  0  0  0
   12.9171    8.1284   -1.8404 H   0  0  0  0  0  0  0  0  0  0  0  0
   12.1500    5.9236   -2.7116 H   0  0  0  0  0  0  0  0  0  0  0  0
   11.0259    5.7736   -4.8983 H   0  0  0  0  0  0  0  0  0  0  0  0
   10.4860    4.6330   -9.3972 H   0  0  0  0  0  0  0  0  0  0  0  0
    9.2671    4.5479   -8.1824 H   0  0  0  0  0  0  0  0  0  0  0  0
    7.6861    5.8018   -9.6050 H   0  0  0  0  0  0  0  0  0  0  0  0
    8.2437    4.3535  -10.3935 H   0  0  0  0  0  0  0  0  0  0  0  0
    7.5806    1.3079  -15.5954 H   0  0  0  0  0  0  0  0  0  0  0  0
    7.8993    5.1344  -13.9279 H   0  0  0  0  0  0  0  0  0  0  0  0
  2  1  1  0
  3  2  2  0
  4  3  1  0
  5  4  2  0
  6  5  1  0
  7  6  1  0
  8  7  1  0
  9  8  1  0
 10  9  1  0
 11  9  1  0
 12 11  1  0
 13 12  1  0
 14 13  1  0
 15 14  2  0
 16 14  1  0
 17 16  2  0
 18 17  1  0
 19 18  1  0
 20 19  2  0
 21 20  1  0
 22 21  2  0
 23 22  1  0
 24 16  1  0
 24 19  1  0
 24 23  2  0
 25 13  1  0
 26  9  1  0
 26 25  1  0
 27  5  1  0
 28  2  1  0
 28 27  2  0
 29  1  1  0
 30  1  1  0
 31  1  1  0
 32  3  1  0
 33  4  1  0
 34  6  1  0
 35  6  1  0
 36  7  1  0
 37  8  1  0
 38  8  1  0
 39 11  1  0
 40 11  1  0
 41 12  1  0
 42 12  1  0
 43 17  1  0
 44 20  1  0
 45 21  1  0
 46 22  1  0
 47 23  1  0
 48 25  1  0
 49 25  1  0
 50 26  1  0
 51 26  1  0
 52 28  1  0
 53  7  1  0
M  CHG  1   7   1
M  END
>  <b_m_subgroup_collapsed>  (602) 
0

>  <r_i_docking_score>  (602) 
-7.6941709685356097

>  <s_m_subgroup_title>  (602) 
glide-dock_SP_D22_pv

>  <s_m_subgroupid>  (602) 
glide-dock_SP_D22_pv

>  <Molecule ChEMBL ID>  (602) 
CHEMBL1259241

>  <Standard Type>  (602) 
Ki

>  <Standard Value>  (602) 
20000.0

>  <label>  (602) 
0

$$$$
CHEMBL4076408
     RDKit          3D

 66 70  0  0  1  0  0  0  0  0999 V2000
    6.9150   -0.2272  -13.9319 O   0  0  0  0  0  0  0  0  0  0  0  0
    7.8297    0.4785  -14.8401 S   0  0  0  0  0  0  0  0  0  0  0  0
    9.2510    0.1021  -14.8956 O   0  0  0  0  0  0  0  0  0  0  0  0
    7.2100    0.5286  -16.5413 C   0  0  0  0  0  0  0  0  0  0  0  0
    8.0391    1.2491  -17.4260 C   0  0  0  0  0  0  0  0  0  0  0  0
    7.6870    1.4092  -18.7730 C   0  0  0  0  0  0  0  0  0  0  0  0
    6.4837    0.8635  -19.2414 C   0  0  0  0  0  0  0  0  0  0  0  0
    5.6383    0.1190  -18.3947 C   0  0  0  0  0  0  0  0  0  0  0  0
    4.5132   -0.4017  -18.9308 N   0  0  0  0  0  0  0  0  0  0  0  0
    3.7145   -1.1629  -18.1630 C   0  0  0  0  0  0  0  0  0  0  0  0
    3.9878   -1.4276  -16.8144 C   0  0  0  0  0  0  0  0  0  0  0  0
    5.1449   -0.8766  -16.2397 C   0  0  0  0  0  0  0  0  0  0  0  0
    6.0076   -0.0711  -17.0263 C   0  0  0  0  0  0  0  0  0  0  0  0
    7.7647    2.1466  -14.3864 N   0  0  0  0  0  0  0  0  0  0  0  0
    6.4680    2.8027  -14.1407 C   0  0  0  0  0  0  0  0  0  0  0  0
    6.5661    3.8336  -13.0045 C   0  0  0  0  0  0  0  0  0  0  0  0
    7.7713    4.7757  -13.1710 C   0  0  0  0  0  0  0  0  0  0  0  0
    7.8907    5.7730  -12.0100 C   0  0  0  0  0  0  0  0  0  0  0  0
    8.3622    5.1612  -10.6717 C   0  0  0  0  0  0  0  0  0  0  0  0
    8.4874    6.1724   -9.5988 N   0  0  0  0  0  0  0  0  0  0  0  0
    8.5976    5.5360   -8.2576 C   0  0  0  0  0  0  0  0  0  0  0  0
    8.8912    6.5539   -7.1452 C   0  0  0  0  0  0  0  0  0  0  0  0
   10.0801    7.3245   -7.4729 N   0  0  0  0  0  0  0  0  0  0  0  0
   10.7259    7.9531   -6.3905 C   0  0  0  0  0  0  0  0  0  0  0  0
   11.0600    9.3243   -6.4410 C   0  0  0  0  0  0  0  0  0  0  0  0
   11.6937    9.9451   -5.3605 C   0  0  0  0  0  0  0  0  0  0  0  0
   12.0051    9.2221   -4.1982 C   0  0  0  0  0  0  0  0  0  0  0  0
   11.6915    7.8547   -4.1336 C   0  0  0  0  0  0  0  0  0  0  0  0
   12.0857    6.9634   -2.7113 Cl  0  0  0  0  0  0  0  0  0  0  0  0
   11.0666    7.2206   -5.2268 C   0  0  0  0  0  0  0  0  0  0  0  0
    9.9341    8.0549   -8.7247 C   0  0  0  0  0  0  0  0  0  0  0  0
    9.6186    7.1038   -9.8800 C   0  0  0  0  0  0  0  0  0  0  0  0
    9.0639    3.9788  -13.4205 C   0  0  0  0  0  0  0  0  0  0  0  0
    8.9049    3.0459  -14.6206 C   0  0  0  0  0  0  0  0  0  0  0  0
    8.9659    1.6747  -17.0699 H   0  0  0  0  0  0  0  0  0  0  0  0
    8.3385    1.9513  -19.4450 H   0  0  0  0  0  0  0  0  0  0  0  0
    6.2075    0.9893  -20.2777 H   0  0  0  0  0  0  0  0  0  0  0  0
    2.8428   -1.5817  -18.6414 H   0  0  0  0  0  0  0  0  0  0  0  0
    3.3324   -2.0707  -16.2418 H   0  0  0  0  0  0  0  0  0  0  0  0
    5.3327   -1.1339  -15.2159 H   0  0  0  0  0  0  0  0  0  0  0  0
    6.1341    3.2889  -15.0557 H   0  0  0  0  0  0  0  0  0  0  0  0
    5.7130    2.0570  -13.8923 H   0  0  0  0  0  0  0  0  0  0  0  0
    5.6443    4.4152  -12.9674 H   0  0  0  0  0  0  0  0  0  0  0  0
    6.6188    3.3198  -12.0483 H   0  0  0  0  0  0  0  0  0  0  0  0
    7.6078    5.3663  -14.0700 H   0  0  0  0  0  0  0  0  0  0  0  0
    8.5768    6.5509  -12.3393 H   0  0  0  0  0  0  0  0  0  0  0  0
    6.9299    6.2664  -11.8599 H   0  0  0  0  0  0  0  0  0  0  0  0
    7.6830    4.3764  -10.3515 H   0  0  0  0  0  0  0  0  0  0  0  0
    9.3301    4.6733  -10.7861 H   0  0  0  0  0  0  0  0  0  0  0  0
    7.6860    4.9935   -8.0211 H   0  0  0  0  0  0  0  0  0  0  0  0
    9.4001    4.7971   -8.2830 H   0  0  0  0  0  0  0  0  0  0  0  0
    8.0655    7.2530   -7.0331 H   0  0  0  0  0  0  0  0  0  0  0  0
    8.9783    6.0474   -6.1893 H   0  0  0  0  0  0  0  0  0  0  0  0
   10.8416    9.9352   -7.3002 H   0  0  0  0  0  0  0  0  0  0  0  0
   11.9469   10.9835   -5.4493 H   0  0  0  0  0  0  0  0  0  0  0  0
   12.4905    9.7122   -3.3667 H   0  0  0  0  0  0  0  0  0  0  0  0
   10.8549    6.1647   -5.1571 H   0  0  0  0  0  0  0  0  0  0  0  0
    9.1397    8.7968   -8.6225 H   0  0  0  0  0  0  0  0  0  0  0  0
   10.8526    8.5885   -8.9710 H   0  0  0  0  0  0  0  0  0  0  0  0
   10.5157    6.5246  -10.1033 H   0  0  0  0  0  0  0  0  0  0  0  0
    9.4063    7.7129  -10.7564 H   0  0  0  0  0  0  0  0  0  0  0  0
    9.9019    4.6570  -13.5883 H   0  0  0  0  0  0  0  0  0  0  0  0
    9.3215    3.3686  -12.5553 H   0  0  0  0  0  0  0  0  0  0  0  0
    9.8241    2.4775  -14.7560 H   0  0  0  0  0  0  0  0  0  0  0  0
    8.7449    3.6117  -15.5375 H   0  0  0  0  0  0  0  0  0  0  0  0
    7.6330    6.7376   -9.6072 H   0  0  0  0  0  0  0  0  0  0  0  0
  2  1  2  0
  3  2  2  0
  4  2  1  0
  5  4  1  0
  6  5  2  0
  7  6  1  0
  8  7  2  0
  9  8  1  0
 10  9  2  0
 11 10  1  0
 12 11  2  0
 13  4  2  0
 13  8  1  0
 13 12  1  0
 14  2  1  0
 15 14  1  0
 16 15  1  0
 17 16  1  0
 18 17  1  0
 19 18  1  0
 20 19  1  0
 21 20  1  0
 22 21  1  0
 23 22  1  0
 24 23  1  0
 25 24  2  0
 26 25  1  0
 27 26  2  0
 28 27  1  0
 29 28  1  0
 30 24  1  0
 30 28  2  0
 31 23  1  0
 32 20  1  0
 32 31  1  0
 33 17  1  0
 34 14  1  0
 34 33  1  0
 35  5  1  0
 36  6  1  0
 37  7  1  0
 38 10  1  0
 39 11  1  0
 40 12  1  0
 41 15  1  0
 42 15  1  0
 43 16  1  0
 44 16  1  0
 45 17  1  0
 46 18  1  0
 47 18  1  0
 48 19  1  0
 49 19  1  0
 50 21  1  0
 51 21  1  0
 52 22  1  0
 53 22  1  0
 54 25  1  0
 55 26  1  0
 56 27  1  0
 57 30  1  0
 58 31  1  0
 59 31  1  0
 60 32  1  0
 61 32  1  0
 62 33  1  0
 63 33  1  0
 64 34  1  0
 65 34  1  0
 66 20  1  0
M  CHG  1  20   1
M  END
>  <b_m_subgroup_collapsed>  (603) 
0

>  <r_i_docking_score>  (603) 
-7.6935506851020401

>  <s_m_subgroup_title>  (603) 
glide-dock_SP_D22_pv

>  <s_m_subgroupid>  (603) 
glide-dock_SP_D22_pv

>  <Molecule ChEMBL ID>  (603) 
CHEMBL4076408

>  <Standard Type>  (603) 
Ki

>  <Standard Value>  (603) 
76.0

>  <label>  (603) 
1

$$$$
CHEMBL3975989
     RDKit          3D

 60 64  0  0  1  0  0  0  0  0999 V2000
   12.0637    6.0295   -2.5425 C   0  0  0  0  0  0  0  0  0  0  0  0
   12.1757    7.4792   -2.6070 C   0  0  0  0  0  0  0  0  0  0  0  0
   12.4860    8.1723   -1.4663 N   0  0  0  0  0  0  0  0  0  0  0  0
   12.3712    9.4126   -1.8476 C   0  0  0  0  0  0  0  0  0  0  0  0
   12.0562    9.6085   -3.1540 O   0  0  0  0  0  0  0  0  0  0  0  0
   11.9145    8.3421   -3.6365 C   0  0  0  0  0  0  0  0  0  0  0  0
   11.5075    8.1120   -5.0211 C   0  0  0  0  0  0  0  0  0  0  0  0
   11.2860    6.8755   -5.4773 N   0  0  0  0  0  0  0  0  0  0  0  0
   11.0005    6.9967   -6.8105 N   0  0  0  0  0  0  0  0  0  0  0  0
   11.0511    8.3025   -7.0595 C   0  0  0  0  0  0  0  0  0  0  0  0
   10.7918    8.9723   -8.6655 S   0  0  0  0  0  0  0  0  0  0  0  0
    9.0593    8.4769   -8.8659 C   0  0  0  0  0  0  0  0  0  0  0  0
    8.9582    7.0956   -9.5185 C   0  0  0  0  0  0  0  0  0  0  0  0
    8.8861    7.1462  -11.0573 C   0  0  0  0  0  0  0  0  0  0  0  0
    8.6622    5.7815  -11.5782 N   0  0  2  0  0  0  0  0  0  0  0  0
    9.8773    4.9637  -11.5461 C   0  0  0  0  0  0  0  0  0  0  0  0
    9.6879    3.8639  -12.5700 C   0  0  0  0  0  0  0  0  0  0  0  0
    8.6950    4.4193  -13.5558 C   0  0  2  0  0  0  0  0  0  0  0  0
    7.7456    3.5266  -14.3149 C   0  0  0  0  0  0  0  0  0  0  0  0
    8.8868    4.2046  -15.0465 C   0  0  2  0  0  0  0  0  0  0  0  0
    9.9999    3.3927  -15.6729 C   0  0  0  0  0  0  0  0  0  0  0  0
    9.7546    2.0419  -16.0215 C   0  0  0  0  0  0  0  0  0  0  0  0
   10.7317    1.2619  -16.6645 C   0  0  0  0  0  0  0  0  0  0  0  0
   11.9740    1.8280  -16.9872 C   0  0  0  0  0  0  0  0  0  0  0  0
   12.2387    3.1655  -16.6469 C   0  0  0  0  0  0  0  0  0  0  0  0
   11.2685    3.9566  -15.9891 C   0  0  0  0  0  0  0  0  0  0  0  0
   11.5928    5.4192  -15.6977 C   0  0  0  0  0  0  0  0  0  0  0  0
   12.8945    5.6748  -15.8336 F   0  0  0  0  0  0  0  0  0  0  0  0
   10.9271    6.1723  -16.5691 F   0  0  0  0  0  0  0  0  0  0  0  0
   11.2447    5.7695  -14.4607 F   0  0  0  0  0  0  0  0  0  0  0  0
    8.1501    5.7102  -12.9567 C   0  0  0  0  0  0  0  0  0  0  0  0
   11.3299    9.0537   -5.9719 N   0  0  0  0  0  0  0  0  0  0  0  0
   11.4381   10.4959   -5.8535 C   0  0  0  0  0  0  0  0  0  0  0  0
   12.8860    5.5304   -3.0470 H   0  0  0  0  0  0  0  0  0  0  0  0
   12.0430    5.7042   -1.5057 H   0  0  0  0  0  0  0  0  0  0  0  0
   11.1191    5.7723   -3.0072 H   0  0  0  0  0  0  0  0  0  0  0  0
   12.4860   10.2259   -1.1556 H   0  0  0  0  0  0  0  0  0  0  0  0
    8.5813    8.4632   -7.8848 H   0  0  0  0  0  0  0  0  0  0  0  0
    8.5196    9.2220   -9.4523 H   0  0  0  0  0  0  0  0  0  0  0  0
    9.8010    6.4819   -9.2023 H   0  0  0  0  0  0  0  0  0  0  0  0
    8.0856    6.5734   -9.1291 H   0  0  0  0  0  0  0  0  0  0  0  0
    8.0862    7.7914  -11.4280 H   0  0  0  0  0  0  0  0  0  0  0  0
    9.8001    7.5800  -11.4655 H   0  0  0  0  0  0  0  0  0  0  0  0
   10.6843    5.6128  -11.8826 H   0  0  0  0  0  0  0  0  0  0  0  0
   10.0861    4.5821  -10.5468 H   0  0  0  0  0  0  0  0  0  0  0  0
   10.6289    3.5909  -13.0464 H   0  0  0  0  0  0  0  0  0  0  0  0
    9.2860    2.9724  -12.1105 H   0  0  0  0  0  0  0  0  0  0  0  0
    7.8050    2.4690  -14.0672 H   0  0  0  0  0  0  0  0  0  0  0  0
    6.7358    3.8959  -14.4817 H   0  0  0  0  0  0  0  0  0  0  0  0
    8.7263    5.1071  -15.6301 H   0  0  0  0  0  0  0  0  0  0  0  0
    8.7988    1.5838  -15.8189 H   0  0  0  0  0  0  0  0  0  0  0  0
   10.5221    0.2337  -16.9215 H   0  0  0  0  0  0  0  0  0  0  0  0
   12.7278    1.2364  -17.4857 H   0  0  0  0  0  0  0  0  0  0  0  0
   13.2014    3.5812  -16.9054 H   0  0  0  0  0  0  0  0  0  0  0  0
    7.0594    5.7193  -12.9525 H   0  0  0  0  0  0  0  0  0  0  0  0
    8.4860    6.5690  -13.5315 H   0  0  0  0  0  0  0  0  0  0  0  0
   10.8884   10.9804   -6.6469 H   0  0  0  0  0  0  0  0  0  0  0  0
   10.9921   10.8394   -4.9214 H   0  0  0  0  0  0  0  0  0  0  0  0
   12.4852   10.7925   -5.8990 H   0  0  0  0  0  0  0  0  0  0  0  0
    7.9655    5.3395  -10.9922 H   0  0  0  0  0  0  0  0  0  0  0  0
  2  1  1  0
  3  2  1  0
  4  3  2  0
  5  4  1  0
  6  2  2  0
  6  5  1  0
  7  6  1  0
  8  7  2  0
  9  8  1  0
 10  9  2  0
 11 10  1  0
 12 11  1  0
 13 12  1  0
 14 13  1  0
 15 14  1  0
 16 15  1  0
 17 16  1  0
 18 17  1  1
 19 18  1  0
 20 18  1  0
 20 19  1  0
 21 20  1  0
 22 21  2  0
 23 22  1  0
 24 23  2  0
 25 24  1  0
 26 21  1  0
 26 25  2  0
 27 26  1  0
 28 27  1  0
 29 27  1  0
 30 27  1  0
 31 15  1  0
 31 18  1  0
 32  7  1  0
 32 10  1  0
 33 32  1  0
 34  1  1  0
 35  1  1  0
 36  1  1  0
 37  4  1  0
 38 12  1  0
 39 12  1  0
 40 13  1  0
 41 13  1  0
 42 14  1  0
 43 14  1  0
 44 16  1  0
 45 16  1  0
 46 17  1  0
 47 17  1  0
 48 19  1  0
 49 19  1  0
 20 50  1  6
 51 22  1  0
 52 23  1  0
 53 24  1  0
 54 25  1  0
 55 31  1  0
 56 31  1  0
 57 33  1  0
 58 33  1  0
 59 33  1  0
 15 60  1  1
M  CHG  1  15   1
M  END
>  <b_m_subgroup_collapsed>  (604) 
0

>  <r_i_docking_score>  (604) 
-7.6934260595051303

>  <s_m_subgroup_title>  (604) 
glide-dock_SP_D22_pv

>  <s_m_subgroupid>  (604) 
glide-dock_SP_D22_pv

>  <Molecule ChEMBL ID>  (604) 
CHEMBL3975989

>  <Standard Type>  (604) 
Ki

>  <Standard Value>  (604) 
63.1

>  <label>  (604) 
1

$$$$
CHEMBL198463
     RDKit          3D

 63 68  0  0  1  0  0  0  0  0999 V2000
   10.7802   -0.7757  -17.7697 C   0  0  0  0  0  0  0  0  0  0  0  0
   10.4851    0.1477  -16.6499 N   0  0  1  0  0  0  0  0  0  0  0  0
   11.2730    1.4081  -16.7242 C   0  0  0  0  0  0  0  0  0  0  0  0
   11.1172    2.2412  -15.4352 C   0  0  0  0  0  0  0  0  0  0  0  0
    9.6725    2.3846  -15.0540 C   0  0  0  0  0  0  0  0  0  0  0  0
    8.7408    1.5064  -15.5407 C   0  0  0  0  0  0  0  0  0  0  0  0
    7.1386    1.8653  -14.9547 S   0  0  0  0  0  0  0  0  0  0  0  0
    7.7262    3.2435  -14.0621 C   0  0  0  0  0  0  0  0  0  0  0  0
    6.8719    4.0533  -13.3449 N   0  0  0  0  0  0  0  0  0  0  0  0
    7.4838    5.0058  -12.6954 C   0  0  0  0  0  0  0  0  0  0  0  0
    8.8900    5.2119  -12.6785 N   0  0  0  0  0  0  0  0  0  0  0  0
    9.4015    6.2666  -11.7857 C   0  0  0  0  0  0  0  0  0  0  0  0
    8.9939    6.0209  -10.3183 C   0  0  0  0  0  0  0  0  0  0  0  0
   10.0275    6.3637   -9.3513 N   0  0  0  0  0  0  0  0  0  0  0  0
   10.4213    7.7761   -9.3658 C   0  0  0  0  0  0  0  0  0  0  0  0
   11.6154    7.9516   -8.4021 C   0  0  0  0  0  0  0  0  0  0  0  0
   11.2781    7.4858   -7.0554 N   0  0  0  0  0  0  0  0  0  0  0  0
   11.2795    8.3583   -5.9496 C   0  0  0  0  0  0  0  0  0  0  0  0
   10.8860    9.6986   -6.1370 C   0  0  0  0  0  0  0  0  0  0  0  0
   10.8860   10.5778   -5.0469 C   0  0  0  0  0  0  0  0  0  0  0  0
   11.2860   10.1723   -3.8444 N   0  0  0  0  0  0  0  0  0  0  0  0
   11.6860    8.9331   -3.5966 C   0  0  0  0  0  0  0  0  0  0  0  0
   12.0868    8.6417   -2.2914 C   0  0  0  0  0  0  0  0  0  0  0  0
   12.4860    7.3419   -2.0064 C   0  0  0  0  0  0  0  0  0  0  0  0
   12.4858    6.3581   -2.9915 C   0  0  0  0  0  0  0  0  0  0  0  0
   12.0652    6.6560   -4.2934 C   0  0  0  0  0  0  0  0  0  0  0  0
   11.6716    7.9646   -4.6342 C   0  0  0  0  0  0  0  0  0  0  0  0
   10.5971    6.1990   -6.9797 C   0  0  0  0  0  0  0  0  0  0  0  0
    9.4829    6.0798   -8.0236 C   0  0  0  0  0  0  0  0  0  0  0  0
    9.7441    4.4465  -13.4148 C   0  0  0  0  0  0  0  0  0  0  0  0
   10.9645    4.6094  -13.4469 O   0  0  0  0  0  0  0  0  0  0  0  0
    9.0861    3.3579  -14.1853 C   0  0  0  0  0  0  0  0  0  0  0  0
    9.0230    0.3863  -16.4906 C   0  0  0  0  0  0  0  0  0  0  0  0
   10.4504   -0.3554  -18.7210 H   0  0  0  0  0  0  0  0  0  0  0  0
   11.8495   -0.9756  -17.8469 H   0  0  0  0  0  0  0  0  0  0  0  0
   10.2728   -1.7305  -17.6255 H   0  0  0  0  0  0  0  0  0  0  0  0
   10.9338    1.9869  -17.5851 H   0  0  0  0  0  0  0  0  0  0  0  0
   12.3294    1.1890  -16.8876 H   0  0  0  0  0  0  0  0  0  0  0  0
   11.5788    3.2172  -15.5872 H   0  0  0  0  0  0  0  0  0  0  0  0
   11.6620    1.7723  -14.6167 H   0  0  0  0  0  0  0  0  0  0  0  0
    6.9264    5.7259  -12.0923 H   0  0  0  0  0  0  0  0  0  0  0  0
    9.0194    7.2343  -12.1149 H   0  0  0  0  0  0  0  0  0  0  0  0
   10.4866    6.3505  -11.8516 H   0  0  0  0  0  0  0  0  0  0  0  0
    8.7620    4.9632  -10.1803 H   0  0  0  0  0  0  0  0  0  0  0  0
    8.0860    6.5723  -10.0896 H   0  0  0  0  0  0  0  0  0  0  0  0
    9.5830    8.4151   -9.0816 H   0  0  0  0  0  0  0  0  0  0  0  0
   10.7285    8.0805  -10.3659 H   0  0  0  0  0  0  0  0  0  0  0  0
   11.9558    8.9863   -8.4033 H   0  0  0  0  0  0  0  0  0  0  0  0
   12.4631    7.3723   -8.7645 H   0  0  0  0  0  0  0  0  0  0  0  0
   10.5423   10.0479   -7.0944 H   0  0  0  0  0  0  0  0  0  0  0  0
   10.5737   11.6042   -5.0469 H   0  0  0  0  0  0  0  0  0  0  0  0
   12.1117    9.3950   -1.5162 H   0  0  0  0  0  0  0  0  0  0  0  0
   12.8860    7.1004   -1.0469 H   0  0  0  0  0  0  0  0  0  0  0  0
   12.8393    5.3723   -2.7455 H   0  0  0  0  0  0  0  0  0  0  0  0
   12.0928    5.8633   -5.0219 H   0  0  0  0  0  0  0  0  0  0  0  0
   11.3300    5.4046   -7.1229 H   0  0  0  0  0  0  0  0  0  0  0  0
   10.1413    6.0744   -5.9986 H   0  0  0  0  0  0  0  0  0  0  0  0
    8.6581    6.7574   -7.7910 H   0  0  0  0  0  0  0  0  0  0  0  0
    9.0776    5.0675   -7.9880 H   0  0  0  0  0  0  0  0  0  0  0  0
    8.5410   -0.5294  -16.1465 H   0  0  0  0  0  0  0  0  0  0  0  0
    8.5847    0.6303  -17.4594 H   0  0  0  0  0  0  0  0  0  0  0  0
   11.2874   10.8490   -3.0779 H   0  0  0  0  0  0  0  0  0  0  0  0
   10.7843   -0.3087  -15.8003 H   0  0  0  0  0  0  0  0  0  0  0  0
  2  1  1  0
  3  2  1  0
  4  3  1  0
  5  4  1  0
  6  5  2  0
  7  6  1  0
  8  7  1  0
  9  8  1  0
 10  9  2  0
 11 10  1  0
 12 11  1  0
 13 12  1  0
 14 13  1  0
 15 14  1  0
 16 15  1  0
 17 16  1  0
 18 17  1  0
 19 18  2  0
 20 19  1  0
 21 20  2  0
 22 21  1  0
 23 22  2  0
 24 23  1  0
 25 24  2  0
 26 25  1  0
 27 18  1  0
 27 22  1  0
 27 26  2  0
 28 17  1  0
 29 14  1  0
 29 28  1  0
 30 11  1  0
 31 30  2  0
 32  5  1  0
 32  8  2  0
 32 30  1  0
 33  2  1  0
 33  6  1  0
 34  1  1  0
 35  1  1  0
 36  1  1  0
 37  3  1  0
 38  3  1  0
 39  4  1  0
 40  4  1  0
 41 10  1  0
 42 12  1  0
 43 12  1  0
 44 13  1  0
 45 13  1  0
 46 15  1  0
 47 15  1  0
 48 16  1  0
 49 16  1  0
 50 19  1  0
 51 20  1  0
 52 23  1  0
 53 24  1  0
 54 25  1  0
 55 26  1  0
 56 28  1  0
 57 28  1  0
 58 29  1  0
 59 29  1  0
 60 33  1  0
 61 33  1  0
 62 21  1  0
  2 63  1  1
M  CHG  2   2   1  21   1
M  END
>  <b_m_subgroup_collapsed>  (605) 
0

>  <r_i_docking_score>  (605) 
-7.6907978375383497

>  <s_m_subgroup_title>  (605) 
glide-dock_SP_D22_pv

>  <s_m_subgroupid>  (605) 
glide-dock_SP_D22_pv

>  <Molecule ChEMBL ID>  (605) 
CHEMBL198463

>  <Standard Type>  (605) 
Ki

>  <Standard Value>  (605) 
1.46

>  <label>  (605) 
1

$$$$
CHEMBL164979
     RDKit          3D

 56 58  0  0  1  0  0  0  0  0999 V2000
    8.9090    8.8502   -8.9468 C   0  0  0  0  0  0  0  0  0  0  0  0
    8.8869    7.4799   -8.3648 N   0  0  2  0  0  0  0  0  0  0  0  0
    9.3472    7.4710   -6.9483 C   0  0  0  0  0  0  0  0  0  0  0  0
   10.8639    7.7388   -6.7831 C   0  0  0  0  0  0  0  0  0  0  0  0
   11.2858    7.9118   -5.3356 C   0  0  0  0  0  0  0  0  0  0  0  0
   11.6755    6.7997   -4.5619 C   0  0  0  0  0  0  0  0  0  0  0  0
   12.0849    6.9739   -3.2249 C   0  0  0  0  0  0  0  0  0  0  0  0
   12.1021    8.2617   -2.6574 C   0  0  0  0  0  0  0  0  0  0  0  0
   11.7255    9.3749   -3.4300 C   0  0  0  0  0  0  0  0  0  0  0  0
   11.3175    9.2039   -4.7669 C   0  0  0  0  0  0  0  0  0  0  0  0
    9.5642    6.4695   -9.2220 C   0  0  0  0  0  0  0  0  0  0  0  0
    8.7469    6.0816  -10.4720 C   0  0  0  0  0  0  0  0  0  0  0  0
    9.5313    5.2827  -11.5337 C   0  0  1  0  0  0  0  0  0  0  0  0
    8.5665    4.6412  -12.5522 C   0  0  0  0  0  0  0  0  0  0  0  0
    9.3128    3.9139  -13.6854 C   0  0  0  0  0  0  0  0  0  0  0  0
   10.2656    4.8678  -14.4301 C   0  0  2  0  0  0  0  0  0  0  0  0
   10.9661    4.1696  -15.4996 N   0  0  0  0  0  0  0  0  0  0  0  0
   11.7563    4.7831  -16.4512 C   0  0  0  0  0  0  0  0  0  0  0  0
   12.5367    3.9624  -17.1490 N   0  0  0  0  0  0  0  0  0  0  0  0
   13.3444    4.5282  -18.0697 C   0  0  0  0  0  0  0  0  0  0  0  0
   13.3600    5.9167  -18.2908 C   0  0  0  0  0  0  0  0  0  0  0  0
   12.4872    6.6826  -17.4938 C   0  0  0  0  0  0  0  0  0  0  0  0
   11.6855    6.1124  -16.5755 N   0  0  0  0  0  0  0  0  0  0  0  0
   11.2552    5.4903  -13.4289 C   0  0  0  0  0  0  0  0  0  0  0  0
   10.5281    6.1987  -12.2735 C   0  0  0  0  0  0  0  0  0  0  0  0
    9.9233    9.2416   -9.0307 H   0  0  0  0  0  0  0  0  0  0  0  0
    8.4864    8.8810   -9.9475 H   0  0  0  0  0  0  0  0  0  0  0  0
    8.3284    9.5333   -8.3251 H   0  0  0  0  0  0  0  0  0  0  0  0
    8.7750    8.2171   -6.3964 H   0  0  0  0  0  0  0  0  0  0  0  0
    9.0961    6.5098   -6.4957 H   0  0  0  0  0  0  0  0  0  0  0  0
   11.4461    6.9224   -7.2179 H   0  0  0  0  0  0  0  0  0  0  0  0
   11.1700    8.6376   -7.3155 H   0  0  0  0  0  0  0  0  0  0  0  0
   11.6605    5.8078   -4.9883 H   0  0  0  0  0  0  0  0  0  0  0  0
   12.3756    6.1169   -2.6339 H   0  0  0  0  0  0  0  0  0  0  0  0
   12.4092    8.3974   -1.6291 H   0  0  0  0  0  0  0  0  0  0  0  0
   11.7419   10.3631   -2.9928 H   0  0  0  0  0  0  0  0  0  0  0  0
   11.0348   10.0665   -5.3526 H   0  0  0  0  0  0  0  0  0  0  0  0
    9.7475    5.5623   -8.6412 H   0  0  0  0  0  0  0  0  0  0  0  0
   10.5465    6.8538   -9.4978 H   0  0  0  0  0  0  0  0  0  0  0  0
    8.3556    6.9669  -10.9713 H   0  0  0  0  0  0  0  0  0  0  0  0
    7.8693    5.5169  -10.1490 H   0  0  0  0  0  0  0  0  0  0  0  0
   10.0843    4.4811  -11.0407 H   0  0  0  0  0  0  0  0  0  0  0  0
    7.9028    3.9379  -12.0472 H   0  0  0  0  0  0  0  0  0  0  0  0
    7.9207    5.4092  -12.9833 H   0  0  0  0  0  0  0  0  0  0  0  0
    8.5904    3.4907  -14.3844 H   0  0  0  0  0  0  0  0  0  0  0  0
    9.8720    3.0743  -13.2705 H   0  0  0  0  0  0  0  0  0  0  0  0
    9.6707    5.6622  -14.8846 H   0  0  0  0  0  0  0  0  0  0  0  0
   11.0735    3.1667  -15.4250 H   0  0  0  0  0  0  0  0  0  0  0  0
   13.9864    3.8674  -18.6332 H   0  0  0  0  0  0  0  0  0  0  0  0
   14.0032    6.3737  -19.0292 H   0  0  0  0  0  0  0  0  0  0  0  0
   12.4323    7.7555  -17.5977 H   0  0  0  0  0  0  0  0  0  0  0  0
   11.9127    4.7113  -13.0469 H   0  0  0  0  0  0  0  0  0  0  0  0
   11.9050    6.2115  -13.9270 H   0  0  0  0  0  0  0  0  0  0  0  0
   11.2781    6.5738  -11.5821 H   0  0  0  0  0  0  0  0  0  0  0  0
   10.0058    7.0789  -12.6471 H   0  0  0  0  0  0  0  0  0  0  0  0
    7.8983    7.2277   -8.3364 H   0  0  0  0  0  0  0  0  0  0  0  0
  2  1  1  0
  3  2  1  0
  4  3  1  0
  5  4  1  0
  6  5  2  0
  7  6  1  0
  8  7  2  0
  9  8  1  0
 10  5  1  0
 10  9  2  0
 11  2  1  0
 12 11  1  0
 13 12  1  0
 14 13  1  0
 15 14  1  0
 16 15  1  0
 17 16  1  0
 18 17  1  0
 19 18  2  0
 20 19  1  0
 21 20  2  0
 22 21  1  0
 23 18  1  0
 23 22  2  0
 24 16  1  0
 25 13  1  0
 25 24  1  0
 26  1  1  0
 27  1  1  0
 28  1  1  0
 29  3  1  0
 30  3  1  0
 31  4  1  0
 32  4  1  0
 33  6  1  0
 34  7  1  0
 35  8  1  0
 36  9  1  0
 37 10  1  0
 38 11  1  0
 39 11  1  0
 40 12  1  0
 41 12  1  0
 13 42  1  1
 43 14  1  0
 44 14  1  0
 45 15  1  0
 46 15  1  0
 16 47  1  6
 48 17  1  0
 49 20  1  0
 50 21  1  0
 51 22  1  0
 52 24  1  0
 53 24  1  0
 54 25  1  0
 55 25  1  0
  2 56  1  1
M  CHG  1   2   1
M  END
>  <b_m_subgroup_collapsed>  (606) 
0

>  <r_i_docking_score>  (606) 
-7.6881359142443202

>  <s_m_subgroup_title>  (606) 
glide-dock_SP_D22_pv

>  <s_m_subgroupid>  (606) 
glide-dock_SP_D22_pv

>  <Molecule ChEMBL ID>  (606) 
CHEMBL164979

>  <Standard Type>  (606) 
Ki

>  <Standard Value>  (606) 
39.0

>  <label>  (606) 
1

$$$$
CHEMBL3764830
     RDKit          3D

 62 65  0  0  1  0  0  0  0  0999 V2000
   10.2814    1.3129  -14.3452 C   0  0  0  0  0  0  0  0  0  0  0  0
    9.9909    2.2796  -15.3910 N   0  0  0  0  0  0  0  0  0  0  0  0
   10.6877    3.3917  -15.6851 C   0  0  0  0  0  0  0  0  0  0  0  0
   12.0860    3.8511  -14.7171 S   0  0  0  0  0  0  0  0  0  0  0  0
   12.4428    5.5377  -15.2766 C   0  0  0  0  0  0  0  0  0  0  0  0
   11.4951    6.5290  -14.6045 C   0  0  0  0  0  0  0  0  0  0  0  0
   11.7550    6.7170  -13.0912 C   0  0  0  0  0  0  0  0  0  0  0  0
   10.5650    6.8816  -12.2464 N   0  0  0  0  0  0  0  0  0  0  0  0
    9.7677    5.6521  -12.1777 C   0  0  0  0  0  0  0  0  0  0  0  0
    8.5831    5.7722  -11.2050 C   0  0  0  0  0  0  0  0  0  0  0  0
    9.0790    6.1136   -9.9167 O   0  0  0  0  0  0  0  0  0  0  0  0
    9.7581    7.3672   -9.9028 C   0  0  1  0  0  0  0  0  0  0  0  0
   10.2279    7.7430   -8.5018 C   0  0  0  0  0  0  0  0  0  0  0  0
   10.0275    6.8806   -7.4011 C   0  0  0  0  0  0  0  0  0  0  0  0
   10.4866    7.2423   -6.1179 C   0  0  0  0  0  0  0  0  0  0  0  0
   11.1530    8.4703   -5.9166 C   0  0  0  0  0  0  0  0  0  0  0  0
   11.6690    8.8813   -4.5449 C   0  0  0  0  0  0  0  0  0  0  0  0
   12.9016    9.3721   -4.6469 F   0  0  0  0  0  0  0  0  0  0  0  0
   10.8861    9.8339   -4.0444 F   0  0  0  0  0  0  0  0  0  0  0  0
   11.6977    7.8521   -3.6967 F   0  0  0  0  0  0  0  0  0  0  0  0
   11.3394    9.3351   -7.0128 C   0  0  0  0  0  0  0  0  0  0  0  0
   10.8861    8.9723   -8.2954 C   0  0  0  0  0  0  0  0  0  0  0  0
   10.9453    7.2820  -10.8886 C   0  0  0  0  0  0  0  0  0  0  0  0
   10.2295    4.0456  -16.7513 N   0  0  0  0  0  0  0  0  0  0  0  0
    9.1473    3.3136  -17.1822 N   0  0  0  0  0  0  0  0  0  0  0  0
    9.0088    2.3006  -16.3183 C   0  0  0  0  0  0  0  0  0  0  0  0
    7.8912    1.3638  -16.4028 C   0  0  0  0  0  0  0  0  0  0  0  0
    7.1272    1.0592  -15.2530 C   0  0  0  0  0  0  0  0  0  0  0  0
    6.0378    0.1718  -15.3341 C   0  0  0  0  0  0  0  0  0  0  0  0
    5.6844   -0.3779  -16.5792 C   0  0  0  0  0  0  0  0  0  0  0  0
    4.2379   -1.4198  -16.6893 S   0  0  0  0  0  0  0  0  0  0  0  0
    4.8861   -2.9669  -16.3363 N   0  0  0  0  0  0  0  0  0  0  0  0
    3.3139   -1.0550  -15.6028 O   0  0  0  0  0  0  0  0  0  0  0  0
    3.7890   -1.4357  -18.0897 O   0  0  0  0  0  0  0  0  0  0  0  0
    6.4351   -0.0842  -17.7342 C   0  0  0  0  0  0  0  0  0  0  0  0
    7.5437    0.7815  -17.6418 C   0  0  0  0  0  0  0  0  0  0  0  0
   10.6219    1.8314  -13.4469 H   0  0  0  0  0  0  0  0  0  0  0  0
    9.4126    0.7116  -14.0889 H   0  0  0  0  0  0  0  0  0  0  0  0
   11.0701    0.6446  -14.6874 H   0  0  0  0  0  0  0  0  0  0  0  0
   13.4764    5.7807  -15.0255 H   0  0  0  0  0  0  0  0  0  0  0  0
   12.3664    5.5972  -16.3621 H   0  0  0  0  0  0  0  0  0  0  0  0
   11.5959    7.4950  -15.0984 H   0  0  0  0  0  0  0  0  0  0  0  0
   10.4862    6.1722  -14.8031 H   0  0  0  0  0  0  0  0  0  0  0  0
   12.3471    5.8827  -12.7169 H   0  0  0  0  0  0  0  0  0  0  0  0
   12.4028    7.5873  -12.9771 H   0  0  0  0  0  0  0  0  0  0  0  0
    9.3753    5.3926  -13.1595 H   0  0  0  0  0  0  0  0  0  0  0  0
   10.3925    4.8140  -11.8694 H   0  0  0  0  0  0  0  0  0  0  0  0
    7.8711    6.5229  -11.5516 H   0  0  0  0  0  0  0  0  0  0  0  0
    8.0465    4.8256  -11.1392 H   0  0  0  0  0  0  0  0  0  0  0  0
    9.0624    8.1423  -10.2319 H   0  0  0  0  0  0  0  0  0  0  0  0
    9.5190    5.9367   -7.5301 H   0  0  0  0  0  0  0  0  0  0  0  0
   10.3203    6.5685   -5.2903 H   0  0  0  0  0  0  0  0  0  0  0  0
   11.8398   10.2797   -6.8656 H   0  0  0  0  0  0  0  0  0  0  0  0
   11.0426    9.6485   -9.1227 H   0  0  0  0  0  0  0  0  0  0  0  0
   11.6598    6.5737  -10.4719 H   0  0  0  0  0  0  0  0  0  0  0  0
   11.4593    8.2425  -10.9329 H   0  0  0  0  0  0  0  0  0  0  0  0
    7.3624    1.5156  -14.3023 H   0  0  0  0  0  0  0  0  0  0  0  0
    5.4542   -0.0543  -14.4535 H   0  0  0  0  0  0  0  0  0  0  0  0
    4.1065   -3.6395  -16.2469 H   0  0  0  0  0  0  0  0  0  0  0  0
    5.5196   -3.2674  -17.0746 H   0  0  0  0  0  0  0  0  0  0  0  0
    6.1597   -0.5112  -18.6866 H   0  0  0  0  0  0  0  0  0  0  0  0
    8.1163    1.0084  -18.5284 H   0  0  0  0  0  0  0  0  0  0  0  0
  2  1  1  0
  3  2  1  0
  4  3  1  0
  5  4  1  0
  6  5  1  0
  7  6  1  0
  8  7  1  0
  9  8  1  0
 10  9  1  0
 11 10  1  0
 12 11  1  0
 13 12  1  0
 14 13  1  0
 15 14  2  0
 16 15  1  0
 17 16  1  0
 18 17  1  0
 19 17  1  0
 20 17  1  0
 21 16  2  0
 22 13  2  0
 22 21  1  0
 23  8  1  0
 23 12  1  0
 24  3  2  0
 25 24  1  0
 26  2  1  0
 26 25  2  0
 27 26  1  0
 28 27  1  0
 29 28  2  0
 30 29  1  0
 31 30  1  0
 32 31  1  0
 33 31  2  0
 34 31  2  0
 35 30  2  0
 36 27  2  0
 36 35  1  0
 37  1  1  0
 38  1  1  0
 39  1  1  0
 40  5  1  0
 41  5  1  0
 42  6  1  0
 43  6  1  0
 44  7  1  0
 45  7  1  0
 46  9  1  0
 47  9  1  0
 48 10  1  0
 49 10  1  0
 12 50  1  6
 51 14  1  0
 52 15  1  0
 53 21  1  0
 54 22  1  0
 55 23  1  0
 56 23  1  0
 57 28  1  0
 58 29  1  0
 59 32  1  0
 60 32  1  0
 61 35  1  0
 62 36  1  0
M  END
>  <b_m_subgroup_collapsed>  (607) 
0

>  <r_i_docking_score>  (607) 
-7.68781506326585

>  <s_m_subgroup_title>  (607) 
glide-dock_SP_D22_pv

>  <s_m_subgroupid>  (607) 
glide-dock_SP_D22_pv

>  <Molecule ChEMBL ID>  (607) 
CHEMBL3764830

>  <Standard Type>  (607) 
Ki

>  <Standard Value>  (607) 
31622.78

>  <label>  (607) 
0

$$$$
CHEMBL1774552
     RDKit          3D

 56 59  0  0  1  0  0  0  0  0999 V2000
   11.2860    6.0801   -7.3459 O   0  0  0  0  0  0  0  0  0  0  0  0
   10.4821    6.9785   -7.1375 C   0  0  0  0  0  0  0  0  0  0  0  0
    9.2866    7.0699   -7.7347 N   0  0  0  0  0  0  0  0  0  0  0  0
    8.8921    6.3031   -8.9070 C   0  0  0  0  0  0  0  0  0  0  0  0
    9.3511    7.0367  -10.1827 C   0  0  0  0  0  0  0  0  0  0  0  0
    8.7684    6.4657  -11.4826 C   0  0  0  0  0  0  0  0  0  0  0  0
    9.1897    5.0129  -11.7458 C   0  0  0  0  0  0  0  0  0  0  0  0
    8.5201    4.4246  -12.9301 N   0  0  0  0  0  0  0  0  0  0  0  0
    9.3337    3.3130  -13.4940 C   0  0  0  0  0  0  0  0  0  0  0  0
    8.6659    2.6571  -14.7100 C   0  0  0  0  0  0  0  0  0  0  0  0
    7.2862    2.3096  -14.4021 N   0  0  0  0  0  0  0  0  0  0  0  0
    6.6756    1.1623  -14.9480 C   0  0  0  0  0  0  0  0  0  0  0  0
    5.8829    0.3753  -14.0814 C   0  0  0  0  0  0  0  0  0  0  0  0
    5.1949   -0.7539  -14.5571 C   0  0  0  0  0  0  0  0  0  0  0  0
    5.2876   -1.1166  -15.9106 C   0  0  0  0  0  0  0  0  0  0  0  0
    6.0796   -0.3518  -16.7887 C   0  0  0  0  0  0  0  0  0  0  0  0
    6.1662   -0.8242  -18.4486 Cl  0  0  0  0  0  0  0  0  0  0  0  0
    6.7762    0.7883  -16.3196 C   0  0  0  0  0  0  0  0  0  0  0  0
    7.6732    1.7385  -17.4623 Cl  0  0  0  0  0  0  0  0  0  0  0  0
    6.4329    3.3628  -13.8647 C   0  0  0  0  0  0  0  0  0  0  0  0
    7.1006    4.0443  -12.6589 C   0  0  0  0  0  0  0  0  0  0  0  0
   10.8148    8.1119   -6.2609 C   0  0  0  0  0  0  0  0  0  0  0  0
   10.7218    9.4151   -6.6521 C   0  0  0  0  0  0  0  0  0  0  0  0
   11.2860   10.5426   -5.4711 S   0  0  0  0  0  0  0  0  0  0  0  0
   11.6566    9.2415   -4.3496 C   0  0  0  0  0  0  0  0  0  0  0  0
   12.1604    9.3722   -3.0449 C   0  0  0  0  0  0  0  0  0  0  0  0
   12.4235    8.2260   -2.2769 C   0  0  0  0  0  0  0  0  0  0  0  0
   12.1857    6.9552   -2.8259 C   0  0  0  0  0  0  0  0  0  0  0  0
   11.6858    6.8317   -4.1357 C   0  0  0  0  0  0  0  0  0  0  0  0
   11.3824    7.9619   -4.9348 C   0  0  0  0  0  0  0  0  0  0  0  0
    8.6545    7.8023   -7.4472 H   0  0  0  0  0  0  0  0  0  0  0  0
    9.3168    5.2992   -8.8538 H   0  0  0  0  0  0  0  0  0  0  0  0
    7.8102    6.1721   -8.9095 H   0  0  0  0  0  0  0  0  0  0  0  0
    9.0510    8.0852  -10.1171 H   0  0  0  0  0  0  0  0  0  0  0  0
   10.4413    7.0358  -10.2384 H   0  0  0  0  0  0  0  0  0  0  0  0
    7.6855    6.5617  -11.4463 H   0  0  0  0  0  0  0  0  0  0  0  0
    9.0901    7.0884  -12.3181 H   0  0  0  0  0  0  0  0  0  0  0  0
   10.2699    5.0057  -11.8960 H   0  0  0  0  0  0  0  0  0  0  0  0
    8.9974    4.3753  -10.8835 H   0  0  0  0  0  0  0  0  0  0  0  0
   10.3181    3.6863  -13.7868 H   0  0  0  0  0  0  0  0  0  0  0  0
    9.5099    2.5725  -12.7158 H   0  0  0  0  0  0  0  0  0  0  0  0
    8.6815    3.3583  -15.5449 H   0  0  0  0  0  0  0  0  0  0  0  0
    9.2276    1.7716  -15.0106 H   0  0  0  0  0  0  0  0  0  0  0  0
    5.7980    0.6390  -13.0378 H   0  0  0  0  0  0  0  0  0  0  0  0
    4.5937   -1.3479  -13.8845 H   0  0  0  0  0  0  0  0  0  0  0  0
    4.7560   -1.9861  -16.2723 H   0  0  0  0  0  0  0  0  0  0  0  0
    6.2498    4.0991  -14.6468 H   0  0  0  0  0  0  0  0  0  0  0  0
    5.4551    2.9740  -13.5772 H   0  0  0  0  0  0  0  0  0  0  0  0
    7.0429    3.3730  -11.8011 H   0  0  0  0  0  0  0  0  0  0  0  0
    6.5192    4.9264  -12.3880 H   0  0  0  0  0  0  0  0  0  0  0  0
   10.3644    9.7723   -7.6061 H   0  0  0  0  0  0  0  0  0  0  0  0
   12.3452   10.3551   -2.6379 H   0  0  0  0  0  0  0  0  0  0  0  0
   12.8066    8.3270   -1.2722 H   0  0  0  0  0  0  0  0  0  0  0  0
   12.3857    6.0695   -2.2404 H   0  0  0  0  0  0  0  0  0  0  0  0
   11.4992    5.8442   -4.5355 H   0  0  0  0  0  0  0  0  0  0  0  0
    8.4981    5.1366  -13.6447 H   0  0  0  0  0  0  0  0  0  0  0  0
  2  1  2  0
  3  2  1  0
  4  3  1  0
  5  4  1  0
  6  5  1  0
  7  6  1  0
  8  7  1  0
  9  8  1  0
 10  9  1  0
 11 10  1  0
 12 11  1  0
 13 12  2  0
 14 13  1  0
 15 14  2  0
 16 15  1  0
 17 16  1  0
 18 12  1  0
 18 16  2  0
 19 18  1  0
 20 11  1  0
 21  8  1  0
 21 20  1  0
 22  2  1  0
 23 22  2  0
 24 23  1  0
 25 24  1  0
 26 25  2  0
 27 26  1  0
 28 27  2  0
 29 28  1  0
 30 22  1  0
 30 25  1  0
 30 29  2  0
 31  3  1  0
 32  4  1  0
 33  4  1  0
 34  5  1  0
 35  5  1  0
 36  6  1  0
 37  6  1  0
 38  7  1  0
 39  7  1  0
 40  9  1  0
 41  9  1  0
 42 10  1  0
 43 10  1  0
 44 13  1  0
 45 14  1  0
 46 15  1  0
 47 20  1  0
 48 20  1  0
 49 21  1  0
 50 21  1  0
 51 23  1  0
 52 26  1  0
 53 27  1  0
 54 28  1  0
 55 29  1  0
 56  8  1  0
M  CHG  1   8   1
M  END
>  <b_m_subgroup_collapsed>  (608) 
0

>  <r_i_docking_score>  (608) 
-7.6812500865622297

>  <s_m_subgroup_title>  (608) 
glide-dock_SP_D22_pv

>  <s_m_subgroupid>  (608) 
glide-dock_SP_D22_pv

>  <Molecule ChEMBL ID>  (608) 
CHEMBL1774552

>  <Standard Type>  (608) 
Ki

>  <Standard Value>  (608) 
64.7

>  <label>  (608) 
1

$$$$
CHEMBL1214892
     RDKit          3D

 56 59  0  0  1  0  0  0  0  0999 V2000
    3.8758   -1.4004  -15.3923 C   0  0  0  0  0  0  0  0  0  0  0  0
    3.8472   -0.2232  -14.4120 C   0  0  0  0  0  0  0  0  0  0  0  0
    5.2270    0.4224  -14.2448 C   0  0  0  0  0  0  0  0  0  0  0  0
    5.0761    1.5909  -13.4468 O   0  0  0  0  0  0  0  0  0  0  0  0
    6.0860    2.5300  -13.4479 C   0  0  0  0  0  0  0  0  0  0  0  0
    7.2960    2.4177  -14.1835 C   0  0  0  0  0  0  0  0  0  0  0  0
    8.3207    3.3714  -14.0117 C   0  0  0  0  0  0  0  0  0  0  0  0
    8.1494    4.4586  -13.1316 C   0  0  0  0  0  0  0  0  0  0  0  0
    9.3027    5.4325  -12.9200 C   0  0  0  0  0  0  0  0  0  0  0  0
    9.2103    6.2406  -11.7058 N   0  0  0  0  0  0  0  0  0  0  0  0
   10.1749    7.3338  -11.7156 C   0  0  0  0  0  0  0  0  0  0  0  0
    9.8471    8.2717  -10.5443 C   0  0  0  0  0  0  0  0  0  0  0  0
    9.9290    7.5707   -9.2390 N   0  0  0  0  0  0  0  0  0  0  0  0
    9.5433    8.4662   -8.1219 C   0  0  0  0  0  0  0  0  0  0  0  0
   10.3052    8.2161   -6.8631 C   0  0  0  0  0  0  0  0  0  0  0  0
   10.7362    7.0629   -6.2483 C   0  0  0  0  0  0  0  0  0  0  0  0
   11.2876    7.4725   -4.9903 C   0  0  0  0  0  0  0  0  0  0  0  0
   11.8339    6.8462   -3.8476 C   0  0  0  0  0  0  0  0  0  0  0  0
   12.2404    7.5983   -2.7255 C   0  0  0  0  0  0  0  0  0  0  0  0
   12.1079    9.0012   -2.7209 C   0  0  0  0  0  0  0  0  0  0  0  0
   11.5701    9.6525   -3.8471 C   0  0  0  0  0  0  0  0  0  0  0  0
   11.1941    8.8842   -4.9583 C   0  0  0  0  0  0  0  0  0  0  0  0
   10.6005    9.3283   -6.1186 O   0  0  0  0  0  0  0  0  0  0  0  0
    9.1305    6.3179   -9.2602 C   0  0  0  0  0  0  0  0  0  0  0  0
    9.4389    5.4529  -10.4923 C   0  0  0  0  0  0  0  0  0  0  0  0
    6.9067    4.6247  -12.4807 C   0  0  0  0  0  0  0  0  0  0  0  0
    5.8924    3.6629  -12.6345 C   0  0  0  0  0  0  0  0  0  0  0  0
    2.8873   -1.8425  -15.5024 H   0  0  0  0  0  0  0  0  0  0  0  0
    4.2006   -1.0810  -16.3832 H   0  0  0  0  0  0  0  0  0  0  0  0
    4.5588   -2.1818  -15.0561 H   0  0  0  0  0  0  0  0  0  0  0  0
    3.4679   -0.5545  -13.4465 H   0  0  0  0  0  0  0  0  0  0  0  0
    3.1433    0.5296  -14.7716 H   0  0  0  0  0  0  0  0  0  0  0  0
    5.6185    0.6470  -15.2369 H   0  0  0  0  0  0  0  0  0  0  0  0
    5.9218   -0.2679  -13.7637 H   0  0  0  0  0  0  0  0  0  0  0  0
    7.4969    1.5776  -14.8304 H   0  0  0  0  0  0  0  0  0  0  0  0
    9.2557    3.2444  -14.5371 H   0  0  0  0  0  0  0  0  0  0  0  0
   10.2482    4.8878  -12.9312 H   0  0  0  0  0  0  0  0  0  0  0  0
    9.3112    6.0896  -13.7873 H   0  0  0  0  0  0  0  0  0  0  0  0
   11.1996    6.9634  -11.6597 H   0  0  0  0  0  0  0  0  0  0  0  0
   10.0864    7.8961  -12.6446 H   0  0  0  0  0  0  0  0  0  0  0  0
   10.5524    9.1028  -10.5457 H   0  0  0  0  0  0  0  0  0  0  0  0
    8.8490    8.6932  -10.6763 H   0  0  0  0  0  0  0  0  0  0  0  0
    9.7173    9.4993   -8.4184 H   0  0  0  0  0  0  0  0  0  0  0  0
    8.4733    8.4002   -7.9265 H   0  0  0  0  0  0  0  0  0  0  0  0
   10.6351    6.0417   -6.5804 H   0  0  0  0  0  0  0  0  0  0  0  0
   11.9189    5.7721   -3.8228 H   0  0  0  0  0  0  0  0  0  0  0  0
   12.6362    7.0927   -1.8571 H   0  0  0  0  0  0  0  0  0  0  0  0
   12.3977    9.5737   -1.8506 H   0  0  0  0  0  0  0  0  0  0  0  0
   11.3985   10.7143   -3.8414 H   0  0  0  0  0  0  0  0  0  0  0  0
    9.2981    5.7390   -8.3539 H   0  0  0  0  0  0  0  0  0  0  0  0
    8.0803    6.5719   -9.2678 H   0  0  0  0  0  0  0  0  0  0  0  0
    8.7918    4.5757  -10.4815 H   0  0  0  0  0  0  0  0  0  0  0  0
   10.4620    5.0913  -10.4480 H   0  0  0  0  0  0  0  0  0  0  0  0
    6.7323    5.4670  -11.8250 H   0  0  0  0  0  0  0  0  0  0  0  0
    4.9676    3.7803  -12.0901 H   0  0  0  0  0  0  0  0  0  0  0  0
   10.8964    7.3177   -9.1028 H   0  0  0  0  0  0  0  0  0  0  0  0
  2  1  1  0
  3  2  1  0
  4  3  1  0
  5  4  1  0
  6  5  1  0
  7  6  2  0
  8  7  1  0
  9  8  1  0
 10  9  1  0
 11 10  1  0
 12 11  1  0
 13 12  1  0
 14 13  1  0
 15 14  1  0
 16 15  2  0
 17 16  1  0
 18 17  2  0
 19 18  1  0
 20 19  2  0
 21 20  1  0
 22 17  1  0
 22 21  2  0
 23 15  1  0
 23 22  1  0
 24 13  1  0
 25 10  1  0
 25 24  1  0
 26  8  2  0
 27  5  2  0
 27 26  1  0
 28  1  1  0
 29  1  1  0
 30  1  1  0
 31  2  1  0
 32  2  1  0
 33  3  1  0
 34  3  1  0
 35  6  1  0
 36  7  1  0
 37  9  1  0
 38  9  1  0
 39 11  1  0
 40 11  1  0
 41 12  1  0
 42 12  1  0
 43 14  1  0
 44 14  1  0
 45 16  1  0
 46 18  1  0
 47 19  1  0
 48 20  1  0
 49 21  1  0
 50 24  1  0
 51 24  1  0
 52 25  1  0
 53 25  1  0
 54 26  1  0
 55 27  1  0
 56 13  1  0
M  CHG  1  13   1
M  END
>  <b_m_subgroup_collapsed>  (609) 
0

>  <r_i_docking_score>  (609) 
-7.6769972875638803

>  <s_m_subgroup_title>  (609) 
glide-dock_SP_D22_pv

>  <s_m_subgroupid>  (609) 
glide-dock_SP_D22_pv

>  <Molecule ChEMBL ID>  (609) 
CHEMBL1214892

>  <Standard Type>  (609) 
Ki

>  <Standard Value>  (609) 
10000.0

>  <label>  (609) 
0

$$$$
CHEMBL5178868
     RDKit          3D

 58 61  0  0  1  0  0  0  0  0999 V2000
   12.6108    8.5607   -1.9029 C   0  0  0  0  0  0  0  0  0  0  0  0
   12.4860    9.3714   -3.0629 O   0  0  0  0  0  0  0  0  0  0  0  0
   11.8983    8.8514   -4.1949 C   0  0  0  0  0  0  0  0  0  0  0  0
   11.6772    7.4753   -4.4484 C   0  0  0  0  0  0  0  0  0  0  0  0
   11.0555    7.0628   -5.6464 C   0  0  0  0  0  0  0  0  0  0  0  0
   10.6405    7.9975   -6.6230 C   0  0  0  0  0  0  0  0  0  0  0  0
   10.0368    7.5715   -7.8305 N   0  0  0  0  0  0  0  0  0  0  0  0
    9.0698    6.4740   -7.8214 C   0  0  0  0  0  0  0  0  0  0  0  0
    9.0413    5.7514   -9.1864 C   0  0  0  0  0  0  0  0  0  0  0  0
    8.8860    6.6914  -10.3294 N   0  0  0  0  0  0  0  0  0  0  0  0
    8.9887    6.0205  -11.6509 C   0  0  0  0  0  0  0  0  0  0  0  0
    7.7268    5.2561  -12.0888 C   0  0  0  0  0  0  0  0  0  0  0  0
    7.7213    4.9344  -13.6059 C   0  0  0  0  0  0  0  0  0  0  0  0
    8.5135    3.7478  -13.9959 N   0  0  0  0  0  0  0  0  0  0  0  0
    9.8577    3.8898  -14.1691 C   0  0  0  0  0  0  0  0  0  0  0  0
   10.4404    4.9744  -14.1234 O   0  0  0  0  0  0  0  0  0  0  0  0
   10.6987    2.6353  -14.4152 C   0  0  0  0  0  0  0  0  0  0  0  0
    9.9837    1.6531  -15.3431 C   0  0  0  0  0  0  0  0  0  0  0  0
    8.5618    1.4269  -14.8804 C   0  0  0  0  0  0  0  0  0  0  0  0
    7.9559    0.1723  -15.0849 C   0  0  0  0  0  0  0  0  0  0  0  0
    6.6417   -0.0604  -14.6487 C   0  0  0  0  0  0  0  0  0  0  0  0
    5.9233    0.9735  -14.0260 C   0  0  0  0  0  0  0  0  0  0  0  0
    6.5156    2.2397  -13.8468 C   0  0  0  0  0  0  0  0  0  0  0  0
    7.8563    2.4837  -14.2469 C   0  0  0  0  0  0  0  0  0  0  0  0
    9.8404    7.8283  -10.2670 C   0  0  0  0  0  0  0  0  0  0  0  0
    9.8371    8.5340   -8.9082 C   0  0  0  0  0  0  0  0  0  0  0  0
   10.8841    9.3668   -6.3620 C   0  0  0  0  0  0  0  0  0  0  0  0
   11.5093    9.7764   -5.1769 C   0  0  0  0  0  0  0  0  0  0  0  0
   13.3851    8.9794   -1.2605 H   0  0  0  0  0  0  0  0  0  0  0  0
   11.6861    8.5617   -1.3343 H   0  0  0  0  0  0  0  0  0  0  0  0
   12.8860    7.5274   -2.0951 H   0  0  0  0  0  0  0  0  0  0  0  0
   11.9652    6.7050   -3.7510 H   0  0  0  0  0  0  0  0  0  0  0  0
   10.9297    6.0057   -5.8066 H   0  0  0  0  0  0  0  0  0  0  0  0
    8.0860    6.8850   -7.5922 H   0  0  0  0  0  0  0  0  0  0  0  0
    9.2765    5.7396   -7.0459 H   0  0  0  0  0  0  0  0  0  0  0  0
    8.2306    5.0226   -9.1998 H   0  0  0  0  0  0  0  0  0  0  0  0
    9.9704    5.1919   -9.3059 H   0  0  0  0  0  0  0  0  0  0  0  0
    9.8583    5.3648  -11.6527 H   0  0  0  0  0  0  0  0  0  0  0  0
    9.1838    6.7841  -12.4055 H   0  0  0  0  0  0  0  0  0  0  0  0
    6.8598    5.8845  -11.8767 H   0  0  0  0  0  0  0  0  0  0  0  0
    7.5899    4.3487  -11.5001 H   0  0  0  0  0  0  0  0  0  0  0  0
    8.0859    5.8003  -14.1600 H   0  0  0  0  0  0  0  0  0  0  0  0
    6.6904    4.8388  -13.9392 H   0  0  0  0  0  0  0  0  0  0  0  0
   11.6719    2.9066  -14.8255 H   0  0  0  0  0  0  0  0  0  0  0  0
   10.8847    2.1725  -13.4475 H   0  0  0  0  0  0  0  0  0  0  0  0
   10.5270    0.7065  -15.3637 H   0  0  0  0  0  0  0  0  0  0  0  0
    9.9692    2.0346  -16.3649 H   0  0  0  0  0  0  0  0  0  0  0  0
    8.5012   -0.6248  -15.5699 H   0  0  0  0  0  0  0  0  0  0  0  0
    6.1872   -1.0296  -14.7980 H   0  0  0  0  0  0  0  0  0  0  0  0
    4.9112    0.8002  -13.6922 H   0  0  0  0  0  0  0  0  0  0  0  0
    5.9273    2.9862  -13.3376 H   0  0  0  0  0  0  0  0  0  0  0  0
   10.8470    7.4601  -10.4710 H   0  0  0  0  0  0  0  0  0  0  0  0
    9.6040    8.5554  -11.0459 H   0  0  0  0  0  0  0  0  0  0  0  0
    8.8957    9.0617   -8.7529 H   0  0  0  0  0  0  0  0  0  0  0  0
   10.6331    9.2772   -8.9360 H   0  0  0  0  0  0  0  0  0  0  0  0
   10.5918   10.1468   -7.0465 H   0  0  0  0  0  0  0  0  0  0  0  0
   11.6844   10.8302   -5.0316 H   0  0  0  0  0  0  0  0  0  0  0  0
    7.9480    7.1016  -10.2473 H   0  0  0  0  0  0  0  0  0  0  0  0
  2  1  1  0
  3  2  1  0
  4  3  1  0
  5  4  2  0
  6  5  1  0
  7  6  1  0
  8  7  1  0
  9  8  1  0
 10  9  1  0
 11 10  1  0
 12 11  1  0
 13 12  1  0
 14 13  1  0
 15 14  1  0
 16 15  2  0
 17 15  1  0
 18 17  1  0
 19 18  1  0
 20 19  2  0
 21 20  1  0
 22 21  2  0
 23 22  1  0
 24 14  1  0
 24 19  1  0
 24 23  2  0
 25 10  1  0
 26  7  1  0
 26 25  1  0
 27  6  2  0
 28  3  2  0
 28 27  1  0
 29  1  1  0
 30  1  1  0
 31  1  1  0
 32  4  1  0
 33  5  1  0
 34  8  1  0
 35  8  1  0
 36  9  1  0
 37  9  1  0
 38 11  1  0
 39 11  1  0
 40 12  1  0
 41 12  1  0
 42 13  1  0
 43 13  1  0
 44 17  1  0
 45 17  1  0
 46 18  1  0
 47 18  1  0
 48 20  1  0
 49 21  1  0
 50 22  1  0
 51 23  1  0
 52 25  1  0
 53 25  1  0
 54 26  1  0
 55 26  1  0
 56 27  1  0
 57 28  1  0
 58 10  1  0
M  CHG  1  10   1
M  END
>  <b_m_subgroup_collapsed>  (610) 
0

>  <r_i_docking_score>  (610) 
-7.6734626581954704

>  <s_m_subgroup_title>  (610) 
glide-dock_SP_D22_pv

>  <s_m_subgroupid>  (610) 
glide-dock_SP_D22_pv

>  <Molecule ChEMBL ID>  (610) 
CHEMBL5178868

>  <Standard Type>  (610) 
Ki

>  <Standard Value>  (610) 
20892.96

>  <label>  (610) 
0

$$$$
CHEMBL335971
     RDKit          3D

 38 39  0  0  1  0  0  0  0  0999 V2000
    9.3037    4.1395  -12.3031 C   0  0  0  0  0  0  0  0  0  0  0  0
    8.4461    4.8384  -11.2410 C   0  0  0  0  0  0  0  0  0  0  0  0
    9.3048    5.3984  -10.1021 C   0  0  0  0  0  0  0  0  0  0  0  0
    8.4866    6.1723   -9.1446 N   0  0  0  0  0  0  0  0  0  0  0  0
    9.2148    7.0804   -8.2244 C   0  0  2  0  0  0  0  0  0  0  0  0
   10.0994    8.0930   -8.9621 C   0  0  0  0  0  0  0  0  0  0  0  0
   10.5318    9.1846   -7.9951 C   0  0  0  0  0  0  0  0  0  0  0  0
   11.0368    8.6820   -6.6565 C   0  0  0  0  0  0  0  0  0  0  0  0
   11.7187    9.5806   -5.8139 C   0  0  0  0  0  0  0  0  0  0  0  0
   12.1797    9.1603   -4.5545 C   0  0  0  0  0  0  0  0  0  0  0  0
   11.9773    7.8402   -4.1170 C   0  0  0  0  0  0  0  0  0  0  0  0
   12.4849    7.5201   -2.8759 O   0  0  0  0  0  0  0  0  0  0  0  0
   12.3675    6.1823   -2.4226 C   0  0  0  0  0  0  0  0  0  0  0  0
   11.2794    6.9409   -4.9659 C   0  0  0  0  0  0  0  0  0  0  0  0
   10.7985    7.3534   -6.2307 C   0  0  0  0  0  0  0  0  0  0  0  0
   10.0308    6.3720   -7.1221 C   0  0  0  0  0  0  0  0  0  0  0  0
    8.6799    3.6638  -13.0606 H   0  0  0  0  0  0  0  0  0  0  0  0
    9.9547    4.8523  -12.8094 H   0  0  0  0  0  0  0  0  0  0  0  0
    9.9419    3.3719  -11.8623 H   0  0  0  0  0  0  0  0  0  0  0  0
    7.6997    4.1527  -10.8412 H   0  0  0  0  0  0  0  0  0  0  0  0
    7.8869    5.6470  -11.7136 H   0  0  0  0  0  0  0  0  0  0  0  0
   10.0725    6.0259  -10.5499 H   0  0  0  0  0  0  0  0  0  0  0  0
    9.8163    4.5921   -9.5752 H   0  0  0  0  0  0  0  0  0  0  0  0
    7.9181    5.5399   -8.5994 H   0  0  0  0  0  0  0  0  0  0  0  0
    8.4319    7.6467   -7.7188 H   0  0  0  0  0  0  0  0  0  0  0  0
   10.9933    7.6064   -9.3567 H   0  0  0  0  0  0  0  0  0  0  0  0
    9.5717    8.5371   -9.8082 H   0  0  0  0  0  0  0  0  0  0  0  0
    9.6447    9.7714   -7.7805 H   0  0  0  0  0  0  0  0  0  0  0  0
   11.2844    9.8202   -8.4630 H   0  0  0  0  0  0  0  0  0  0  0  0
   11.8963   10.5965   -6.1328 H   0  0  0  0  0  0  0  0  0  0  0  0
   12.7088    9.8505   -3.9157 H   0  0  0  0  0  0  0  0  0  0  0  0
   12.8439    6.0879   -1.4478 H   0  0  0  0  0  0  0  0  0  0  0  0
   11.3234    5.8914   -2.3110 H   0  0  0  0  0  0  0  0  0  0  0  0
   12.8757    5.4931   -3.0934 H   0  0  0  0  0  0  0  0  0  0  0  0
   11.0937    5.9238   -4.6543 H   0  0  0  0  0  0  0  0  0  0  0  0
   10.7569    5.6893   -7.5654 H   0  0  0  0  0  0  0  0  0  0  0  0
    9.3572    5.7737   -6.5103 H   0  0  0  0  0  0  0  0  0  0  0  0
    7.8366    6.7602   -9.6682 H   0  0  0  0  0  0  0  0  0  0  0  0
  2  1  1  0
  3  2  1  0
  4  3  1  0
  5  4  1  0
  6  5  1  0
  7  6  1  0
  8  7  1  0
  9  8  1  0
 10  9  2  0
 11 10  1  0
 12 11  1  0
 13 12  1  0
 14 11  2  0
 15  8  2  0
 15 14  1  0
 16  5  1  0
 16 15  1  0
 17  1  1  0
 18  1  1  0
 19  1  1  0
 20  2  1  0
 21  2  1  0
 22  3  1  0
 23  3  1  0
 24  4  1  0
  5 25  1  1
 26  6  1  0
 27  6  1  0
 28  7  1  0
 29  7  1  0
 30  9  1  0
 31 10  1  0
 32 13  1  0
 33 13  1  0
 34 13  1  0
 35 14  1  0
 36 16  1  0
 37 16  1  0
 38  4  1  0
M  CHG  1   4   1
M  END
>  <b_m_subgroup_collapsed>  (611) 
0

>  <r_i_docking_score>  (611) 
-7.6705859449865601

>  <s_m_subgroup_title>  (611) 
glide-dock_SP_D22_pv

>  <s_m_subgroupid>  (611) 
glide-dock_SP_D22_pv

>  <Molecule ChEMBL ID>  (611) 
CHEMBL335971

>  <Standard Type>  (611) 
Ki

>  <Standard Value>  (611) 
58882.0

>  <label>  (611) 
0

$$$$
CHEMBL544761
     RDKit          3D

 46 49  0  0  1  0  0  0  0  0999 V2000
   12.1691    7.7970  -10.6088 O   0  0  0  0  0  0  0  0  0  0  0  0
   11.6123    7.9034   -9.5162 C   0  0  0  0  0  0  0  0  0  0  0  0
   12.2002    8.2368   -8.2471 C   0  0  0  0  0  0  0  0  0  0  0  0
   11.2563    8.0358   -7.3201 C   0  0  0  0  0  0  0  0  0  0  0  0
   11.4635    8.1440   -5.8711 C   0  0  0  0  0  0  0  0  0  0  0  0
   11.9974    9.3119   -5.2837 C   0  0  0  0  0  0  0  0  0  0  0  0
   12.3481    9.3030   -3.9170 C   0  0  0  0  0  0  0  0  0  0  0  0
   12.1974    8.1382   -3.1449 C   0  0  0  0  0  0  0  0  0  0  0  0
   11.6858    6.9723   -3.7373 C   0  0  0  0  0  0  0  0  0  0  0  0
   11.2860    6.9838   -5.0888 C   0  0  0  0  0  0  0  0  0  0  0  0
   10.0335    7.6942   -7.8430 O   0  0  0  0  0  0  0  0  0  0  0  0
   10.1332    7.6361   -9.2717 C   0  0  1  0  0  0  0  0  0  0  0  0
    9.2864    8.7550   -9.9037 C   0  0  0  0  0  0  0  0  0  0  0  0
    9.1249    8.5722  -11.4312 C   0  0  0  0  0  0  0  0  0  0  0  0
    8.7401    7.1396  -11.8448 C   0  0  0  0  0  0  0  0  0  0  0  0
    9.6854    6.1667  -11.2533 N   0  0  2  0  0  0  0  0  0  0  0  0
    9.5186    4.7936  -11.7886 C   0  0  0  0  0  0  0  0  0  0  0  0
   10.0089    4.6787  -13.2271 C   0  0  0  0  0  0  0  0  0  0  0  0
   11.2462    5.2412  -13.6223 C   0  0  0  0  0  0  0  0  0  0  0  0
   11.6949    5.1145  -14.9507 C   0  0  0  0  0  0  0  0  0  0  0  0
   10.9136    4.4226  -15.8950 C   0  0  0  0  0  0  0  0  0  0  0  0
    9.6856    3.8560  -15.5074 C   0  0  0  0  0  0  0  0  0  0  0  0
    9.2316    3.9863  -14.1798 C   0  0  0  0  0  0  0  0  0  0  0  0
    9.6767    6.2409   -9.7668 C   0  0  0  0  0  0  0  0  0  0  0  0
   13.2361    8.5075   -8.1024 H   0  0  0  0  0  0  0  0  0  0  0  0
   12.1714   10.1962   -5.8796 H   0  0  0  0  0  0  0  0  0  0  0  0
   12.7749   10.1705   -3.4474 H   0  0  0  0  0  0  0  0  0  0  0  0
   12.4872    8.1366   -2.1042 H   0  0  0  0  0  0  0  0  0  0  0  0
   11.5757    6.0731   -3.1493 H   0  0  0  0  0  0  0  0  0  0  0  0
   10.8990    6.0827   -5.5391 H   0  0  0  0  0  0  0  0  0  0  0  0
    8.3212    8.7914   -9.4110 H   0  0  0  0  0  0  0  0  0  0  0  0
    9.7289    9.7308   -9.6993 H   0  0  0  0  0  0  0  0  0  0  0  0
    8.3886    9.2801  -11.8133 H   0  0  0  0  0  0  0  0  0  0  0  0
   10.0681    8.8228  -11.9066 H   0  0  0  0  0  0  0  0  0  0  0  0
    7.7282    6.8909  -11.5295 H   0  0  0  0  0  0  0  0  0  0  0  0
    8.7366    7.0521  -12.9296 H   0  0  0  0  0  0  0  0  0  0  0  0
   10.0848    4.0801  -11.1902 H   0  0  0  0  0  0  0  0  0  0  0  0
    8.4720    4.4933  -11.7105 H   0  0  0  0  0  0  0  0  0  0  0  0
   11.8651    5.7832  -12.9236 H   0  0  0  0  0  0  0  0  0  0  0  0
   12.6397    5.5480  -15.2449 H   0  0  0  0  0  0  0  0  0  0  0  0
   11.2589    4.3228  -16.9139 H   0  0  0  0  0  0  0  0  0  0  0  0
    9.0892    3.3196  -16.2307 H   0  0  0  0  0  0  0  0  0  0  0  0
    8.2864    3.5446  -13.8967 H   0  0  0  0  0  0  0  0  0  0  0  0
   10.3265    5.4719   -9.3483 H   0  0  0  0  0  0  0  0  0  0  0  0
    8.6711    6.0262   -9.3992 H   0  0  0  0  0  0  0  0  0  0  0  0
   10.6090    6.4634  -11.5382 H   0  0  0  0  0  0  0  0  0  0  0  0
  2  1  2  0
  3  2  1  0
  4  3  2  0
  5  4  1  0
  6  5  2  0
  7  6  1  0
  8  7  2  0
  9  8  1  0
 10  5  1  0
 10  9  2  0
 11  4  1  0
 12  2  1  0
 12 11  1  1
 13 12  1  0
 14 13  1  0
 15 14  1  0
 16 15  1  0
 17 16  1  0
 18 17  1  0
 19 18  2  0
 20 19  1  0
 21 20  2  0
 22 21  1  0
 23 18  1  0
 23 22  2  0
 24 12  1  0
 24 16  1  0
 25  3  1  0
 26  6  1  0
 27  7  1  0
 28  8  1  0
 29  9  1  0
 30 10  1  0
 31 13  1  0
 32 13  1  0
 33 14  1  0
 34 14  1  0
 35 15  1  0
 36 15  1  0
 37 17  1  0
 38 17  1  0
 39 19  1  0
 40 20  1  0
 41 21  1  0
 42 22  1  0
 43 23  1  0
 44 24  1  0
 45 24  1  0
 16 46  1  6
M  CHG  1  16   1
M  END
>  <b_m_subgroup_collapsed>  (612) 
0

>  <r_i_docking_score>  (612) 
-7.6703789063383798

>  <s_m_subgroup_title>  (612) 
glide-dock_SP_D22_pv

>  <s_m_subgroupid>  (612) 
glide-dock_SP_D22_pv

>  <Molecule ChEMBL ID>  (612) 
CHEMBL544761

>  <Standard Type>  (612) 
Ki

>  <Standard Value>  (612) 
10000.0

>  <label>  (612) 
0

$$$$
CHEMBL5558071
     RDKit          3D

 55 60  0  0  1  0  0  0  0  0999 V2000
    7.4153    0.6036  -20.3366 O   0  0  0  0  0  0  0  0  0  0  0  0
    7.2737    0.5501  -19.1183 C   0  0  0  0  0  0  0  0  0  0  0  0
    8.3926    1.0756  -18.1886 C   0  0  0  0  0  0  0  0  0  0  0  0
    7.9842    1.3792  -16.8100 N   0  0  0  0  0  0  0  0  0  0  0  0
    6.8790    0.6709  -16.2945 C   0  0  0  0  0  0  0  0  0  0  0  0
    5.9845    0.0261  -17.1567 C   0  0  0  0  0  0  0  0  0  0  0  0
    4.9218   -0.6339  -16.4909 C   0  0  0  0  0  0  0  0  0  0  0  0
    4.8177   -0.6262  -15.0723 C   0  0  0  0  0  0  0  0  0  0  0  0
    5.7673    0.0538  -14.2665 C   0  0  0  0  0  0  0  0  0  0  0  0
    6.8215    0.7302  -14.9080 C   0  0  0  0  0  0  0  0  0  0  0  0
    8.0220    1.5116  -14.4335 C   0  0  2  0  0  0  0  0  0  0  0  0
    7.6505    2.8991  -13.8733 C   0  0  0  0  0  0  0  0  0  0  0  0
    8.8759    3.6329  -13.4463 N   0  0  2  0  0  0  0  0  0  0  0  0
    8.5730    5.0039  -12.9640 C   0  0  0  0  0  0  0  0  0  0  0  0
    9.6654    5.5587  -12.0304 C   0  0  0  0  0  0  0  0  0  0  0  0
    9.2636    6.9181  -11.4399 C   0  0  0  0  0  0  0  0  0  0  0  0
   10.3092    7.5283  -10.5548 C   0  0  0  0  0  0  0  0  0  0  0  0
   11.4299    8.0072  -11.0447 N   0  0  0  0  0  0  0  0  0  0  0  0
   12.0858    8.5710   -9.9994 N   0  0  0  0  0  0  0  0  0  0  0  0
   11.4279    8.4384   -8.7923 C   0  0  0  0  0  0  0  0  0  0  0  0
   11.7119    8.8421   -7.4749 C   0  0  0  0  0  0  0  0  0  0  0  0
   10.7880    8.5480   -6.4566 C   0  0  0  0  0  0  0  0  0  0  0  0
   11.0408    8.9274   -5.1819 F   0  0  0  0  0  0  0  0  0  0  0  0
    9.5985    7.8610   -6.7678 C   0  0  0  0  0  0  0  0  0  0  0  0
    9.3217    7.4679   -8.0934 C   0  0  0  0  0  0  0  0  0  0  0  0
   10.2362    7.7438   -9.1361 C   0  0  0  0  0  0  0  0  0  0  0  0
   10.0004    3.5627  -14.4324 C   0  0  0  0  0  0  0  0  0  0  0  0
    9.5640    3.0376  -15.8162 C   0  0  0  0  0  0  0  0  0  0  0  0
    8.8872    1.6566  -15.7027 C   0  0  2  0  0  0  0  0  0  0  0  0
    6.1599    0.0565  -18.5553 N   0  0  0  0  0  0  0  0  0  0  0  0
    9.1908    0.3333  -18.1642 H   0  0  0  0  0  0  0  0  0  0  0  0
    8.8187    1.9769  -18.6307 H   0  0  0  0  0  0  0  0  0  0  0  0
    4.1783   -1.1667  -17.0666 H   0  0  0  0  0  0  0  0  0  0  0  0
    3.9991   -1.1535  -14.6045 H   0  0  0  0  0  0  0  0  0  0  0  0
    5.6879    0.0459  -13.1895 H   0  0  0  0  0  0  0  0  0  0  0  0
    8.5505    0.9251  -13.6811 H   0  0  0  0  0  0  0  0  0  0  0  0
    7.1268    3.4753  -14.6380 H   0  0  0  0  0  0  0  0  0  0  0  0
    6.9438    2.8115  -13.0470 H   0  0  0  0  0  0  0  0  0  0  0  0
    8.4128    5.6700  -13.8138 H   0  0  0  0  0  0  0  0  0  0  0  0
    7.6330    4.9836  -12.4092 H   0  0  0  0  0  0  0  0  0  0  0  0
    9.8507    4.8562  -11.2162 H   0  0  0  0  0  0  0  0  0  0  0  0
   10.6046    5.6694  -12.5726 H   0  0  0  0  0  0  0  0  0  0  0  0
    9.0202    7.6116  -12.2454 H   0  0  0  0  0  0  0  0  0  0  0  0
    8.3419    6.7890  -10.8751 H   0  0  0  0  0  0  0  0  0  0  0  0
   12.9482    9.0894  -10.1489 H   0  0  0  0  0  0  0  0  0  0  0  0
   12.6270    9.3679   -7.2448 H   0  0  0  0  0  0  0  0  0  0  0  0
    8.8870    7.6375   -5.9880 H   0  0  0  0  0  0  0  0  0  0  0  0
    8.3946    6.9593   -8.3169 H   0  0  0  0  0  0  0  0  0  0  0  0
   10.4837    4.5325  -14.5526 H   0  0  0  0  0  0  0  0  0  0  0  0
   10.7608    2.8966  -14.0216 H   0  0  0  0  0  0  0  0  0  0  0  0
    8.8865    3.7604  -16.2703 H   0  0  0  0  0  0  0  0  0  0  0  0
   10.4209    2.9748  -16.4884 H   0  0  0  0  0  0  0  0  0  0  0  0
    9.6487    0.8743  -15.6944 H   0  0  0  0  0  0  0  0  0  0  0  0
    5.4370   -0.3296  -19.1450 H   0  0  0  0  0  0  0  0  0  0  0  0
    9.2094    3.1323  -12.6325 H   0  0  0  0  0  0  0  0  0  0  0  0
  2  1  2  0
  3  2  1  0
  4  3  1  0
  5  4  1  0
  6  5  2  0
  7  6  1  0
  8  7  2  0
  9  8  1  0
 10  5  1  0
 10  9  2  0
 11 10  1  0
 12 11  1  0
 13 12  1  0
 14 13  1  0
 15 14  1  0
 16 15  1  0
 17 16  1  0
 18 17  2  0
 19 18  1  0
 20 19  1  0
 21 20  2  0
 22 21  1  0
 23 22  1  0
 24 22  2  0
 25 24  1  0
 26 17  1  0
 26 20  1  0
 26 25  2  0
 27 13  1  0
 28 27  1  0
 29  4  1  0
 29 11  1  0
 29 28  1  0
 30  2  1  0
 30  6  1  0
 31  3  1  0
 32  3  1  0
 33  7  1  0
 34  8  1  0
 35  9  1  0
 11 36  1  1
 37 12  1  0
 38 12  1  0
 39 14  1  0
 40 14  1  0
 41 15  1  0
 42 15  1  0
 43 16  1  0
 44 16  1  0
 45 19  1  0
 46 21  1  0
 47 24  1  0
 48 25  1  0
 49 27  1  0
 50 27  1  0
 51 28  1  0
 52 28  1  0
 29 53  1  1
 54 30  1  0
 13 55  1  1
M  CHG  1  13   1
M  END
>  <b_m_subgroup_collapsed>  (613) 
0

>  <r_i_docking_score>  (613) 
-7.6697600208145396

>  <s_m_subgroup_title>  (613) 
glide-dock_SP_D22_pv

>  <s_m_subgroupid>  (613) 
glide-dock_SP_D22_pv

>  <Molecule ChEMBL ID>  (613) 
CHEMBL5558071

>  <Standard Type>  (613) 
Ki

>  <Standard Value>  (613) 
15.0

>  <label>  (613) 
1

$$$$
CHEMBL3764306
     RDKit          3D

 60 63  0  0  1  0  0  0  0  0999 V2000
    9.1629    3.3764  -17.8092 C   0  0  0  0  0  0  0  0  0  0  0  0
    9.7661    2.9073  -16.5730 N   0  0  0  0  0  0  0  0  0  0  0  0
   10.9290    3.2979  -16.0065 C   0  0  0  0  0  0  0  0  0  0  0  0
   11.9952    4.5128  -16.7249 S   0  0  0  0  0  0  0  0  0  0  0  0
   12.5528    5.3562  -15.2079 C   0  0  0  0  0  0  0  0  0  0  0  0
   11.4184    6.1736  -14.5675 C   0  0  0  0  0  0  0  0  0  0  0  0
   11.6773    6.5451  -13.0912 C   0  0  0  0  0  0  0  0  0  0  0  0
   10.4881    6.7551  -12.2469 N   0  0  0  0  0  0  0  0  0  0  0  0
    9.6846    5.5345  -12.1037 C   0  0  0  0  0  0  0  0  0  0  0  0
    8.5122    5.7103  -11.1291 C   0  0  0  0  0  0  0  0  0  0  0  0
    9.0277    6.1001   -9.8662 O   0  0  0  0  0  0  0  0  0  0  0  0
    9.7141    7.3496   -9.9028 C   0  0  1  0  0  0  0  0  0  0  0  0
   10.2102    7.7472   -8.5136 C   0  0  0  0  0  0  0  0  0  0  0  0
   10.8838    8.9723   -8.3217 C   0  0  0  0  0  0  0  0  0  0  0  0
   11.3464    9.3391   -7.0411 C   0  0  0  0  0  0  0  0  0  0  0  0
   11.1583    8.4840   -5.9360 C   0  0  0  0  0  0  0  0  0  0  0  0
   11.6707    8.8993   -4.5624 C   0  0  0  0  0  0  0  0  0  0  0  0
   11.6861    7.8781   -3.7067 F   0  0  0  0  0  0  0  0  0  0  0  0
   12.9080    9.3772   -4.6503 F   0  0  0  0  0  0  0  0  0  0  0  0
   10.8866    9.8602   -4.0787 F   0  0  0  0  0  0  0  0  0  0  0  0
   10.4818    7.2600   -6.1253 C   0  0  0  0  0  0  0  0  0  0  0  0
   10.0094    6.8971   -7.4017 C   0  0  0  0  0  0  0  0  0  0  0  0
   10.8817    7.2388  -10.9149 C   0  0  0  0  0  0  0  0  0  0  0  0
   11.1843    2.6872  -14.8500 N   0  0  0  0  0  0  0  0  0  0  0  0
   10.1338    1.8314  -14.6468 N   0  0  0  0  0  0  0  0  0  0  0  0
    9.3087    1.9932  -15.6846 C   0  0  0  0  0  0  0  0  0  0  0  0
    8.0605    1.2390  -15.7713 C   0  0  0  0  0  0  0  0  0  0  0  0
    7.6610    0.5556  -16.9370 C   0  0  0  0  0  0  0  0  0  0  0  0
    6.4672   -0.1933  -16.9141 C   0  0  0  0  0  0  0  0  0  0  0  0
    5.7169   -0.2535  -15.7144 C   0  0  0  0  0  0  0  0  0  0  0  0
    4.4631   -1.0803  -15.6245 C   0  0  0  0  0  0  0  0  0  0  0  0
    4.4869   -2.2278  -16.3045 N   0  0  0  0  0  0  0  0  0  0  0  0
    3.5135   -0.7522  -14.9119 O   0  0  0  0  0  0  0  0  0  0  0  0
    6.0866    0.4258  -14.6053 N   0  0  0  0  0  0  0  0  0  0  0  0
    7.2236    1.1477  -14.6424 C   0  0  0  0  0  0  0  0  0  0  0  0
    9.3190    4.4496  -17.9163 H   0  0  0  0  0  0  0  0  0  0  0  0
    9.6173    2.8625  -18.6551 H   0  0  0  0  0  0  0  0  0  0  0  0
    8.0895    3.1897  -17.8080 H   0  0  0  0  0  0  0  0  0  0  0  0
   12.9445    4.6107  -14.5146 H   0  0  0  0  0  0  0  0  0  0  0  0
   13.3887    6.0111  -15.4532 H   0  0  0  0  0  0  0  0  0  0  0  0
   11.2861    7.0839  -15.1513 H   0  0  0  0  0  0  0  0  0  0  0  0
   10.4883    5.6207  -14.6688 H   0  0  0  0  0  0  0  0  0  0  0  0
   12.3003    5.7724  -12.6469 H   0  0  0  0  0  0  0  0  0  0  0  0
   12.2975    7.4425  -13.0763 H   0  0  0  0  0  0  0  0  0  0  0  0
    9.2701    5.2301  -13.0623 H   0  0  0  0  0  0  0  0  0  0  0  0
   10.3102    4.7079  -11.7670 H   0  0  0  0  0  0  0  0  0  0  0  0
    7.8016    6.4497  -11.4997 H   0  0  0  0  0  0  0  0  0  0  0  0
    7.9678    4.7729  -11.0139 H   0  0  0  0  0  0  0  0  0  0  0  0
    9.0131    8.1184  -10.2314 H   0  0  0  0  0  0  0  0  0  0  0  0
   11.0418    9.6400   -9.1562 H   0  0  0  0  0  0  0  0  0  0  0  0
   11.8513   10.2822   -6.9011 H   0  0  0  0  0  0  0  0  0  0  0  0
   10.3135    6.5925   -5.2928 H   0  0  0  0  0  0  0  0  0  0  0  0
    9.4896    5.9560   -7.5150 H   0  0  0  0  0  0  0  0  0  0  0  0
   11.6251    6.5723  -10.4795 H   0  0  0  0  0  0  0  0  0  0  0  0
   11.3694    8.2087  -11.0173 H   0  0  0  0  0  0  0  0  0  0  0  0
    8.2646    0.5878  -17.8306 H   0  0  0  0  0  0  0  0  0  0  0  0
    6.1495   -0.7227  -17.8010 H   0  0  0  0  0  0  0  0  0  0  0  0
    5.3236   -2.4839  -16.8071 H   0  0  0  0  0  0  0  0  0  0  0  0
    3.7056   -2.8853  -16.2469 H   0  0  0  0  0  0  0  0  0  0  0  0
    7.4742    1.6706  -13.7349 H   0  0  0  0  0  0  0  0  0  0  0  0
  2  1  1  0
  3  2  1  0
  4  3  1  0
  5  4  1  0
  6  5  1  0
  7  6  1  0
  8  7  1  0
  9  8  1  0
 10  9  1  0
 11 10  1  0
 12 11  1  0
 13 12  1  0
 14 13  1  0
 15 14  2  0
 16 15  1  0
 17 16  1  0
 18 17  1  0
 19 17  1  0
 20 17  1  0
 21 16  2  0
 22 13  2  0
 22 21  1  0
 23  8  1  0
 23 12  1  0
 24  3  2  0
 25 24  1  0
 26  2  1  0
 26 25  2  0
 27 26  1  0
 28 27  2  0
 29 28  1  0
 30 29  2  0
 31 30  1  0
 32 31  1  0
 33 31  2  0
 34 30  1  0
 35 27  1  0
 35 34  2  0
 36  1  1  0
 37  1  1  0
 38  1  1  0
 39  5  1  0
 40  5  1  0
 41  6  1  0
 42  6  1  0
 43  7  1  0
 44  7  1  0
 45  9  1  0
 46  9  1  0
 47 10  1  0
 48 10  1  0
 12 49  1  6
 50 14  1  0
 51 15  1  0
 52 21  1  0
 53 22  1  0
 54 23  1  0
 55 23  1  0
 56 28  1  0
 57 29  1  0
 58 32  1  0
 59 32  1  0
 60 35  1  0
M  END
>  <b_m_subgroup_collapsed>  (614) 
0

>  <r_i_docking_score>  (614) 
-7.6688192417516996

>  <s_m_subgroup_title>  (614) 
glide-dock_SP_D22_pv

>  <s_m_subgroupid>  (614) 
glide-dock_SP_D22_pv

>  <Molecule ChEMBL ID>  (614) 
CHEMBL3764306

>  <Standard Type>  (614) 
Ki

>  <Standard Value>  (614) 
24547.0

>  <label>  (614) 
0

$$$$
CHEMBL2207643
     RDKit          3D

 50 53  0  0  1  0  0  0  0  0999 V2000
   11.7817   11.0815   -6.1603 C   0  0  0  0  0  0  0  0  0  0  0  0
   11.1880    9.8170   -6.3227 O   0  0  0  0  0  0  0  0  0  0  0  0
   11.4234    8.8885   -5.3310 C   0  0  0  0  0  0  0  0  0  0  0  0
   12.1455    9.1801   -4.1415 C   0  0  0  0  0  0  0  0  0  0  0  0
   12.4353    8.1770   -3.2010 C   0  0  0  0  0  0  0  0  0  0  0  0
   12.0077    6.8642   -3.4405 C   0  0  0  0  0  0  0  0  0  0  0  0
   11.2690    6.5733   -4.6008 C   0  0  0  0  0  0  0  0  0  0  0  0
   10.9391    7.5751   -5.5397 C   0  0  0  0  0  0  0  0  0  0  0  0
   10.1244    7.2673   -6.6477 N   0  0  0  0  0  0  0  0  0  0  0  0
   10.3771    6.1038   -7.4823 C   0  0  0  0  0  0  0  0  0  0  0  0
   10.4365    6.5081   -8.9688 C   0  0  0  0  0  0  0  0  0  0  0  0
    9.2862    7.3621   -9.3786 N   0  0  0  0  0  0  0  0  0  0  0  0
    9.3117    7.7159  -10.8213 C   0  0  0  0  0  0  0  0  0  0  0  0
    9.1630    6.4816  -11.7002 C   0  0  0  0  0  0  0  0  0  0  0  0
    8.0022    5.6330  -11.6522 C   0  0  0  0  0  0  0  0  0  0  0  0
    8.2242    4.5688  -12.5685 C   0  0  0  0  0  0  0  0  0  0  0  0
    9.4550    4.7015  -13.2156 C   0  0  0  0  0  0  0  0  0  0  0  0
    9.9267    3.7929  -14.1631 C   0  0  0  0  0  0  0  0  0  0  0  0
   11.1611    3.8666  -14.8881 C   0  0  0  0  0  0  0  0  0  0  0  0
   12.1718    4.8835  -14.8270 C   0  0  0  0  0  0  0  0  0  0  0  0
   12.2164    6.0716  -14.0227 C   0  0  0  0  0  0  0  0  0  0  0  0
   11.2809    6.5487  -13.0441 C   0  0  0  0  0  0  0  0  0  0  0  0
   10.0664    5.9605  -12.6698 C   0  0  0  0  0  0  0  0  0  0  0  0
    9.1299    8.5476   -8.4956 C   0  0  0  0  0  0  0  0  0  0  0  0
    8.9949    8.1127   -7.0254 C   0  0  0  0  0  0  0  0  0  0  0  0
   11.6854   11.7024   -7.0471 H   0  0  0  0  0  0  0  0  0  0  0  0
   11.2877   11.5845   -5.3282 H   0  0  0  0  0  0  0  0  0  0  0  0
   12.8515   10.9723   -5.9799 H   0  0  0  0  0  0  0  0  0  0  0  0
   12.5079   10.1723   -3.9195 H   0  0  0  0  0  0  0  0  0  0  0  0
   12.9837    8.4182   -2.3027 H   0  0  0  0  0  0  0  0  0  0  0  0
   12.2159    6.0834   -2.7220 H   0  0  0  0  0  0  0  0  0  0  0  0
   10.8864    5.5816   -4.7233 H   0  0  0  0  0  0  0  0  0  0  0  0
    9.5762    5.3787   -7.3315 H   0  0  0  0  0  0  0  0  0  0  0  0
   11.3114    5.6240   -7.1952 H   0  0  0  0  0  0  0  0  0  0  0  0
   10.4744    5.6037   -9.5741 H   0  0  0  0  0  0  0  0  0  0  0  0
   11.3592    7.0579   -9.1611 H   0  0  0  0  0  0  0  0  0  0  0  0
   10.2252    8.2625  -11.0473 H   0  0  0  0  0  0  0  0  0  0  0  0
    8.4862    8.3901  -11.0474 H   0  0  0  0  0  0  0  0  0  0  0  0
    7.1288    5.7721  -11.0274 H   0  0  0  0  0  0  0  0  0  0  0  0
    7.5083    3.7718  -12.7237 H   0  0  0  0  0  0  0  0  0  0  0  0
    9.2967    2.9383  -14.3730 H   0  0  0  0  0  0  0  0  0  0  0  0
   11.3510    3.0541  -15.5804 H   0  0  0  0  0  0  0  0  0  0  0  0
   13.0222    4.7327  -15.4819 H   0  0  0  0  0  0  0  0  0  0  0  0
   13.0975    6.6852  -14.1598 H   0  0  0  0  0  0  0  0  0  0  0  0
   11.5605    7.4722  -12.5544 H   0  0  0  0  0  0  0  0  0  0  0  0
    9.9962    9.1996   -8.6160 H   0  0  0  0  0  0  0  0  0  0  0  0
    8.2580    9.1305   -8.7880 H   0  0  0  0  0  0  0  0  0  0  0  0
    8.0859    7.5283   -6.8929 H   0  0  0  0  0  0  0  0  0  0  0  0
    8.8929    8.9727   -6.3671 H   0  0  0  0  0  0  0  0  0  0  0  0
    8.4344    6.8298   -9.2454 H   0  0  0  0  0  0  0  0  0  0  0  0
  2  1  1  0
  3  2  1  0
  4  3  2  0
  5  4  1  0
  6  5  2  0
  7  6  1  0
  8  3  1  0
  8  7  2  0
  9  8  1  0
 10  9  1  0
 11 10  1  0
 12 11  1  0
 13 12  1  0
 14 13  1  0
 15 14  1  0
 16 15  2  0
 17 16  1  0
 18 17  2  0
 19 18  1  0
 20 19  2  0
 21 20  1  0
 22 21  2  0
 23 14  2  0
 23 17  1  0
 23 22  1  0
 24 12  1  0
 25  9  1  0
 25 24  1  0
 26  1  1  0
 27  1  1  0
 28  1  1  0
 29  4  1  0
 30  5  1  0
 31  6  1  0
 32  7  1  0
 33 10  1  0
 34 10  1  0
 35 11  1  0
 36 11  1  0
 37 13  1  0
 38 13  1  0
 39 15  1  0
 40 16  1  0
 41 18  1  0
 42 19  1  0
 43 20  1  0
 44 21  1  0
 45 22  1  0
 46 24  1  0
 47 24  1  0
 48 25  1  0
 49 25  1  0
 50 12  1  0
M  CHG  1  12   1
M  END
>  <b_m_subgroup_collapsed>  (615) 
0

>  <r_i_docking_score>  (615) 
-7.6684489484174501

>  <s_m_subgroup_title>  (615) 
glide-dock_SP_D22_pv

>  <s_m_subgroupid>  (615) 
glide-dock_SP_D22_pv

>  <Molecule ChEMBL ID>  (615) 
CHEMBL2207643

>  <Standard Type>  (615) 
Ki

>  <Standard Value>  (615) 
24.0

>  <label>  (615) 
1

$$$$
CHEMBL4462839
     RDKit          3D

 63 66  0  0  1  0  0  0  0  0999 V2000
   12.2637    5.1343  -13.7258 O   0  0  0  0  0  0  0  0  0  0  0  0
   12.1876    4.8637  -14.9224 C   0  0  0  0  0  0  0  0  0  0  0  0
   12.6840    5.7276  -16.0359 C   0  0  0  0  0  0  0  0  0  0  0  0
   13.2820    6.9935  -15.8926 C   0  0  0  0  0  0  0  0  0  0  0  0
   13.6431    7.7041  -17.0603 C   0  0  0  0  0  0  0  0  0  0  0  0
   13.4171    7.1517  -18.3436 C   0  0  0  0  0  0  0  0  0  0  0  0
   12.8203    5.8789  -18.4827 C   0  0  0  0  0  0  0  0  0  0  0  0
   12.4678    5.1971  -17.3080 C   0  0  0  0  0  0  0  0  0  0  0  0
   11.6453    3.6406  -17.1816 S   0  0  0  0  0  0  0  0  0  0  0  0
   10.3020    3.7463  -17.7710 O   0  0  0  0  0  0  0  0  0  0  0  0
   12.5638    2.5470  -17.5291 O   0  0  0  0  0  0  0  0  0  0  0  0
   11.5335    3.7465  -15.4616 N   0  0  0  0  0  0  0  0  0  0  0  0
   10.5386    2.9608  -14.7112 C   0  0  0  0  0  0  0  0  0  0  0  0
    9.1359    3.6148  -14.7155 C   0  0  0  0  0  0  0  0  0  0  0  0
    8.9613    4.8616  -13.8245 C   0  0  0  0  0  0  0  0  0  0  0  0
    8.9527    4.5384  -12.3244 C   0  0  0  0  0  0  0  0  0  0  0  0
    9.0847    5.7793  -11.4249 C   0  0  0  0  0  0  0  0  0  0  0  0
    8.8456    5.3921   -9.9562 C   0  0  0  0  0  0  0  0  0  0  0  0
    9.3382    6.3673   -8.9451 N   0  0  0  0  0  0  0  0  0  0  0  0
    8.7655    6.0331   -7.6245 C   0  0  0  0  0  0  0  0  0  0  0  0
    9.2438    6.9813   -6.5046 C   0  0  0  0  0  0  0  0  0  0  0  0
   10.6972    7.1259   -6.4863 N   0  0  0  0  0  0  0  0  0  0  0  0
   11.2871    7.5542   -5.2696 C   0  0  0  0  0  0  0  0  0  0  0  0
   11.5101    6.5699   -4.2964 C   0  0  0  0  0  0  0  0  0  0  0  0
   12.0852    6.8358   -3.0419 C   0  0  0  0  0  0  0  0  0  0  0  0
   12.4523    8.1454   -2.7186 C   0  0  0  0  0  0  0  0  0  0  0  0
   12.2165    9.1608   -3.6540 C   0  0  0  0  0  0  0  0  0  0  0  0
   11.6250    8.8882   -4.9116 C   0  0  0  0  0  0  0  0  0  0  0  0
   11.3127   10.0852   -5.7674 C   0  0  0  0  0  0  0  0  0  0  0  0
   10.4854    9.8259   -6.7581 F   0  0  0  0  0  0  0  0  0  0  0  0
   10.7208   10.9753   -4.9892 F   0  0  0  0  0  0  0  0  0  0  0  0
   12.4374   10.5944   -6.2480 F   0  0  0  0  0  0  0  0  0  0  0  0
   11.3561    7.3522   -7.7736 C   0  0  0  0  0  0  0  0  0  0  0  0
   10.8196    6.3734   -8.8350 C   0  0  0  0  0  0  0  0  0  0  0  0
   13.4480    7.4183  -14.9135 H   0  0  0  0  0  0  0  0  0  0  0  0
   14.0893    8.6840  -16.9761 H   0  0  0  0  0  0  0  0  0  0  0  0
   13.6960    7.7133  -19.2228 H   0  0  0  0  0  0  0  0  0  0  0  0
   12.6276    5.4504  -19.4555 H   0  0  0  0  0  0  0  0  0  0  0  0
   10.4654    1.9820  -15.1878 H   0  0  0  0  0  0  0  0  0  0  0  0
   10.8940    2.7683  -13.6991 H   0  0  0  0  0  0  0  0  0  0  0  0
    8.8739    3.8776  -15.7376 H   0  0  0  0  0  0  0  0  0  0  0  0
    8.4004    2.8687  -14.4112 H   0  0  0  0  0  0  0  0  0  0  0  0
    9.7196    5.6074  -14.0503 H   0  0  0  0  0  0  0  0  0  0  0  0
    8.0164    5.3426  -14.0755 H   0  0  0  0  0  0  0  0  0  0  0  0
    8.0376    3.9921  -12.0855 H   0  0  0  0  0  0  0  0  0  0  0  0
    9.7731    3.8618  -12.0851 H   0  0  0  0  0  0  0  0  0  0  0  0
   10.0740    6.2079  -11.5789 H   0  0  0  0  0  0  0  0  0  0  0  0
    8.3653    6.5457  -11.7182 H   0  0  0  0  0  0  0  0  0  0  0  0
    7.7699    5.2600   -9.8350 H   0  0  0  0  0  0  0  0  0  0  0  0
    9.2960    4.4192   -9.7505 H   0  0  0  0  0  0  0  0  0  0  0  0
    7.6862    6.0493   -7.6637 H   0  0  0  0  0  0  0  0  0  0  0  0
    9.0409    4.9917   -7.4474 H   0  0  0  0  0  0  0  0  0  0  0  0
    8.7824    7.9620   -6.6309 H   0  0  0  0  0  0  0  0  0  0  0  0
    8.8871    6.5868   -5.5556 H   0  0  0  0  0  0  0  0  0  0  0  0
   11.2294    5.5586   -4.5199 H   0  0  0  0  0  0  0  0  0  0  0  0
   12.2363    6.0341   -2.3337 H   0  0  0  0  0  0  0  0  0  0  0  0
   12.8896    8.3764   -1.7585 H   0  0  0  0  0  0  0  0  0  0  0  0
   12.4750   10.1701   -3.3822 H   0  0  0  0  0  0  0  0  0  0  0  0
   11.2073    8.3549   -8.1604 H   0  0  0  0  0  0  0  0  0  0  0  0
   12.4329    7.2335   -7.6584 H   0  0  0  0  0  0  0  0  0  0  0  0
   11.0857    5.3703   -8.5175 H   0  0  0  0  0  0  0  0  0  0  0  0
   11.2913    6.5664   -9.7960 H   0  0  0  0  0  0  0  0  0  0  0  0
    9.0052    7.2880   -9.1996 H   0  0  0  0  0  0  0  0  0  0  0  0
  2  1  2  0
  3  2  1  0
  4  3  2  0
  5  4  1  0
  6  5  2  0
  7  6  1  0
  8  3  1  0
  8  7  2  0
  9  8  1  0
 10  9  2  0
 11  9  2  0
 12  2  1  0
 12  9  1  0
 13 12  1  0
 14 13  1  0
 15 14  1  0
 16 15  1  0
 17 16  1  0
 18 17  1  0
 19 18  1  0
 20 19  1  0
 21 20  1  0
 22 21  1  0
 23 22  1  0
 24 23  2  0
 25 24  1  0
 26 25  2  0
 27 26  1  0
 28 23  1  0
 28 27  2  0
 29 28  1  0
 30 29  1  0
 31 29  1  0
 32 29  1  0
 33 22  1  0
 34 19  1  0
 34 33  1  0
 35  4  1  0
 36  5  1  0
 37  6  1  0
 38  7  1  0
 39 13  1  0
 40 13  1  0
 41 14  1  0
 42 14  1  0
 43 15  1  0
 44 15  1  0
 45 16  1  0
 46 16  1  0
 47 17  1  0
 48 17  1  0
 49 18  1  0
 50 18  1  0
 51 20  1  0
 52 20  1  0
 53 21  1  0
 54 21  1  0
 55 24  1  0
 56 25  1  0
 57 26  1  0
 58 27  1  0
 59 33  1  0
 60 33  1  0
 61 34  1  0
 62 34  1  0
 63 19  1  0
M  CHG  1  19   1
M  END
>  <b_m_subgroup_collapsed>  (616) 
0

>  <r_i_docking_score>  (616) 
-7.6661135377634499

>  <s_m_subgroup_title>  (616) 
glide-dock_SP_D22_pv

>  <s_m_subgroupid>  (616) 
glide-dock_SP_D22_pv

>  <Molecule ChEMBL ID>  (616) 
CHEMBL4462839

>  <Standard Type>  (616) 
Ki

>  <Standard Value>  (616) 
27.0

>  <label>  (616) 
1

$$$$
CHEMBL5403404
     RDKit          3D

 67 70  0  0  1  0  0  0  0  0999 V2000
   10.3730    7.1960   -5.6112 C   0  0  0  0  0  0  0  0  0  0  0  0
   10.3329    6.8270   -7.0926 C   0  0  0  0  0  0  0  0  0  0  0  0
    8.9366    7.0376   -7.7252 C   0  0  0  0  0  0  0  0  0  0  0  0
    8.8872    6.7821   -9.1888 N   0  0  0  0  0  0  0  0  0  0  0  0
    9.1281    5.3544   -9.5457 C   0  0  0  0  0  0  0  0  0  0  0  0
    9.0809    5.1149  -11.0628 C   0  0  0  0  0  0  0  0  0  0  0  0
    9.9253    6.0772  -11.7647 N   0  0  0  0  0  0  0  0  0  0  0  0
   10.4250    5.7718  -13.0473 C   0  0  0  0  0  0  0  0  0  0  0  0
   11.5502    6.4584  -13.5598 C   0  0  0  0  0  0  0  0  0  0  0  0
   11.9703    6.2500  -14.8874 C   0  0  0  0  0  0  0  0  0  0  0  0
   11.2949    5.3384  -15.7218 C   0  0  0  0  0  0  0  0  0  0  0  0
   10.2349    4.5719  -15.1855 C   0  0  0  0  0  0  0  0  0  0  0  0
    9.8082    4.7916  -13.8591 C   0  0  0  0  0  0  0  0  0  0  0  0
    9.5295    3.5035  -16.0081 C   0  0  2  0  0  0  0  0  0  0  0  0
    9.8924    2.1311  -15.6018 N   0  0  0  0  0  0  0  0  0  0  0  0
   11.3118    1.8308  -15.4426 C   0  0  0  0  0  0  0  0  0  0  0  0
    8.9946    1.1567  -15.1469 C   0  0  0  0  0  0  0  0  0  0  0  0
    9.3170    0.0149  -14.8207 O   0  0  0  0  0  0  0  0  0  0  0  0
    7.7375    1.6338  -15.0132 O   0  0  0  0  0  0  0  0  0  0  0  0
    6.8294    0.9917  -14.1216 C   0  0  0  0  0  0  0  0  0  0  0  0
    5.7350    0.1722  -14.7875 C   0  0  0  0  0  0  0  0  0  0  0  0
    4.4418    0.1688  -14.2219 C   0  0  0  0  0  0  0  0  0  0  0  0
    3.4213   -0.6274  -14.7741 C   0  0  0  0  0  0  0  0  0  0  0  0
    3.6829   -1.4166  -15.9093 C   0  0  0  0  0  0  0  0  0  0  0  0
    4.9696   -1.4147  -16.4830 C   0  0  0  0  0  0  0  0  0  0  0  0
    5.9941   -0.6263  -15.9204 C   0  0  0  0  0  0  0  0  0  0  0  0
    9.6575    3.7147  -17.5292 C   0  0  0  0  0  0  0  0  0  0  0  0
   11.0822    4.0695  -17.9701 C   0  0  0  0  0  0  0  0  0  0  0  0
   11.6854    5.2515  -17.1932 C   0  0  0  0  0  0  0  0  0  0  0  0
    9.6013    7.4713  -11.4845 C   0  0  0  0  0  0  0  0  0  0  0  0
    9.7064    7.7410   -9.9780 C   0  0  0  0  0  0  0  0  0  0  0  0
   11.3707    7.0548   -5.1965 H   0  0  0  0  0  0  0  0  0  0  0  0
   10.0871    8.2350   -5.4508 H   0  0  0  0  0  0  0  0  0  0  0  0
    9.6853    6.5722   -5.0460 H   0  0  0  0  0  0  0  0  0  0  0  0
   10.6461    5.7854   -7.1897 H   0  0  0  0  0  0  0  0  0  0  0  0
   11.0876    7.4298   -7.5978 H   0  0  0  0  0  0  0  0  0  0  0  0
    8.5972    8.0578   -7.5435 H   0  0  0  0  0  0  0  0  0  0  0  0
    8.2037    6.3979   -7.2287 H   0  0  0  0  0  0  0  0  0  0  0  0
    8.3984    4.7175   -9.0451 H   0  0  0  0  0  0  0  0  0  0  0  0
   10.1100    5.0449   -9.1946 H   0  0  0  0  0  0  0  0  0  0  0  0
    8.0578    5.2066  -11.4233 H   0  0  0  0  0  0  0  0  0  0  0  0
    9.4041    4.0965  -11.2738 H   0  0  0  0  0  0  0  0  0  0  0  0
   12.0717    7.1835  -12.9518 H   0  0  0  0  0  0  0  0  0  0  0  0
   12.7950    6.8274  -15.2749 H   0  0  0  0  0  0  0  0  0  0  0  0
    8.9659    4.2242  -13.4937 H   0  0  0  0  0  0  0  0  0  0  0  0
    8.4860    3.6718  -15.7802 H   0  0  0  0  0  0  0  0  0  0  0  0
   11.5261    1.7044  -14.3821 H   0  0  0  0  0  0  0  0  0  0  0  0
   11.5831    0.9156  -15.9684 H   0  0  0  0  0  0  0  0  0  0  0  0
   11.9699    2.6156  -15.8022 H   0  0  0  0  0  0  0  0  0  0  0  0
    6.3591    1.7674  -13.5202 H   0  0  0  0  0  0  0  0  0  0  0  0
    7.3447    0.3431  -13.4126 H   0  0  0  0  0  0  0  0  0  0  0  0
    4.2290    0.7715  -13.3516 H   0  0  0  0  0  0  0  0  0  0  0  0
    2.4338   -0.6272  -14.3362 H   0  0  0  0  0  0  0  0  0  0  0  0
    2.8888   -2.0173  -16.3307 H   0  0  0  0  0  0  0  0  0  0  0  0
    5.1718   -2.0295  -17.3504 H   0  0  0  0  0  0  0  0  0  0  0  0
    6.9846   -0.6556  -16.3531 H   0  0  0  0  0  0  0  0  0  0  0  0
    9.2850    2.8475  -18.0750 H   0  0  0  0  0  0  0  0  0  0  0  0
    9.0078    4.5388  -17.8153 H   0  0  0  0  0  0  0  0  0  0  0  0
   11.1086    4.2774  -19.0394 H   0  0  0  0  0  0  0  0  0  0  0  0
   11.7157    3.1945  -17.8370 H   0  0  0  0  0  0  0  0  0  0  0  0
   11.3568    6.1769  -17.6612 H   0  0  0  0  0  0  0  0  0  0  0  0
   12.7692    5.2344  -17.2848 H   0  0  0  0  0  0  0  0  0  0  0  0
   10.2483    8.1599  -12.0271 H   0  0  0  0  0  0  0  0  0  0  0  0
    8.5870    7.6733  -11.8292 H   0  0  0  0  0  0  0  0  0  0  0  0
    9.3881    8.7611   -9.7599 H   0  0  0  0  0  0  0  0  0  0  0  0
   10.7554    7.6639   -9.6983 H   0  0  0  0  0  0  0  0  0  0  0  0
    7.9261    6.9788   -9.4692 H   0  0  0  0  0  0  0  0  0  0  0  0
  2  1  1  0
  3  2  1  0
  4  3  1  0
  5  4  1  0
  6  5  1  0
  7  6  1  0
  8  7  1  0
  9  8  1  0
 10  9  2  0
 11 10  1  0
 12 11  2  0
 13  8  2  0
 13 12  1  0
 14 12  1  0
 15 14  1  0
 16 15  1  0
 17 15  1  0
 18 17  2  0
 19 17  1  0
 20 19  1  0
 21 20  1  0
 22 21  2  0
 23 22  1  0
 24 23  2  0
 25 24  1  0
 26 21  1  0
 26 25  2  0
 27 14  1  0
 28 27  1  0
 29 11  1  0
 29 28  1  0
 30  7  1  0
 31  4  1  0
 31 30  1  0
 32  1  1  0
 33  1  1  0
 34  1  1  0
 35  2  1  0
 36  2  1  0
 37  3  1  0
 38  3  1  0
 39  5  1  0
 40  5  1  0
 41  6  1  0
 42  6  1  0
 43  9  1  0
 44 10  1  0
 45 13  1  0
 14 46  1  1
 47 16  1  0
 48 16  1  0
 49 16  1  0
 50 20  1  0
 51 20  1  0
 52 22  1  0
 53 23  1  0
 54 24  1  0
 55 25  1  0
 56 26  1  0
 57 27  1  0
 58 27  1  0
 59 28  1  0
 60 28  1  0
 61 29  1  0
 62 29  1  0
 63 30  1  0
 64 30  1  0
 65 31  1  0
 66 31  1  0
 67  4  1  0
M  CHG  1   4   1
M  END
>  <b_m_subgroup_collapsed>  (617) 
0

>  <r_i_docking_score>  (617) 
-7.6646130346415298

>  <s_m_subgroup_title>  (617) 
glide-dock_SP_D22_pv

>  <s_m_subgroupid>  (617) 
glide-dock_SP_D22_pv

>  <Molecule ChEMBL ID>  (617) 
CHEMBL5403404

>  <Standard Type>  (617) 
Ki

>  <Standard Value>  (617) 
10000.0

>  <label>  (617) 
0

$$$$
CHEMBL91669
     RDKit          3D

 52 55  0  0  1  0  0  0  0  0999 V2000
   12.6348    4.7446  -15.2412 C   0  0  0  0  0  0  0  0  0  0  0  0
   11.4519    4.8797  -14.3903 N   0  0  0  0  0  0  0  0  0  0  0  0
   10.3461    4.0342  -14.4136 C   0  0  0  0  0  0  0  0  0  0  0  0
   10.1814    2.8132  -15.2289 C   0  0  0  0  0  0  0  0  0  0  0  0
   10.5495    2.7863  -16.5931 C   0  0  0  0  0  0  0  0  0  0  0  0
   10.3807    1.6092  -17.3508 C   0  0  0  0  0  0  0  0  0  0  0  0
    9.8303    0.4589  -16.7556 C   0  0  0  0  0  0  0  0  0  0  0  0
    9.4332    0.4895  -15.4064 C   0  0  0  0  0  0  0  0  0  0  0  0
    9.6008    1.6648  -14.6472 C   0  0  0  0  0  0  0  0  0  0  0  0
    9.5553    4.4443  -13.4214 C   0  0  0  0  0  0  0  0  0  0  0  0
   10.1241    5.5417  -12.7945 N   0  0  0  0  0  0  0  0  0  0  0  0
    9.5041    6.1684  -11.6002 C   0  0  1  0  0  0  0  0  0  0  0  0
    9.1965    5.1093  -10.5135 C   0  0  0  0  0  0  0  0  0  0  0  0
    8.6203    5.7244   -9.2282 C   0  0  0  0  0  0  0  0  0  0  0  0
    9.5018    6.7748   -8.6681 N   0  0  2  0  0  0  0  0  0  0  0  0
    9.0072    7.2746   -7.3550 C   0  0  0  0  0  0  0  0  0  0  0  0
   10.1161    7.8525   -6.4854 C   0  0  0  0  0  0  0  0  0  0  0  0
   10.5104    9.1933   -6.6498 C   0  0  0  0  0  0  0  0  0  0  0  0
   11.4949    9.7657   -5.8185 C   0  0  0  0  0  0  0  0  0  0  0  0
   12.0838    8.9972   -4.7973 C   0  0  0  0  0  0  0  0  0  0  0  0
   11.6860    7.6562   -4.6200 C   0  0  0  0  0  0  0  0  0  0  0  0
   10.7226    7.0818   -5.4716 C   0  0  0  0  0  0  0  0  0  0  0  0
    9.7213    7.8538   -9.6683 C   0  0  0  0  0  0  0  0  0  0  0  0
   10.3387    7.3095  -10.9649 C   0  0  0  0  0  0  0  0  0  0  0  0
   11.2799    5.8255  -13.4470 C   0  0  0  0  0  0  0  0  0  0  0  0
   12.0557    6.7523  -13.2139 O   0  0  0  0  0  0  0  0  0  0  0  0
   13.5098    5.2079  -14.7826 H   0  0  0  0  0  0  0  0  0  0  0  0
   12.8839    3.6985  -15.4177 H   0  0  0  0  0  0  0  0  0  0  0  0
   12.4676    5.2331  -16.2007 H   0  0  0  0  0  0  0  0  0  0  0  0
   10.9575    3.6638  -17.0720 H   0  0  0  0  0  0  0  0  0  0  0  0
   10.6712    1.5927  -18.3908 H   0  0  0  0  0  0  0  0  0  0  0  0
    9.7022   -0.4426  -17.3370 H   0  0  0  0  0  0  0  0  0  0  0  0
    8.9973   -0.3891  -14.9556 H   0  0  0  0  0  0  0  0  0  0  0  0
    9.2866    1.6739  -13.6131 H   0  0  0  0  0  0  0  0  0  0  0  0
    8.6257    4.0316  -13.0639 H   0  0  0  0  0  0  0  0  0  0  0  0
    8.5543    6.5962  -11.9268 H   0  0  0  0  0  0  0  0  0  0  0  0
    8.4715    4.3841  -10.8847 H   0  0  0  0  0  0  0  0  0  0  0  0
   10.0896    4.5366  -10.2702 H   0  0  0  0  0  0  0  0  0  0  0  0
    8.4508    4.9357   -8.4944 H   0  0  0  0  0  0  0  0  0  0  0  0
    7.6566    6.1721   -9.4463 H   0  0  0  0  0  0  0  0  0  0  0  0
    8.2243    8.0212   -7.4960 H   0  0  0  0  0  0  0  0  0  0  0  0
    8.5402    6.4593   -6.7984 H   0  0  0  0  0  0  0  0  0  0  0  0
   10.0391    9.7722   -7.4225 H   0  0  0  0  0  0  0  0  0  0  0  0
   11.7887   10.7965   -5.9597 H   0  0  0  0  0  0  0  0  0  0  0  0
   12.8323    9.4328   -4.1510 H   0  0  0  0  0  0  0  0  0  0  0  0
   12.1314    7.0629   -3.8352 H   0  0  0  0  0  0  0  0  0  0  0  0
   10.4268    6.0596   -5.3094 H   0  0  0  0  0  0  0  0  0  0  0  0
   10.3961    8.6098   -9.2718 H   0  0  0  0  0  0  0  0  0  0  0  0
    8.7803    8.3609   -9.8867 H   0  0  0  0  0  0  0  0  0  0  0  0
   11.3499    6.9703  -10.7403 H   0  0  0  0  0  0  0  0  0  0  0  0
   10.4374    8.1323  -11.6742 H   0  0  0  0  0  0  0  0  0  0  0  0
   10.3952    6.3400   -8.4897 H   0  0  0  0  0  0  0  0  0  0  0  0
  2  1  1  0
  3  2  1  0
  4  3  1  0
  5  4  2  0
  6  5  1  0
  7  6  2  0
  8  7  1  0
  9  4  1  0
  9  8  2  0
 10  3  2  0
 11 10  1  0
 12 11  1  0
 13 12  1  0
 14 13  1  0
 15 14  1  0
 16 15  1  0
 17 16  1  0
 18 17  2  0
 19 18  1  0
 20 19  2  0
 21 20  1  0
 22 17  1  0
 22 21  2  0
 23 15  1  0
 24 12  1  0
 24 23  1  0
 25  2  1  0
 25 11  1  0
 26 25  2  0
 27  1  1  0
 28  1  1  0
 29  1  1  0
 30  5  1  0
 31  6  1  0
 32  7  1  0
 33  8  1  0
 34  9  1  0
 35 10  1  0
 12 36  1  6
 37 13  1  0
 38 13  1  0
 39 14  1  0
 40 14  1  0
 41 16  1  0
 42 16  1  0
 43 18  1  0
 44 19  1  0
 45 20  1  0
 46 21  1  0
 47 22  1  0
 48 23  1  0
 49 23  1  0
 50 24  1  0
 51 24  1  0
 15 52  1  1
M  CHG  1  15   1
M  END
>  <b_m_subgroup_collapsed>  (618) 
0

>  <r_i_docking_score>  (618) 
-7.6598798022526697

>  <s_m_subgroup_title>  (618) 
glide-dock_SP_D22_pv

>  <s_m_subgroupid>  (618) 
glide-dock_SP_D22_pv

>  <Molecule ChEMBL ID>  (618) 
CHEMBL91669

>  <Standard Type>  (618) 
Ki

>  <Standard Value>  (618) 
11.0

>  <label>  (618) 
1

$$$$
CHEMBL5844516
     RDKit          3D

 49 53  0  0  1  0  0  0  0  0999 V2000
   10.4727    4.4092  -13.4397 O   0  0  0  0  0  0  0  0  0  0  0  0
    9.2789    4.1026  -13.4680 C   0  0  0  0  0  0  0  0  0  0  0  0
    8.8326    2.8861  -14.2440 C   0  0  0  0  0  0  0  0  0  0  0  0
    9.7604    2.0258  -14.8684 C   0  0  0  0  0  0  0  0  0  0  0  0
    9.2812    0.8806  -15.5329 C   0  0  0  0  0  0  0  0  0  0  0  0
    7.8932    0.6446  -15.5505 C   0  0  0  0  0  0  0  0  0  0  0  0
    6.9960    1.4627  -14.9619 N   0  0  0  0  0  0  0  0  0  0  0  0
    7.4608    2.5551  -14.3210 C   0  0  0  0  0  0  0  0  0  0  0  0
    6.5056    3.4103  -13.6192 C   0  0  0  0  0  0  0  0  0  0  0  0
    6.9496    4.4556  -12.8982 C   0  0  0  0  0  0  0  0  0  0  0  0
    8.3132    4.7945  -12.7993 N   0  0  0  0  0  0  0  0  0  0  0  0
    8.6707    5.8988  -11.8999 C   0  0  0  0  0  0  0  0  0  0  0  0
    9.1181    5.3436  -10.5333 C   0  0  0  0  0  0  0  0  0  0  0  0
    9.2867    6.3869   -9.5247 N   0  0  0  0  0  0  0  0  0  0  0  0
    9.4068    5.7491   -8.2114 C   0  0  0  0  0  0  0  0  0  0  0  0
    9.5299    6.8113   -7.1046 C   0  0  0  0  0  0  0  0  0  0  0  0
   10.6866    7.6677   -7.3500 N   0  0  0  0  0  0  0  0  0  0  0  0
   10.9797    8.5531   -6.2991 C   0  0  0  0  0  0  0  0  0  0  0  0
   10.9044    9.8787   -6.3906 N   0  0  0  0  0  0  0  0  0  0  0  0
   11.2843   10.4050   -5.1268 O   0  0  0  0  0  0  0  0  0  0  0  0
   11.6265    9.3706   -4.2713 C   0  0  0  0  0  0  0  0  0  0  0  0
   12.0764    9.3728   -2.9441 C   0  0  0  0  0  0  0  0  0  0  0  0
   12.3145    8.1293   -2.3265 C   0  0  0  0  0  0  0  0  0  0  0  0
   12.1143    6.9285   -3.0474 C   0  0  0  0  0  0  0  0  0  0  0  0
   11.6816    6.9541   -4.3937 C   0  0  0  0  0  0  0  0  0  0  0  0
   11.4229    8.2002   -5.0055 C   0  0  0  0  0  0  0  0  0  0  0  0
   10.6215    8.2774   -8.6771 C   0  0  0  0  0  0  0  0  0  0  0  0
   10.4830    7.1984   -9.7675 C   0  0  0  0  0  0  0  0  0  0  0  0
   10.8220    2.2224  -14.8292 H   0  0  0  0  0  0  0  0  0  0  0  0
    9.9608    0.1928  -16.0115 H   0  0  0  0  0  0  0  0  0  0  0  0
    7.4932   -0.2273  -16.0466 H   0  0  0  0  0  0  0  0  0  0  0  0
    5.4536    3.1726  -13.6805 H   0  0  0  0  0  0  0  0  0  0  0  0
    6.2828    5.1000  -12.3428 H   0  0  0  0  0  0  0  0  0  0  0  0
    9.4534    6.5080  -12.3507 H   0  0  0  0  0  0  0  0  0  0  0  0
    7.8229    6.5716  -11.7640 H   0  0  0  0  0  0  0  0  0  0  0  0
    8.3449    4.6554  -10.1880 H   0  0  0  0  0  0  0  0  0  0  0  0
   10.0372    4.7621  -10.6302 H   0  0  0  0  0  0  0  0  0  0  0  0
    8.5224    5.1403   -8.0196 H   0  0  0  0  0  0  0  0  0  0  0  0
   10.2687    5.0815   -8.1991 H   0  0  0  0  0  0  0  0  0  0  0  0
    8.6233    7.4191   -7.0693 H   0  0  0  0  0  0  0  0  0  0  0  0
    9.6125    6.3130   -6.1392 H   0  0  0  0  0  0  0  0  0  0  0  0
   12.2014   10.2981   -2.4049 H   0  0  0  0  0  0  0  0  0  0  0  0
   12.6434    8.1002   -1.2987 H   0  0  0  0  0  0  0  0  0  0  0  0
   12.2964    5.9778   -2.5664 H   0  0  0  0  0  0  0  0  0  0  0  0
   11.5433    6.0325   -4.9388 H   0  0  0  0  0  0  0  0  0  0  0  0
    9.7789    8.9688   -8.7282 H   0  0  0  0  0  0  0  0  0  0  0  0
   11.5258    8.8595   -8.8573 H   0  0  0  0  0  0  0  0  0  0  0  0
   11.3728    6.5722   -9.7862 H   0  0  0  0  0  0  0  0  0  0  0  0
   10.4150    7.6875  -10.7385 H   0  0  0  0  0  0  0  0  0  0  0  0
  2  1  2  0
  3  2  1  0
  4  3  1  0
  5  4  2  0
  6  5  1  0
  7  6  2  0
  8  3  2  0
  8  7  1  0
  9  8  1  0
 10  9  2  0
 11  2  1  0
 11 10  1  0
 12 11  1  0
 13 12  1  0
 14 13  1  0
 15 14  1  0
 16 15  1  0
 17 16  1  0
 18 17  1  0
 19 18  2  0
 20 19  1  0
 21 20  1  0
 22 21  2  0
 23 22  1  0
 24 23  2  0
 25 24  1  0
 26 18  1  0
 26 21  1  0
 26 25  2  0
 27 17  1  0
 28 14  1  0
 28 27  1  0
 29  4  1  0
 30  5  1  0
 31  6  1  0
 32  9  1  0
 33 10  1  0
 34 12  1  0
 35 12  1  0
 36 13  1  0
 37 13  1  0
 38 15  1  0
 39 15  1  0
 40 16  1  0
 41 16  1  0
 42 22  1  0
 43 23  1  0
 44 24  1  0
 45 25  1  0
 46 27  1  0
 47 27  1  0
 48 28  1  0
 49 28  1  0
M  END
>  <b_m_subgroup_collapsed>  (619) 
0

>  <r_i_docking_score>  (619) 
-7.6573379588948596

>  <s_m_subgroup_title>  (619) 
glide-dock_SP_D22_pv

>  <s_m_subgroupid>  (619) 
glide-dock_SP_D22_pv

>  <Molecule ChEMBL ID>  (619) 
CHEMBL5844516

>  <Standard Type>  (619) 
Ki

>  <Standard Value>  (619) 
10000.0

>  <label>  (619) 
0

$$$$
CHEMBL5091335
     RDKit          3D

 37 39  0  0  1  0  0  0  0  0999 V2000
   12.4860    6.5440   -2.6423 O   0  0  0  0  0  0  0  0  0  0  0  0
   12.0450    7.4813   -3.5275 C   0  0  0  0  0  0  0  0  0  0  0  0
   11.9185    8.8140   -3.1092 C   0  0  0  0  0  0  0  0  0  0  0  0
   11.4279    9.7721   -4.0101 C   0  0  0  0  0  0  0  0  0  0  0  0
   11.1123    9.4205   -5.3334 C   0  0  0  0  0  0  0  0  0  0  0  0
   11.2199    8.0797   -5.7776 C   0  0  0  0  0  0  0  0  0  0  0  0
   10.8723    7.7078   -7.2455 C   0  0  2  0  0  0  0  0  0  0  0  0
   10.6158    6.1745   -7.3970 C   0  0  0  0  0  0  0  0  0  0  0  0
   10.0749    5.6761   -8.7499 C   0  0  0  0  0  0  0  0  0  0  0  0
    9.0380    6.5940   -9.3929 C   0  0  0  0  0  0  0  0  0  0  0  0
    9.3444    8.0952   -9.2156 C   0  0  2  0  0  0  0  0  0  0  0  0
   10.4560    8.5714  -10.0713 N   0  0  0  0  0  0  0  0  0  0  0  0
   11.8139    8.1416   -9.6674 C   0  0  0  0  0  0  0  0  0  0  0  0
   12.0460    8.2004   -8.1400 C   0  0  0  0  0  0  0  0  0  0  0  0
    9.6076    8.4541   -7.7452 C   0  0  1  0  0  0  0  0  0  0  0  0
    8.4864    8.1621   -6.9387 O   0  0  0  0  0  0  0  0  0  0  0  0
   11.6857    7.1151   -4.8409 C   0  0  0  0  0  0  0  0  0  0  0  0
   12.2993    5.6547   -2.9075 H   0  0  0  0  0  0  0  0  0  0  0  0
   12.1696    9.0974   -2.0964 H   0  0  0  0  0  0  0  0  0  0  0  0
   11.2868   10.7890   -3.6818 H   0  0  0  0  0  0  0  0  0  0  0  0
   10.7743   10.2073   -5.9881 H   0  0  0  0  0  0  0  0  0  0  0  0
   11.5214    5.6134   -7.1749 H   0  0  0  0  0  0  0  0  0  0  0  0
    9.8826    5.8829   -6.6452 H   0  0  0  0  0  0  0  0  0  0  0  0
   10.8858    5.5295   -9.4463 H   0  0  0  0  0  0  0  0  0  0  0  0
    9.6461    4.6808   -8.6262 H   0  0  0  0  0  0  0  0  0  0  0  0
    8.9012    6.3471  -10.4461 H   0  0  0  0  0  0  0  0  0  0  0  0
    8.0853    6.3775   -8.9175 H   0  0  0  0  0  0  0  0  0  0  0  0
    8.4860    8.6666   -9.5574 H   0  0  0  0  0  0  0  0  0  0  0  0
   10.2790    8.2865  -11.0221 H   0  0  0  0  0  0  0  0  0  0  0  0
   12.0211    7.1503  -10.0593 H   0  0  0  0  0  0  0  0  0  0  0  0
   12.5306    8.7886  -10.1698 H   0  0  0  0  0  0  0  0  0  0  0  0
   12.2557    9.2417   -7.8898 H   0  0  0  0  0  0  0  0  0  0  0  0
   12.9544    7.6581   -7.8930 H   0  0  0  0  0  0  0  0  0  0  0  0
    9.7451    9.5322   -7.6996 H   0  0  0  0  0  0  0  0  0  0  0  0
    7.7781    7.7715   -7.4473 H   0  0  0  0  0  0  0  0  0  0  0  0
   11.7974    6.0783   -5.1122 H   0  0  0  0  0  0  0  0  0  0  0  0
   10.4404    9.5805  -10.0407 H   0  0  0  0  0  0  0  0  0  0  0  0
  2  1  1  0
  3  2  1  0
  4  3  2  0
  5  4  1  0
  6  5  2  0
  7  6  1  1
  8  7  1  0
  9  8  1  0
 10  9  1  0
 11 10  1  0
 12 11  1  0
 13 12  1  0
 14  7  1  0
 14 13  1  0
 15  7  1  0
 15 11  1  0
 16 15  1  0
 17  2  2  0
 17  6  1  0
 18  1  1  0
 19  3  1  0
 20  4  1  0
 21  5  1  0
 22  8  1  0
 23  8  1  0
 24  9  1  0
 25  9  1  0
 26 10  1  0
 27 10  1  0
 11 28  1  6
 29 12  1  0
 30 13  1  0
 31 13  1  0
 32 14  1  0
 33 14  1  0
 15 34  1  6
 35 16  1  0
 36 17  1  0
 37 12  1  0
M  CHG  1  12   1
M  END
>  <b_m_subgroup_collapsed>  (620) 
0

>  <r_i_docking_score>  (620) 
-7.6565840352324903

>  <s_m_subgroup_title>  (620) 
glide-dock_SP_D22_pv

>  <s_m_subgroupid>  (620) 
glide-dock_SP_D22_pv

>  <Molecule ChEMBL ID>  (620) 
CHEMBL5091335

>  <Standard Type>  (620) 
Ki

>  <Standard Value>  (620) 
100000.0

>  <label>  (620) 
0

$$$$
CHEMBL231349
     RDKit          3D

 63 66  0  0  1  0  0  0  0  0999 V2000
   10.4356   -0.1360  -15.2357 C   0  0  0  0  0  0  0  0  0  0  0  0
    9.2467    0.8324  -15.1677 C   0  0  0  0  0  0  0  0  0  0  0  0
    8.6373    1.2254  -16.5243 C   0  0  0  0  0  0  0  0  0  0  0  0
    9.4686    1.9395  -14.2939 O   0  0  0  0  0  0  0  0  0  0  0  0
   10.3744    2.9511  -14.5567 C   0  0  0  0  0  0  0  0  0  0  0  0
   11.2695    2.9950  -15.6527 C   0  0  0  0  0  0  0  0  0  0  0  0
   12.1249    4.1004  -15.8507 C   0  0  0  0  0  0  0  0  0  0  0  0
   12.0832    5.1841  -14.9472 C   0  0  0  0  0  0  0  0  0  0  0  0
   11.2096    5.1399  -13.8449 C   0  0  0  0  0  0  0  0  0  0  0  0
   10.3675    4.0311  -13.6497 C   0  0  0  0  0  0  0  0  0  0  0  0
    9.4997    3.9807  -12.5607 N   0  0  0  0  0  0  0  0  0  0  0  0
    8.3324    5.1634  -12.0871 S   0  0  0  0  0  0  0  0  0  0  0  0
    7.1399    4.3805  -11.7334 O   0  0  0  0  0  0  0  0  0  0  0  0
    8.2898    6.1572  -13.1685 O   0  0  0  0  0  0  0  0  0  0  0  0
    9.0521    5.9026  -10.6233 C   0  0  0  0  0  0  0  0  0  0  0  0
    8.8848    5.2660   -9.3832 C   0  0  0  0  0  0  0  0  0  0  0  0
    9.4178    5.8558   -8.2241 C   0  0  0  0  0  0  0  0  0  0  0  0
   10.1384    7.0713   -8.2761 C   0  0  0  0  0  0  0  0  0  0  0  0
   10.6745    7.6633   -7.0310 C   0  0  0  0  0  0  0  0  0  0  0  0
   11.2127    6.8350   -6.0209 C   0  0  0  0  0  0  0  0  0  0  0  0
   11.6594    7.3612   -4.7957 C   0  0  0  0  0  0  0  0  0  0  0  0
   11.5953    8.7445   -4.5703 C   0  0  0  0  0  0  0  0  0  0  0  0
   12.0868    9.3732   -3.0466 Cl  0  0  0  0  0  0  0  0  0  0  0  0
   11.0966    9.5966   -5.5734 C   0  0  0  0  0  0  0  0  0  0  0  0
   10.6371    9.0555   -6.7923 C   0  0  0  0  0  0  0  0  0  0  0  0
   10.3092    7.6908   -9.5376 C   0  0  0  0  0  0  0  0  0  0  0  0
    9.7698    7.1131  -10.7077 C   0  0  0  0  0  0  0  0  0  0  0  0
   12.8900    6.4412  -15.1922 C   0  0  0  0  0  0  0  0  0  0  0  0
   12.4582    7.1070  -16.5048 C   0  0  0  0  0  0  0  0  0  0  0  0
   13.1576    6.5633  -17.6942 N   0  0  2  0  0  0  0  0  0  0  0  0
   13.0836    7.5069  -18.8354 C   0  0  0  0  0  0  0  0  0  0  0  0
   12.7315    5.1943  -18.0902 C   0  0  0  0  0  0  0  0  0  0  0  0
   13.0625    4.1099  -17.0480 C   0  0  0  0  0  0  0  0  0  0  0  0
   10.0995   -1.1246  -15.5532 H   0  0  0  0  0  0  0  0  0  0  0  0
   11.2181    0.1713  -15.9247 H   0  0  0  0  0  0  0  0  0  0  0  0
   10.8849   -0.2278  -14.2483 H   0  0  0  0  0  0  0  0  0  0  0  0
    8.4629    0.2773  -14.6503 H   0  0  0  0  0  0  0  0  0  0  0  0
    8.3442    0.3371  -17.0837 H   0  0  0  0  0  0  0  0  0  0  0  0
    7.7420    1.8307  -16.3807 H   0  0  0  0  0  0  0  0  0  0  0  0
    9.3189    1.7931  -17.1532 H   0  0  0  0  0  0  0  0  0  0  0  0
   11.3098    2.1980  -16.3721 H   0  0  0  0  0  0  0  0  0  0  0  0
   11.1665    5.9671  -13.1521 H   0  0  0  0  0  0  0  0  0  0  0  0
    9.1576    3.0393  -12.4236 H   0  0  0  0  0  0  0  0  0  0  0  0
    8.3212    4.3469   -9.3154 H   0  0  0  0  0  0  0  0  0  0  0  0
    9.2470    5.3739   -7.2755 H   0  0  0  0  0  0  0  0  0  0  0  0
   11.2777    5.7723   -6.1783 H   0  0  0  0  0  0  0  0  0  0  0  0
   12.0431    6.7011   -4.0317 H   0  0  0  0  0  0  0  0  0  0  0  0
   11.0412   10.6611   -5.4010 H   0  0  0  0  0  0  0  0  0  0  0  0
   10.2247    9.7192   -7.5363 H   0  0  0  0  0  0  0  0  0  0  0  0
   10.8534    8.6208   -9.6136 H   0  0  0  0  0  0  0  0  0  0  0  0
    9.8944    7.6049  -11.6610 H   0  0  0  0  0  0  0  0  0  0  0  0
   12.7226    7.1363  -14.3681 H   0  0  0  0  0  0  0  0  0  0  0  0
   13.9581    6.2182  -15.1838 H   0  0  0  0  0  0  0  0  0  0  0  0
   12.6618    8.1764  -16.4270 H   0  0  0  0  0  0  0  0  0  0  0  0
   11.3805    6.9813  -16.6356 H   0  0  0  0  0  0  0  0  0  0  0  0
   12.0531    7.6375  -19.1691 H   0  0  0  0  0  0  0  0  0  0  0  0
   13.4756    8.4873  -18.5618 H   0  0  0  0  0  0  0  0  0  0  0  0
   13.6726    7.1480  -19.6801 H   0  0  0  0  0  0  0  0  0  0  0  0
   13.2608    4.9360  -19.0089 H   0  0  0  0  0  0  0  0  0  0  0  0
   11.6678    5.1780  -18.3360 H   0  0  0  0  0  0  0  0  0  0  0  0
   14.0891    4.2159  -16.6969 H   0  0  0  0  0  0  0  0  0  0  0  0
   13.0223    3.1339  -17.5337 H   0  0  0  0  0  0  0  0  0  0  0  0
   14.1360    6.5049  -17.4490 H   0  0  0  0  0  0  0  0  0  0  0  0
  2  1  1  0
  3  2  1  0
  4  2  1  0
  5  4  1  0
  6  5  2  0
  7  6  1  0
  8  7  2  0
  9  8  1  0
 10  5  1  0
 10  9  2  0
 11 10  1  0
 12 11  1  0
 13 12  2  0
 14 12  2  0
 15 12  1  0
 16 15  1  0
 17 16  2  0
 18 17  1  0
 19 18  1  0
 20 19  1  0
 21 20  2  0
 22 21  1  0
 23 22  1  0
 24 22  2  0
 25 19  2  0
 25 24  1  0
 26 18  2  0
 27 15  2  0
 27 26  1  0
 28  8  1  0
 29 28  1  0
 30 29  1  0
 31 30  1  0
 32 30  1  0
 33  7  1  0
 33 32  1  0
 34  1  1  0
 35  1  1  0
 36  1  1  0
 37  2  1  0
 38  3  1  0
 39  3  1  0
 40  3  1  0
 41  6  1  0
 42  9  1  0
 43 11  1  0
 44 16  1  0
 45 17  1  0
 46 20  1  0
 47 21  1  0
 48 24  1  0
 49 25  1  0
 50 26  1  0
 51 27  1  0
 52 28  1  0
 53 28  1  0
 54 29  1  0
 55 29  1  0
 56 31  1  0
 57 31  1  0
 58 31  1  0
 59 32  1  0
 60 32  1  0
 61 33  1  0
 62 33  1  0
 30 63  1  1
M  CHG  1  30   1
M  END
>  <b_m_subgroup_collapsed>  (621) 
0

>  <r_i_docking_score>  (621) 
-7.6560823640799898

>  <s_m_subgroup_title>  (621) 
glide-dock_SP_D22_pv

>  <s_m_subgroupid>  (621) 
glide-dock_SP_D22_pv

>  <Molecule ChEMBL ID>  (621) 
CHEMBL231349

>  <Standard Type>  (621) 
Ki

>  <Standard Value>  (621) 
6.31

>  <label>  (621) 
1

$$$$
CHEMBL219179
     RDKit          3D

 42 45  0  0  1  0  0  0  0  0999 V2000
   12.4887    8.2185   -1.9735 O   0  0  0  0  0  0  0  0  0  0  0  0
   11.9855    8.1898   -3.2395 C   0  0  0  0  0  0  0  0  0  0  0  0
   11.6448    9.3795   -3.9055 C   0  0  0  0  0  0  0  0  0  0  0  0
   11.1799    9.3212   -5.2365 C   0  0  0  0  0  0  0  0  0  0  0  0
   11.0082    8.0635   -5.8607 C   0  0  0  0  0  0  0  0  0  0  0  0
   10.5785    7.9619   -7.1965 N   0  0  0  0  0  0  0  0  0  0  0  0
    9.9771    6.7138   -7.6509 C   0  0  0  0  0  0  0  0  0  0  0  0
    9.2890    6.9352   -9.0133 C   0  0  0  0  0  0  0  0  0  0  0  0
   10.2506    7.4124  -10.0184 N   0  0  0  0  0  0  0  0  0  0  0  0
    9.5819    7.6736  -11.2998 C   0  0  0  0  0  0  0  0  0  0  0  0
    8.9875    6.4710  -11.9698 C   0  0  0  0  0  0  0  0  0  0  0  0
    9.6611    5.6526  -12.7800 N   0  0  0  0  0  0  0  0  0  0  0  0
    8.6886    4.7371  -13.1561 C   0  0  0  0  0  0  0  0  0  0  0  0
    8.7571    3.6263  -14.0276 C   0  0  0  0  0  0  0  0  0  0  0  0
    7.6211    2.8154  -14.2404 C   0  0  0  0  0  0  0  0  0  0  0  0
    6.4103    3.0943  -13.5689 C   0  0  0  0  0  0  0  0  0  0  0  0
    6.3100    4.2114  -12.7186 C   0  0  0  0  0  0  0  0  0  0  0  0
    7.4395    5.0227  -12.5310 C   0  0  0  0  0  0  0  0  0  0  0  0
    7.6859    6.1718  -11.8071 N   0  0  0  0  0  0  0  0  0  0  0  0
   10.8172    8.6790   -9.5404 C   0  0  0  0  0  0  0  0  0  0  0  0
   11.5154    8.4917   -8.1797 C   0  0  0  0  0  0  0  0  0  0  0  0
   11.2871    6.9433   -5.1520 N   0  0  0  0  0  0  0  0  0  0  0  0
   11.7763    6.9647   -3.8915 C   0  0  0  0  0  0  0  0  0  0  0  0
   11.1512    6.0326   -5.5916 H   0  0  0  0  0  0  0  0  0  0  0  0
   11.7143   10.3205   -3.3841 H   0  0  0  0  0  0  0  0  0  0  0  0
   10.9342   10.2327   -5.7603 H   0  0  0  0  0  0  0  0  0  0  0  0
   10.7466    5.9439   -7.7346 H   0  0  0  0  0  0  0  0  0  0  0  0
    9.2429    6.3697   -6.9207 H   0  0  0  0  0  0  0  0  0  0  0  0
    8.8327    5.9996   -9.3378 H   0  0  0  0  0  0  0  0  0  0  0  0
    8.4860    7.6627   -8.9015 H   0  0  0  0  0  0  0  0  0  0  0  0
    8.7944    8.4168  -11.1641 H   0  0  0  0  0  0  0  0  0  0  0  0
   10.2955    8.1074  -12.0036 H   0  0  0  0  0  0  0  0  0  0  0  0
    9.6895    3.3957  -14.5201 H   0  0  0  0  0  0  0  0  0  0  0  0
    7.6859    1.9605  -14.8983 H   0  0  0  0  0  0  0  0  0  0  0  0
    5.5555    2.4512  -13.7151 H   0  0  0  0  0  0  0  0  0  0  0  0
    5.3897    4.4446  -12.2059 H   0  0  0  0  0  0  0  0  0  0  0  0
    7.0537    6.7261  -11.2086 H   0  0  0  0  0  0  0  0  0  0  0  0
   11.5373    9.0585  -10.2663 H   0  0  0  0  0  0  0  0  0  0  0  0
   10.0317    9.4308   -9.4514 H   0  0  0  0  0  0  0  0  0  0  0  0
   11.9248    9.4396   -7.8389 H   0  0  0  0  0  0  0  0  0  0  0  0
   12.3595    7.8075   -8.2800 H   0  0  0  0  0  0  0  0  0  0  0  0
   11.9935    6.0120   -3.4341 H   0  0  0  0  0  0  0  0  0  0  0  0
  2  1  1  0
  3  2  1  0
  4  3  2  0
  5  4  1  0
  6  5  1  0
  7  6  1  0
  8  7  1  0
  9  8  1  0
 10  9  1  0
 11 10  1  0
 12 11  2  0
 13 12  1  0
 14 13  2  0
 15 14  1  0
 16 15  2  0
 17 16  1  0
 18 13  1  0
 18 17  2  0
 19 11  1  0
 19 18  1  0
 20  9  1  0
 21  6  1  0
 21 20  1  0
 22  5  2  0
 23  2  2  0
 23 22  1  0
 24 22  1  0
 25  3  1  0
 26  4  1  0
 27  7  1  0
 28  7  1  0
 29  8  1  0
 30  8  1  0
 31 10  1  0
 32 10  1  0
 33 14  1  0
 34 15  1  0
 35 16  1  0
 36 17  1  0
 37 19  1  0
 38 20  1  0
 39 20  1  0
 40 21  1  0
 41 21  1  0
 42 23  1  0
M  CHG  2   1  -1  22   1
M  END
>  <b_m_subgroup_collapsed>  (622) 
0

>  <r_i_docking_score>  (622) 
-7.6549942629655403

>  <s_m_subgroup_title>  (622) 
glide-dock_SP_D22_pv

>  <s_m_subgroupid>  (622) 
glide-dock_SP_D22_pv

>  <Molecule ChEMBL ID>  (622) 
CHEMBL219179

>  <Standard Type>  (622) 
Ki

>  <Standard Value>  (622) 
10000.0

>  <label>  (622) 
0

$$$$
CHEMBL4483472
     RDKit          3D

 50 52  0  0  1  0  0  0  0  0999 V2000
    9.4590    4.0931  -13.5729 C   0  0  0  0  0  0  0  0  0  0  0  0
    8.4344    5.1959  -13.2692 C   0  0  0  0  0  0  0  0  0  0  0  0
    7.7122    5.0399  -11.9161 C   0  0  0  0  0  0  0  0  0  0  0  0
    8.6131    5.0467  -10.6637 C   0  0  0  0  0  0  0  0  0  0  0  0
    8.8860    6.3993  -10.1173 N   0  0  2  0  0  0  0  0  0  0  0  0
    9.7746    7.2650  -10.9264 C   0  0  0  0  0  0  0  0  0  0  0  0
   10.7541    7.9466   -9.9591 C   0  0  0  0  0  0  0  0  0  0  0  0
   10.2106    7.6656   -8.5554 C   0  0  2  0  0  0  0  0  0  0  0  0
    9.2874    8.7604   -7.9932 C   0  0  0  0  0  0  0  0  0  0  0  0
    9.3102    8.4814   -6.4891 C   0  0  0  0  0  0  0  0  0  0  0  0
   10.5716    7.8059   -6.2255 N   0  0  0  0  0  0  0  0  0  0  0  0
   11.2761    8.0050   -5.0248 C   0  0  0  0  0  0  0  0  0  0  0  0
   11.6860    6.8542   -4.3206 C   0  0  0  0  0  0  0  0  0  0  0  0
   12.2738    6.9552   -3.0454 C   0  0  0  0  0  0  0  0  0  0  0  0
   12.4686    8.2165   -2.4594 C   0  0  0  0  0  0  0  0  0  0  0  0
   12.0819    9.3725   -3.1572 C   0  0  0  0  0  0  0  0  0  0  0  0
   11.4951    9.2825   -4.4363 C   0  0  0  0  0  0  0  0  0  0  0  0
   11.1401   10.4577   -5.0463 O   0  0  0  0  0  0  0  0  0  0  0  0
   11.9154   10.7649   -6.1914 C   0  0  0  0  0  0  0  0  0  0  0  0
   11.2858    7.5510   -7.4610 C   0  0  0  0  0  0  0  0  0  0  0  0
    9.4436    6.3507   -8.7520 C   0  0  0  0  0  0  0  0  0  0  0  0
    9.8316    4.1864  -14.5931 H   0  0  0  0  0  0  0  0  0  0  0  0
   10.3226    4.1435  -12.9105 H   0  0  0  0  0  0  0  0  0  0  0  0
    9.0161    3.1015  -13.4750 H   0  0  0  0  0  0  0  0  0  0  0  0
    7.6848    5.1767  -14.0585 H   0  0  0  0  0  0  0  0  0  0  0  0
    8.9066    6.1722  -13.3467 H   0  0  0  0  0  0  0  0  0  0  0  0
    7.1763    4.0900  -11.9383 H   0  0  0  0  0  0  0  0  0  0  0  0
    6.9367    5.8015  -11.8166 H   0  0  0  0  0  0  0  0  0  0  0  0
    9.5423    4.4999  -10.8234 H   0  0  0  0  0  0  0  0  0  0  0  0
    8.0853    4.4982   -9.8827 H   0  0  0  0  0  0  0  0  0  0  0  0
    9.1653    7.9977  -11.4569 H   0  0  0  0  0  0  0  0  0  0  0  0
   10.3358    6.6929  -11.6658 H   0  0  0  0  0  0  0  0  0  0  0  0
   10.8744    9.0109  -10.1650 H   0  0  0  0  0  0  0  0  0  0  0  0
   11.7372    7.4869  -10.0701 H   0  0  0  0  0  0  0  0  0  0  0  0
    8.2781    8.7311   -8.3985 H   0  0  0  0  0  0  0  0  0  0  0  0
    9.6699    9.7612   -8.1956 H   0  0  0  0  0  0  0  0  0  0  0  0
    8.4946    7.8005   -6.2451 H   0  0  0  0  0  0  0  0  0  0  0  0
    9.1834    9.3721   -5.8852 H   0  0  0  0  0  0  0  0  0  0  0  0
   11.5115    5.8753   -4.7437 H   0  0  0  0  0  0  0  0  0  0  0  0
   12.5596    6.0596   -2.5130 H   0  0  0  0  0  0  0  0  0  0  0  0
   12.9038    8.3012   -1.4748 H   0  0  0  0  0  0  0  0  0  0  0  0
   12.2247   10.3408   -2.7010 H   0  0  0  0  0  0  0  0  0  0  0  0
   12.0860   11.8380   -6.2476 H   0  0  0  0  0  0  0  0  0  0  0  0
   12.8860   10.2701   -6.1861 H   0  0  0  0  0  0  0  0  0  0  0  0
   11.3884   10.4689   -7.0886 H   0  0  0  0  0  0  0  0  0  0  0  0
   12.0682    8.2981   -7.5972 H   0  0  0  0  0  0  0  0  0  0  0  0
   11.7607    6.5705   -7.4457 H   0  0  0  0  0  0  0  0  0  0  0  0
   10.1356    5.5093   -8.6786 H   0  0  0  0  0  0  0  0  0  0  0  0
    8.6579    6.1892   -8.0119 H   0  0  0  0  0  0  0  0  0  0  0  0
    7.9888    6.8862  -10.0499 H   0  0  0  0  0  0  0  0  0  0  0  0
  2  1  1  0
  3  2  1  0
  4  3  1  0
  5  4  1  0
  6  5  1  0
  7  6  1  0
  8  7  1  6
  9  8  1  0
 10  9  1  0
 11 10  1  0
 12 11  1  0
 13 12  2  0
 14 13  1  0
 15 14  2  0
 16 15  1  0
 17 12  1  0
 17 16  2  0
 18 17  1  0
 19 18  1  0
 20  8  1  0
 20 11  1  0
 21  5  1  0
 21  8  1  0
 22  1  1  0
 23  1  1  0
 24  1  1  0
 25  2  1  0
 26  2  1  0
 27  3  1  0
 28  3  1  0
 29  4  1  0
 30  4  1  0
 31  6  1  0
 32  6  1  0
 33  7  1  0
 34  7  1  0
 35  9  1  0
 36  9  1  0
 37 10  1  0
 38 10  1  0
 39 13  1  0
 40 14  1  0
 41 15  1  0
 42 16  1  0
 43 19  1  0
 44 19  1  0
 45 19  1  0
 46 20  1  0
 47 20  1  0
 48 21  1  0
 49 21  1  0
  5 50  1  1
M  CHG  1   5   1
M  END
>  <b_m_subgroup_collapsed>  (623) 
0

>  <r_i_docking_score>  (623) 
-7.6546608537334802

>  <s_m_subgroup_title>  (623) 
glide-dock_SP_D22_pv

>  <s_m_subgroupid>  (623) 
glide-dock_SP_D22_pv

>  <Molecule ChEMBL ID>  (623) 
CHEMBL4483472

>  <Standard Type>  (623) 
Ki

>  <Standard Value>  (623) 
26050.0

>  <label>  (623) 
0

$$$$
CHEMBL25938
     RDKit          3D

 48 51  0  0  1  0  0  0  0  0999 V2000
   11.6851    3.1453  -15.7228 C   0  0  0  0  0  0  0  0  0  0  0  0
   10.8829    2.3067  -14.9252 C   0  0  0  0  0  0  0  0  0  0  0  0
    9.9370    2.8650  -14.0446 C   0  0  0  0  0  0  0  0  0  0  0  0
    9.7803    4.2644  -13.9548 C   0  0  0  0  0  0  0  0  0  0  0  0
    8.7299    4.8464  -13.0156 C   0  0  0  0  0  0  0  0  0  0  0  0
    9.3141    5.3479  -11.7431 N   0  0  2  0  0  0  0  0  0  0  0  0
    8.3734    5.2241  -10.5950 C   0  0  0  0  0  0  0  0  0  0  0  0
    8.9942    5.7220   -9.2710 C   0  0  0  0  0  0  0  0  0  0  0  0
    9.5021    7.1694   -9.4046 C   0  0  1  0  0  0  0  0  0  0  0  0
   10.1427    7.7125   -8.1536 C   0  0  0  0  0  0  0  0  0  0  0  0
   10.3880    7.0975   -6.8891 C   0  0  0  0  0  0  0  0  0  0  0  0
   10.9706    8.0875   -6.1433 C   0  0  0  0  0  0  0  0  0  0  0  0
   11.4536    8.1217   -4.7673 C   0  0  0  0  0  0  0  0  0  0  0  0
   11.6751    9.3499   -4.1026 C   0  0  0  0  0  0  0  0  0  0  0  0
   12.0898    9.3722   -2.7600 C   0  0  0  0  0  0  0  0  0  0  0  0
   12.3281    8.1708   -2.0753 C   0  0  0  0  0  0  0  0  0  0  0  0
   12.1219    6.9420   -2.7267 C   0  0  0  0  0  0  0  0  0  0  0  0
   11.6862    6.9185   -4.0661 C   0  0  0  0  0  0  0  0  0  0  0  0
   11.0603    9.1901   -6.9580 N   0  0  0  0  0  0  0  0  0  0  0  0
   10.5473    8.9723   -8.1775 N   0  0  0  0  0  0  0  0  0  0  0  0
   10.4862    7.2305  -10.5788 C   0  0  0  0  0  0  0  0  0  0  0  0
    9.8432    6.7314  -11.8764 C   0  0  0  0  0  0  0  0  0  0  0  0
   10.5820    5.0979  -14.7686 C   0  0  0  0  0  0  0  0  0  0  0  0
   11.5352    4.5410  -15.6421 C   0  0  0  0  0  0  0  0  0  0  0  0
   12.4150    2.7160  -16.3943 H   0  0  0  0  0  0  0  0  0  0  0  0
   10.9980    1.2335  -14.9861 H   0  0  0  0  0  0  0  0  0  0  0  0
    9.3305    2.2019  -13.4458 H   0  0  0  0  0  0  0  0  0  0  0  0
    8.0045    4.0589  -12.8022 H   0  0  0  0  0  0  0  0  0  0  0  0
    8.1674    5.6330  -13.5225 H   0  0  0  0  0  0  0  0  0  0  0  0
    8.0805    4.1787  -10.4780 H   0  0  0  0  0  0  0  0  0  0  0  0
    7.4577    5.7731  -10.8075 H   0  0  0  0  0  0  0  0  0  0  0  0
    9.8123    5.0633   -8.9747 H   0  0  0  0  0  0  0  0  0  0  0  0
    8.2464    5.6669   -8.4781 H   0  0  0  0  0  0  0  0  0  0  0  0
    8.6482    7.8054   -9.6422 H   0  0  0  0  0  0  0  0  0  0  0  0
   10.1515    6.0919   -6.5739 H   0  0  0  0  0  0  0  0  0  0  0  0
   11.4870   10.2883   -4.6007 H   0  0  0  0  0  0  0  0  0  0  0  0
   12.2193   10.3134   -2.2503 H   0  0  0  0  0  0  0  0  0  0  0  0
   12.6565    8.1933   -1.0474 H   0  0  0  0  0  0  0  0  0  0  0  0
   12.2938    6.0118   -2.2018 H   0  0  0  0  0  0  0  0  0  0  0  0
   11.5252    5.9685   -4.5504 H   0  0  0  0  0  0  0  0  0  0  0  0
   11.4615   10.0815   -6.6996 H   0  0  0  0  0  0  0  0  0  0  0  0
   10.8319    8.2544  -10.7317 H   0  0  0  0  0  0  0  0  0  0  0  0
   11.3686    6.6402  -10.3392 H   0  0  0  0  0  0  0  0  0  0  0  0
   10.5928    6.7708  -12.6616 H   0  0  0  0  0  0  0  0  0  0  0  0
    9.0355    7.4085  -12.1666 H   0  0  0  0  0  0  0  0  0  0  0  0
   10.4849    6.1712  -14.7384 H   0  0  0  0  0  0  0  0  0  0  0  0
   12.1474    5.1864  -16.2526 H   0  0  0  0  0  0  0  0  0  0  0  0
   10.0952    4.7440  -11.5314 H   0  0  0  0  0  0  0  0  0  0  0  0
  2  1  2  0
  3  2  1  0
  4  3  2  0
  5  4  1  0
  6  5  1  0
  7  6  1  0
  8  7  1  0
  9  8  1  0
 10  9  1  0
 11 10  1  0
 12 11  2  0
 13 12  1  0
 14 13  2  0
 15 14  1  0
 16 15  2  0
 17 16  1  0
 18 13  1  0
 18 17  2  0
 19 12  1  0
 20 10  2  0
 20 19  1  0
 21  9  1  0
 22  6  1  0
 22 21  1  0
 23  4  1  0
 24  1  1  0
 24 23  2  0
 25  1  1  0
 26  2  1  0
 27  3  1  0
 28  5  1  0
 29  5  1  0
 30  7  1  0
 31  7  1  0
 32  8  1  0
 33  8  1  0
  9 34  1  6
 35 11  1  0
 36 14  1  0
 37 15  1  0
 38 16  1  0
 39 17  1  0
 40 18  1  0
 41 19  1  0
 42 21  1  0
 43 21  1  0
 44 22  1  0
 45 22  1  0
 46 23  1  0
 47 24  1  0
  6 48  1  1
M  CHG  1   6   1
M  END
>  <b_m_subgroup_collapsed>  (624) 
0

>  <r_i_docking_score>  (624) 
-7.6532304103077804

>  <s_m_subgroup_title>  (624) 
glide-dock_SP_D22_pv

>  <s_m_subgroupid>  (624) 
glide-dock_SP_D22_pv

>  <Molecule ChEMBL ID>  (624) 
CHEMBL25938

>  <Standard Type>  (624) 
Ki

>  <Standard Value>  (624) 
66.0

>  <label>  (624) 
1

$$$$
CHEMBL4587925
     RDKit          3D

 50 52  0  0  1  0  0  0  0  0999 V2000
   12.2336    8.4854   -2.0303 C   0  0  0  0  0  0  0  0  0  0  0  0
   11.8448    8.4326   -3.4917 C   0  0  0  0  0  0  0  0  0  0  0  0
   11.6858    7.2033   -4.1576 C   0  0  0  0  0  0  0  0  0  0  0  0
   11.2860    7.2111   -5.5098 C   0  0  0  0  0  0  0  0  0  0  0  0
   11.1436    8.4564   -6.1688 C   0  0  0  0  0  0  0  0  0  0  0  0
   10.8466    8.5695   -7.6639 C   0  0  1  0  0  0  0  0  0  0  0  0
   11.3505    7.3866   -8.5130 C   0  0  0  0  0  0  0  0  0  0  0  0
   10.9621    7.5146   -9.9991 C   0  0  0  0  0  0  0  0  0  0  0  0
    9.5015    7.7522  -10.1646 N   0  0  2  0  0  0  0  0  0  0  0  0
    9.0419    7.7618  -11.5770 C   0  0  0  0  0  0  0  0  0  0  0  0
    8.8794    6.3488  -12.1381 C   0  0  0  0  0  0  0  0  0  0  0  0
    9.8864    5.7212  -12.4568 O   0  0  0  0  0  0  0  0  0  0  0  0
    7.6198    5.8845  -12.2422 N   0  0  0  0  0  0  0  0  0  0  0  0
    7.1890    4.6463  -12.7937 C   0  0  0  0  0  0  0  0  0  0  0  0
    5.9319    4.1505  -12.3880 C   0  0  0  0  0  0  0  0  0  0  0  0
    5.4407    2.9373  -12.9058 C   0  0  0  0  0  0  0  0  0  0  0  0
    6.1962    2.2119  -13.8466 C   0  0  0  0  0  0  0  0  0  0  0  0
    7.4453    2.7019  -14.2717 C   0  0  0  0  0  0  0  0  0  0  0  0
    8.2628    1.9262  -15.2844 C   0  0  0  0  0  0  0  0  0  0  0  0
    7.9343    3.9183  -13.7552 C   0  0  0  0  0  0  0  0  0  0  0  0
    9.1193    8.9856   -9.4479 C   0  0  0  0  0  0  0  0  0  0  0  0
    9.3644    8.8358   -7.9451 C   0  0  0  0  0  0  0  0  0  0  0  0
   11.2824    9.6364   -5.5242 N   0  0  0  0  0  0  0  0  0  0  0  0
   11.6115    9.6148   -4.2173 C   0  0  0  0  0  0  0  0  0  0  0  0
   11.6457    7.7767   -1.4472 H   0  0  0  0  0  0  0  0  0  0  0  0
   13.2859    8.2366   -1.9189 H   0  0  0  0  0  0  0  0  0  0  0  0
   12.0772    9.4804   -1.6141 H   0  0  0  0  0  0  0  0  0  0  0  0
   11.8379    6.2664   -3.6398 H   0  0  0  0  0  0  0  0  0  0  0  0
   11.1505    6.2694   -6.0145 H   0  0  0  0  0  0  0  0  0  0  0  0
   11.3982    9.4454   -8.0108 H   0  0  0  0  0  0  0  0  0  0  0  0
   12.4358    7.3723   -8.4228 H   0  0  0  0  0  0  0  0  0  0  0  0
   10.9584    6.4417   -8.1464 H   0  0  0  0  0  0  0  0  0  0  0  0
   11.2640    6.6073  -10.5162 H   0  0  0  0  0  0  0  0  0  0  0  0
   11.5192    8.3325  -10.4603 H   0  0  0  0  0  0  0  0  0  0  0  0
    8.0862    8.2795  -11.6681 H   0  0  0  0  0  0  0  0  0  0  0  0
    9.7410    8.3228  -12.1958 H   0  0  0  0  0  0  0  0  0  0  0  0
    6.9017    6.4443  -11.7946 H   0  0  0  0  0  0  0  0  0  0  0  0
    5.3453    4.6925  -11.6597 H   0  0  0  0  0  0  0  0  0  0  0  0
    4.4844    2.5588  -12.5824 H   0  0  0  0  0  0  0  0  0  0  0  0
    5.8113    1.2819  -14.2405 H   0  0  0  0  0  0  0  0  0  0  0  0
    9.3274    2.0040  -15.0608 H   0  0  0  0  0  0  0  0  0  0  0  0
    7.9951    0.8695  -15.2814 H   0  0  0  0  0  0  0  0  0  0  0  0
    8.0919    2.3214  -16.2867 H   0  0  0  0  0  0  0  0  0  0  0  0
    8.8829    4.2815  -14.1184 H   0  0  0  0  0  0  0  0  0  0  0  0
    8.0862    9.2696   -9.6270 H   0  0  0  0  0  0  0  0  0  0  0  0
    9.7212    9.7963   -9.8454 H   0  0  0  0  0  0  0  0  0  0  0  0
    8.7332    8.0514   -7.5243 H   0  0  0  0  0  0  0  0  0  0  0  0
    9.0880    9.7659   -7.4703 H   0  0  0  0  0  0  0  0  0  0  0  0
   11.6859   10.5721   -3.7264 H   0  0  0  0  0  0  0  0  0  0  0  0
    8.9975    6.9957   -9.7177 H   0  0  0  0  0  0  0  0  0  0  0  0
  2  1  1  0
  3  2  2  0
  4  3  1  0
  5  4  2  0
  6  5  1  0
  7  6  1  0
  8  7  1  0
  9  8  1  0
 10  9  1  0
 11 10  1  0
 12 11  2  0
 13 11  1  0
 14 13  1  0
 15 14  1  0
 16 15  2  0
 17 16  1  0
 18 17  2  0
 19 18  1  0
 20 14  2  0
 20 18  1  0
 21  9  1  0
 22  6  1  0
 22 21  1  0
 23  5  1  0
 24  2  1  0
 24 23  2  0
 25  1  1  0
 26  1  1  0
 27  1  1  0
 28  3  1  0
 29  4  1  0
  6 30  1  6
 31  7  1  0
 32  7  1  0
 33  8  1  0
 34  8  1  0
 35 10  1  0
 36 10  1  0
 37 13  1  0
 38 15  1  0
 39 16  1  0
 40 17  1  0
 41 19  1  0
 42 19  1  0
 43 19  1  0
 44 20  1  0
 45 21  1  0
 46 21  1  0
 47 22  1  0
 48 22  1  0
 49 24  1  0
  9 50  1  1
M  CHG  1   9   1
M  END
>  <b_m_subgroup_collapsed>  (625) 
0

>  <r_i_docking_score>  (625) 
-7.65232248487301

>  <s_m_subgroup_title>  (625) 
glide-dock_SP_D22_pv

>  <s_m_subgroupid>  (625) 
glide-dock_SP_D22_pv

>  <Molecule ChEMBL ID>  (625) 
CHEMBL4587925

>  <Standard Type>  (625) 
Ki

>  <Standard Value>  (625) 
10000.0

>  <label>  (625) 
0

$$$$
CHEMBL476642
     RDKit          3D

 61 64  0  0  1  0  0  0  0  0999 V2000
   12.6139    8.6962   -1.8393 C   0  0  0  0  0  0  0  0  0  0  0  0
   12.3888    9.5132   -2.9726 O   0  0  0  0  0  0  0  0  0  0  0  0
   11.8667    8.9227   -4.0985 C   0  0  0  0  0  0  0  0  0  0  0  0
   11.4867    9.7854   -5.1397 C   0  0  0  0  0  0  0  0  0  0  0  0
   10.8859    9.2917   -6.3054 C   0  0  0  0  0  0  0  0  0  0  0  0
   10.6793    7.9047   -6.4815 C   0  0  0  0  0  0  0  0  0  0  0  0
   10.1013    7.3933   -7.6607 N   0  0  0  0  0  0  0  0  0  0  0  0
    9.0272    6.4129   -7.5312 C   0  0  0  0  0  0  0  0  0  0  0  0
    8.9511    5.5351   -8.7903 C   0  0  0  0  0  0  0  0  0  0  0  0
    8.8860    6.3307  -10.0472 N   0  0  0  0  0  0  0  0  0  0  0  0
    8.9044    5.4395  -11.2353 C   0  0  0  0  0  0  0  0  0  0  0  0
    8.3649    6.1032  -12.5161 C   0  0  0  0  0  0  0  0  0  0  0  0
    8.7095    5.3216  -13.8016 C   0  0  0  0  0  0  0  0  0  0  0  0
    8.3413    3.8991  -13.7877 N   0  0  0  0  0  0  0  0  0  0  0  0
    9.4716    2.9584  -13.7737 C   0  0  0  0  0  0  0  0  0  0  0  0
    9.7555    2.3330  -15.1518 C   0  0  0  0  0  0  0  0  0  0  0  0
    8.5095    1.9424  -15.9647 C   0  0  0  0  0  0  0  0  0  0  0  0
    7.3915    1.3321  -15.1322 C   0  0  0  0  0  0  0  0  0  0  0  0
    6.9855    0.0079  -15.4024 C   0  0  0  0  0  0  0  0  0  0  0  0
    5.9046   -0.5710  -14.7122 C   0  0  0  0  0  0  0  0  0  0  0  0
    5.2155    0.1763  -13.7433 C   0  0  0  0  0  0  0  0  0  0  0  0
    5.6278    1.4862  -13.4465 C   0  0  0  0  0  0  0  0  0  0  0  0
    6.7141    2.0770  -14.1289 C   0  0  0  0  0  0  0  0  0  0  0  0
    7.0400    3.5154  -13.8312 C   0  0  0  0  0  0  0  0  0  0  0  0
    6.1094    4.2982  -13.6409 O   0  0  0  0  0  0  0  0  0  0  0  0
    9.9420    7.3785  -10.1130 C   0  0  0  0  0  0  0  0  0  0  0  0
    9.9987    8.2389   -8.8434 C   0  0  0  0  0  0  0  0  0  0  0  0
   11.0984    7.0324   -5.4504 C   0  0  0  0  0  0  0  0  0  0  0  0
   11.6854    7.5294   -4.2696 C   0  0  0  0  0  0  0  0  0  0  0  0
   13.0725    9.2882   -1.0475 H   0  0  0  0  0  0  0  0  0  0  0  0
   11.6861    8.2786   -1.4562 H   0  0  0  0  0  0  0  0  0  0  0  0
   13.2860    7.8819   -2.0857 H   0  0  0  0  0  0  0  0  0  0  0  0
   11.6549   10.8471   -5.0466 H   0  0  0  0  0  0  0  0  0  0  0  0
   10.5845   10.0101   -7.0474 H   0  0  0  0  0  0  0  0  0  0  0  0
    8.0866    6.9462   -7.3875 H   0  0  0  0  0  0  0  0  0  0  0  0
    9.1502    5.7741   -6.6587 H   0  0  0  0  0  0  0  0  0  0  0  0
    8.0862    4.8757   -8.7219 H   0  0  0  0  0  0  0  0  0  0  0  0
    9.8318    4.8917   -8.8268 H   0  0  0  0  0  0  0  0  0  0  0  0
    8.2928    4.5589  -11.0320 H   0  0  0  0  0  0  0  0  0  0  0  0
    9.9210    5.0756  -11.3949 H   0  0  0  0  0  0  0  0  0  0  0  0
    8.7679    7.1057  -12.6451 H   0  0  0  0  0  0  0  0  0  0  0  0
    7.2873    6.2409  -12.4199 H   0  0  0  0  0  0  0  0  0  0  0  0
    9.7732    5.4388  -14.0103 H   0  0  0  0  0  0  0  0  0  0  0  0
    8.2104    5.7779  -14.6517 H   0  0  0  0  0  0  0  0  0  0  0  0
   10.3794    3.4361  -13.4032 H   0  0  0  0  0  0  0  0  0  0  0  0
    9.2862    2.1723  -13.0470 H   0  0  0  0  0  0  0  0  0  0  0  0
   10.3684    3.0095  -15.7482 H   0  0  0  0  0  0  0  0  0  0  0  0
   10.3684    1.4454  -14.9888 H   0  0  0  0  0  0  0  0  0  0  0  0
    8.7999    1.2581  -16.7635 H   0  0  0  0  0  0  0  0  0  0  0  0
    8.1094    2.8222  -16.4670 H   0  0  0  0  0  0  0  0  0  0  0  0
    7.4924   -0.5749  -16.1586 H   0  0  0  0  0  0  0  0  0  0  0  0
    5.5970   -1.5821  -14.9412 H   0  0  0  0  0  0  0  0  0  0  0  0
    4.3610   -0.2402  -13.2368 H   0  0  0  0  0  0  0  0  0  0  0  0
    5.0823    2.0509  -12.7026 H   0  0  0  0  0  0  0  0  0  0  0  0
   10.9114    6.9029  -10.2599 H   0  0  0  0  0  0  0  0  0  0  0  0
    9.7817    8.0353  -10.9671 H   0  0  0  0  0  0  0  0  0  0  0  0
    9.1039    8.8596   -8.7648 H   0  0  0  0  0  0  0  0  0  0  0  0
   10.8587    8.9068   -8.9202 H   0  0  0  0  0  0  0  0  0  0  0  0
   10.9878    5.9651   -5.5555 H   0  0  0  0  0  0  0  0  0  0  0  0
   11.9720    6.8184   -3.5087 H   0  0  0  0  0  0  0  0  0  0  0  0
    7.9851    6.8121  -10.0336 H   0  0  0  0  0  0  0  0  0  0  0  0
  2  1  1  0
  3  2  1  0
  4  3  1  0
  5  4  2  0
  6  5  1  0
  7  6  1  0
  8  7  1  0
  9  8  1  0
 10  9  1  0
 11 10  1  0
 12 11  1  0
 13 12  1  0
 14 13  1  0
 15 14  1  0
 16 15  1  0
 17 16  1  0
 18 17  1  0
 19 18  2  0
 20 19  1  0
 21 20  2  0
 22 21  1  0
 23 18  1  0
 23 22  2  0
 24 14  1  0
 24 23  1  0
 25 24  2  0
 26 10  1  0
 27  7  1  0
 27 26  1  0
 28  6  2  0
 29  3  2  0
 29 28  1  0
 30  1  1  0
 31  1  1  0
 32  1  1  0
 33  4  1  0
 34  5  1  0
 35  8  1  0
 36  8  1  0
 37  9  1  0
 38  9  1  0
 39 11  1  0
 40 11  1  0
 41 12  1  0
 42 12  1  0
 43 13  1  0
 44 13  1  0
 45 15  1  0
 46 15  1  0
 47 16  1  0
 48 16  1  0
 49 17  1  0
 50 17  1  0
 51 19  1  0
 52 20  1  0
 53 21  1  0
 54 22  1  0
 55 26  1  0
 56 26  1  0
 57 27  1  0
 58 27  1  0
 59 28  1  0
 60 29  1  0
 61 10  1  0
M  CHG  1  10   1
M  END
>  <b_m_subgroup_collapsed>  (626) 
0

>  <r_i_docking_score>  (626) 
-7.6515010163474404

>  <s_m_subgroup_title>  (626) 
glide-dock_SP_D22_pv

>  <s_m_subgroupid>  (626) 
glide-dock_SP_D22_pv

>  <Molecule ChEMBL ID>  (626) 
CHEMBL476642

>  <Standard Type>  (626) 
Ki

>  <Standard Value>  (626) 
100000.0

>  <label>  (626) 
0

$$$$
CHEMBL108856
     RDKit          3D

 50 54  0  0  1  0  0  0  0  0999 V2000
   12.3279    9.3688   -2.3161 C   0  0  0  0  0  0  0  0  0  0  0  0
   11.9302    8.5944   -3.5182 C   0  0  0  0  0  0  0  0  0  0  0  0
   11.6816    9.0727   -4.7358 N   0  0  0  0  0  0  0  0  0  0  0  0
   11.2861    7.9335   -5.3678 C   0  0  0  0  0  0  0  0  0  0  0  0
   10.8577    7.9423   -6.7759 C   0  0  0  0  0  0  0  0  0  0  0  0
    9.7596    7.1630   -7.2088 C   0  0  0  0  0  0  0  0  0  0  0  0
    9.3400    7.1887   -8.5526 C   0  0  0  0  0  0  0  0  0  0  0  0
   10.0183    7.9969   -9.4891 C   0  0  0  0  0  0  0  0  0  0  0  0
    9.5526    8.0506  -10.9292 C   0  0  0  0  0  0  0  0  0  0  0  0
   10.5906    6.9725  -11.9654 S   0  0  0  0  0  0  0  0  0  0  0  0
    9.4479    5.7133  -12.4653 C   0  0  0  0  0  0  0  0  0  0  0  0
    8.1677    5.6952  -12.0978 N   0  0  0  0  0  0  0  0  0  0  0  0
    7.6680    4.5845  -12.7326 C   0  0  0  0  0  0  0  0  0  0  0  0
    6.3666    4.0359  -12.7235 C   0  0  0  0  0  0  0  0  0  0  0  0
    6.0818    2.8747  -13.4723 C   0  0  0  0  0  0  0  0  0  0  0  0
    7.0863    2.2570  -14.2471 C   0  0  0  0  0  0  0  0  0  0  0  0
    8.3962    2.7793  -14.2489 C   0  0  0  0  0  0  0  0  0  0  0  0
    8.6790    3.9342  -13.4943 C   0  0  0  0  0  0  0  0  0  0  0  0
    9.8298    4.6885  -13.2722 N   0  0  0  0  0  0  0  0  0  0  0  0
   11.1565    4.4066  -13.8037 C   0  0  0  0  0  0  0  0  0  0  0  0
   11.4542    5.1877  -15.0707 C   0  0  0  0  0  0  0  0  0  0  0  0
   12.4231    6.2132  -15.0581 C   0  0  0  0  0  0  0  0  0  0  0  0
   12.7399    6.9034  -16.2457 C   0  0  0  0  0  0  0  0  0  0  0  0
   12.0840    6.5683  -17.4471 C   0  0  0  0  0  0  0  0  0  0  0  0
   12.4844    7.3844  -18.9111 Cl  0  0  0  0  0  0  0  0  0  0  0  0
   11.1015    5.5591  -17.4581 C   0  0  0  0  0  0  0  0  0  0  0  0
   10.7877    4.8690  -16.2731 C   0  0  0  0  0  0  0  0  0  0  0  0
   11.1236    8.7654   -9.0720 C   0  0  0  0  0  0  0  0  0  0  0  0
   11.5347    8.7397   -7.7266 C   0  0  0  0  0  0  0  0  0  0  0  0
   11.2864    6.8176   -4.6494 N   0  0  0  0  0  0  0  0  0  0  0  0
   11.7413    7.2557   -3.3960 O   0  0  0  0  0  0  0  0  0  0  0  0
   13.3959    9.2667   -2.1410 H   0  0  0  0  0  0  0  0  0  0  0  0
   12.0861   10.4222   -2.4555 H   0  0  0  0  0  0  0  0  0  0  0  0
   11.7914    9.0010   -1.4419 H   0  0  0  0  0  0  0  0  0  0  0  0
    9.2163    6.5523   -6.5010 H   0  0  0  0  0  0  0  0  0  0  0  0
    8.4854    6.6035   -8.8630 H   0  0  0  0  0  0  0  0  0  0  0  0
    9.6645    9.0635  -11.3008 H   0  0  0  0  0  0  0  0  0  0  0  0
    8.4879    7.8485  -10.9942 H   0  0  0  0  0  0  0  0  0  0  0  0
    5.6022    4.5121  -12.1229 H   0  0  0  0  0  0  0  0  0  0  0  0
    5.0816    2.4625  -13.4522 H   0  0  0  0  0  0  0  0  0  0  0  0
    6.8559    1.3712  -14.8210 H   0  0  0  0  0  0  0  0  0  0  0  0
    9.1733    2.2912  -14.8187 H   0  0  0  0  0  0  0  0  0  0  0  0
   11.2347    3.3377  -14.0125 H   0  0  0  0  0  0  0  0  0  0  0  0
   11.9086    4.6231  -13.0482 H   0  0  0  0  0  0  0  0  0  0  0  0
   12.9369    6.4660  -14.1418 H   0  0  0  0  0  0  0  0  0  0  0  0
   13.4864    7.6839  -16.2332 H   0  0  0  0  0  0  0  0  0  0  0  0
   10.5932    5.3102  -18.3780 H   0  0  0  0  0  0  0  0  0  0  0  0
   10.0451    4.0866  -16.2928 H   0  0  0  0  0  0  0  0  0  0  0  0
   11.6549    9.3807   -9.7846 H   0  0  0  0  0  0  0  0  0  0  0  0
   12.3795    9.3387   -7.4189 H   0  0  0  0  0  0  0  0  0  0  0  0
  2  1  1  0
  3  2  2  0
  4  3  1  0
  5  4  1  0
  6  5  1  0
  7  6  2  0
  8  7  1  0
  9  8  1  0
 10  9  1  0
 11 10  1  0
 12 11  2  0
 13 12  1  0
 14 13  2  0
 15 14  1  0
 16 15  2  0
 17 16  1  0
 18 13  1  0
 18 17  2  0
 19 11  1  0
 19 18  1  0
 20 19  1  0
 21 20  1  0
 22 21  1  0
 23 22  2  0
 24 23  1  0
 25 24  1  0
 26 24  2  0
 27 21  2  0
 27 26  1  0
 28  8  2  0
 29  5  2  0
 29 28  1  0
 30  4  2  0
 31  2  1  0
 31 30  1  0
 32  1  1  0
 33  1  1  0
 34  1  1  0
 35  6  1  0
 36  7  1  0
 37  9  1  0
 38  9  1  0
 39 14  1  0
 40 15  1  0
 41 16  1  0
 42 17  1  0
 43 20  1  0
 44 20  1  0
 45 22  1  0
 46 23  1  0
 47 26  1  0
 48 27  1  0
 49 28  1  0
 50 29  1  0
M  END
>  <b_m_subgroup_collapsed>  (627) 
0

>  <r_i_docking_score>  (627) 
-7.6449028840512003

>  <s_m_subgroup_title>  (627) 
glide-dock_SP_D22_pv

>  <s_m_subgroupid>  (627) 
glide-dock_SP_D22_pv

>  <Molecule ChEMBL ID>  (627) 
CHEMBL108856

>  <Standard Type>  (627) 
Ki

>  <Standard Value>  (627) 
96.0

>  <label>  (627) 
1

$$$$
CHEMBL4089290
     RDKit          3D

 64 68  0  0  1  0  0  0  0  0999 V2000
    5.6192    0.9921  -19.7027 C   0  0  0  0  0  0  0  0  0  0  0  0
    6.2408    1.1872  -18.4376 O   0  0  0  0  0  0  0  0  0  0  0  0
    5.8813    0.3755  -17.3776 C   0  0  0  0  0  0  0  0  0  0  0  0
    4.8974   -0.6395  -17.5172 C   0  0  0  0  0  0  0  0  0  0  0  0
    4.5037   -1.4296  -16.4228 C   0  0  0  0  0  0  0  0  0  0  0  0
    5.0976   -1.2230  -15.1713 C   0  0  0  0  0  0  0  0  0  0  0  0
    6.0759   -0.2280  -15.0127 C   0  0  0  0  0  0  0  0  0  0  0  0
    6.4860    0.5884  -16.0980 C   0  0  0  0  0  0  0  0  0  0  0  0
    7.4385    1.6095  -15.8566 N   0  0  0  0  0  0  0  0  0  0  0  0
    8.2463    2.2422  -16.8838 C   0  0  0  0  0  0  0  0  0  0  0  0
    9.3376    2.9971  -16.1257 C   0  0  0  0  0  0  0  0  0  0  0  0
    8.8452    3.1466  -14.6881 C   0  0  2  0  0  0  0  0  0  0  0  0
    8.2528    4.4935  -14.2472 C   0  0  0  0  0  0  0  0  0  0  0  0
    8.9652    4.3542  -12.9785 N   0  0  2  0  0  0  0  0  0  0  0  0
    9.5872    5.5824  -12.4421 C   0  0  0  0  0  0  0  0  0  0  0  0
    8.6246    6.4140  -11.5730 C   0  0  0  0  0  0  0  0  0  0  0  0
    9.1798    7.8102  -11.2275 C   0  0  0  0  0  0  0  0  0  0  0  0
   10.8656    7.7722  -10.5386 S   0  0  0  0  0  0  0  0  0  0  0  0
   10.5400    7.5044   -8.8190 C   0  0  0  0  0  0  0  0  0  0  0  0
    9.5198    6.8087   -8.3224 N   0  0  0  0  0  0  0  0  0  0  0  0
    9.6750    6.8605   -6.9519 N   0  0  0  0  0  0  0  0  0  0  0  0
   10.7785    7.5822   -6.7277 C   0  0  0  0  0  0  0  0  0  0  0  0
   11.2599    7.8780   -5.3804 C   0  0  0  0  0  0  0  0  0  0  0  0
   11.2860    9.2081   -4.9074 C   0  0  0  0  0  0  0  0  0  0  0  0
   11.6910    9.4804   -3.5858 C   0  0  0  0  0  0  0  0  0  0  0  0
   12.0876    8.4307   -2.7352 C   0  0  0  0  0  0  0  0  0  0  0  0
   12.0862    7.1043   -3.2095 C   0  0  0  0  0  0  0  0  0  0  0  0
   11.6684    6.8306   -4.5271 C   0  0  0  0  0  0  0  0  0  0  0  0
   11.3676    7.9885   -7.8715 N   0  0  0  0  0  0  0  0  0  0  0  0
   12.5925    8.7369   -8.0625 C   0  0  0  0  0  0  0  0  0  0  0  0
    9.8961    3.4280  -13.6143 C   0  0  0  0  0  0  0  0  0  0  0  0
    7.9650    1.9039  -14.5340 C   0  0  0  0  0  0  0  0  0  0  0  0
    6.0172    1.7208  -20.4112 H   0  0  0  0  0  0  0  0  0  0  0  0
    5.8239   -0.0013  -20.1057 H   0  0  0  0  0  0  0  0  0  0  0  0
    4.5405    1.1510  -19.6487 H   0  0  0  0  0  0  0  0  0  0  0  0
    4.4080   -0.8328  -18.4579 H   0  0  0  0  0  0  0  0  0  0  0  0
    3.7562   -2.2020  -16.5475 H   0  0  0  0  0  0  0  0  0  0  0  0
    4.8050   -1.8267  -14.3252 H   0  0  0  0  0  0  0  0  0  0  0  0
    6.5020   -0.1084  -14.0310 H   0  0  0  0  0  0  0  0  0  0  0  0
    8.6677    1.5096  -17.5746 H   0  0  0  0  0  0  0  0  0  0  0  0
    7.6339    2.9439  -17.4491 H   0  0  0  0  0  0  0  0  0  0  0  0
    9.5550    3.9542  -16.6001 H   0  0  0  0  0  0  0  0  0  0  0  0
   10.2614    2.4172  -16.1447 H   0  0  0  0  0  0  0  0  0  0  0  0
    7.1676    4.5039  -14.1323 H   0  0  0  0  0  0  0  0  0  0  0  0
    8.5973    5.3354  -14.8534 H   0  0  0  0  0  0  0  0  0  0  0  0
    9.9994    6.1729  -13.2607 H   0  0  0  0  0  0  0  0  0  0  0  0
   10.4359    5.2779  -11.8361 H   0  0  0  0  0  0  0  0  0  0  0  0
    8.3841    5.8736  -10.6579 H   0  0  0  0  0  0  0  0  0  0  0  0
    7.6750    6.5522  -12.0921 H   0  0  0  0  0  0  0  0  0  0  0  0
    8.5171    8.3410  -10.5435 H   0  0  0  0  0  0  0  0  0  0  0  0
    9.2128    8.4106  -12.1388 H   0  0  0  0  0  0  0  0  0  0  0  0
   10.9678   10.0176   -5.5459 H   0  0  0  0  0  0  0  0  0  0  0  0
   11.6869   10.4961   -3.2143 H   0  0  0  0  0  0  0  0  0  0  0  0
   12.3873    8.6445   -1.7184 H   0  0  0  0  0  0  0  0  0  0  0  0
   12.3795    6.2941   -2.5565 H   0  0  0  0  0  0  0  0  0  0  0  0
   11.6440    5.8085   -4.8771 H   0  0  0  0  0  0  0  0  0  0  0  0
   12.4864    9.3712   -8.9374 H   0  0  0  0  0  0  0  0  0  0  0  0
   12.8215    9.3579   -7.1975 H   0  0  0  0  0  0  0  0  0  0  0  0
   13.4090    8.0436   -8.2475 H   0  0  0  0  0  0  0  0  0  0  0  0
   10.7881    3.9192  -14.0077 H   0  0  0  0  0  0  0  0  0  0  0  0
   10.1529    2.5728  -12.9961 H   0  0  0  0  0  0  0  0  0  0  0  0
    8.5465    1.0557  -14.1705 H   0  0  0  0  0  0  0  0  0  0  0  0
    7.1458    2.0734  -13.8344 H   0  0  0  0  0  0  0  0  0  0  0  0
    8.4034    3.8755  -12.2878 H   0  0  0  0  0  0  0  0  0  0  0  0
  2  1  1  0
  3  2  1  0
  4  3  2  0
  5  4  1  0
  6  5  2  0
  7  6  1  0
  8  3  1  0
  8  7  2  0
  9  8  1  0
 10  9  1  0
 11 10  1  0
 12 11  1  6
 13 12  1  0
 14 13  1  0
 15 14  1  0
 16 15  1  0
 17 16  1  0
 18 17  1  0
 19 18  1  0
 20 19  2  0
 21 20  1  0
 22 21  2  0
 23 22  1  0
 24 23  2  0
 25 24  1  0
 26 25  2  0
 27 26  1  0
 28 23  1  0
 28 27  2  0
 29 19  1  0
 29 22  1  0
 30 29  1  0
 31 12  1  0
 31 14  1  0
 32  9  1  0
 32 12  1  0
 33  1  1  0
 34  1  1  0
 35  1  1  0
 36  4  1  0
 37  5  1  0
 38  6  1  0
 39  7  1  0
 40 10  1  0
 41 10  1  0
 42 11  1  0
 43 11  1  0
 44 13  1  0
 45 13  1  0
 46 15  1  0
 47 15  1  0
 48 16  1  0
 49 16  1  0
 50 17  1  0
 51 17  1  0
 52 24  1  0
 53 25  1  0
 54 26  1  0
 55 27  1  0
 56 28  1  0
 57 30  1  0
 58 30  1  0
 59 30  1  0
 60 31  1  0
 61 31  1  0
 62 32  1  0
 63 32  1  0
 14 64  1  1
M  CHG  1  14   1
M  END
>  <b_m_subgroup_collapsed>  (628) 
0

>  <r_i_docking_score>  (628) 
-7.6440528926131499

>  <s_m_subgroup_title>  (628) 
glide-dock_SP_D22_pv

>  <s_m_subgroupid>  (628) 
glide-dock_SP_D22_pv

>  <Molecule ChEMBL ID>  (628) 
CHEMBL4089290

>  <Standard Type>  (628) 
Ki

>  <Standard Value>  (628) 
60152.0

>  <label>  (628) 
0

$$$$
CHEMBL1214891
     RDKit          3D

 56 59  0  0  1  0  0  0  0  0999 V2000
    2.8879   -1.0277  -17.1811 F   0  0  0  0  0  0  0  0  0  0  0  0
    4.1232   -1.1467  -16.7013 C   0  0  0  0  0  0  0  0  0  0  0  0
    4.9276   -0.3092  -17.3557 F   0  0  0  0  0  0  0  0  0  0  0  0
    4.1211   -0.8454  -15.1981 C   0  0  0  0  0  0  0  0  0  0  0  0
    5.4864   -1.0846  -14.5274 C   0  0  0  0  0  0  0  0  0  0  0  0
    6.4678   -0.1212  -14.8954 O   0  0  0  0  0  0  0  0  0  0  0  0
    6.4855    1.1095  -14.2707 C   0  0  0  0  0  0  0  0  0  0  0  0
    7.5183    1.9919  -14.6465 C   0  0  0  0  0  0  0  0  0  0  0  0
    7.6052    3.2828  -14.0912 C   0  0  0  0  0  0  0  0  0  0  0  0
    6.6518    3.7154  -13.1468 C   0  0  0  0  0  0  0  0  0  0  0  0
    6.6941    5.1360  -12.6200 C   0  0  0  0  0  0  0  0  0  0  0  0
    8.0088    5.5476  -12.1240 N   0  0  0  0  0  0  0  0  0  0  0  0
    8.0725    5.2493  -10.6913 C   0  0  0  0  0  0  0  0  0  0  0  0
    9.3900    5.7292  -10.0772 C   0  0  0  0  0  0  0  0  0  0  0  0
    9.5433    7.1945  -10.2667 N   0  0  0  0  0  0  0  0  0  0  0  0
   10.7876    7.7513   -9.6764 C   0  0  0  0  0  0  0  0  0  0  0  0
   10.8426    7.7739   -8.1776 C   0  0  0  0  0  0  0  0  0  0  0  0
   10.9827    6.7714   -7.2451 C   0  0  0  0  0  0  0  0  0  0  0  0
   11.1851    7.4220   -5.9827 C   0  0  0  0  0  0  0  0  0  0  0  0
   11.4516    7.0295   -4.6495 C   0  0  0  0  0  0  0  0  0  0  0  0
   11.6861    7.9957   -3.6464 C   0  0  0  0  0  0  0  0  0  0  0  0
   11.6255    9.3726   -3.9468 C   0  0  0  0  0  0  0  0  0  0  0  0
   11.3274    9.7904   -5.2584 C   0  0  0  0  0  0  0  0  0  0  0  0
   11.1270    8.8126   -6.2468 C   0  0  0  0  0  0  0  0  0  0  0  0
   10.8927    9.0125   -7.5917 O   0  0  0  0  0  0  0  0  0  0  0  0
    9.4465    7.5136  -11.7124 C   0  0  0  0  0  0  0  0  0  0  0  0
    8.1264    6.9929  -12.2989 C   0  0  0  0  0  0  0  0  0  0  0  0
    5.6248    2.8364  -12.7522 C   0  0  0  0  0  0  0  0  0  0  0  0
    5.5424    1.5415  -13.3037 C   0  0  0  0  0  0  0  0  0  0  0  0
    4.4490   -2.1665  -16.9104 H   0  0  0  0  0  0  0  0  0  0  0  0
    3.3861   -1.4967  -14.7246 H   0  0  0  0  0  0  0  0  0  0  0  0
    3.7726    0.1718  -15.0256 H   0  0  0  0  0  0  0  0  0  0  0  0
    5.8544   -2.0680  -14.8172 H   0  0  0  0  0  0  0  0  0  0  0  0
    5.3924   -1.1249  -13.4469 H   0  0  0  0  0  0  0  0  0  0  0  0
    8.2480    1.6764  -15.3776 H   0  0  0  0  0  0  0  0  0  0  0  0
    8.3966    3.9478  -14.4058 H   0  0  0  0  0  0  0  0  0  0  0  0
    6.3884    5.7702  -13.4468 H   0  0  0  0  0  0  0  0  0  0  0  0
    5.9257    5.2814  -11.8579 H   0  0  0  0  0  0  0  0  0  0  0  0
    7.2761    5.7722  -10.1718 H   0  0  0  0  0  0  0  0  0  0  0  0
    7.9375    4.1778  -10.5253 H   0  0  0  0  0  0  0  0  0  0  0  0
    9.3817    5.4824   -9.0172 H   0  0  0  0  0  0  0  0  0  0  0  0
   10.2157    5.1897  -10.5307 H   0  0  0  0  0  0  0  0  0  0  0  0
   11.6444    7.1957  -10.0599 H   0  0  0  0  0  0  0  0  0  0  0  0
   10.9166    8.7733  -10.0377 H   0  0  0  0  0  0  0  0  0  0  0  0
   11.0142    5.7061   -7.4127 H   0  0  0  0  0  0  0  0  0  0  0  0
   11.5038    5.9784   -4.4042 H   0  0  0  0  0  0  0  0  0  0  0  0
   11.9038    7.6773   -2.6372 H   0  0  0  0  0  0  0  0  0  0  0  0
   11.8009   10.1048   -3.1701 H   0  0  0  0  0  0  0  0  0  0  0  0
   11.2822   10.8398   -5.5082 H   0  0  0  0  0  0  0  0  0  0  0  0
    9.4961    8.5933  -11.8571 H   0  0  0  0  0  0  0  0  0  0  0  0
   10.2932    7.0819  -12.2494 H   0  0  0  0  0  0  0  0  0  0  0  0
    8.0838    7.2194  -13.3624 H   0  0  0  0  0  0  0  0  0  0  0  0
    7.2859    7.5070  -11.8503 H   0  0  0  0  0  0  0  0  0  0  0  0
    4.8875    3.1585  -12.0338 H   0  0  0  0  0  0  0  0  0  0  0  0
    4.7303    0.9093  -12.9839 H   0  0  0  0  0  0  0  0  0  0  0  0
    8.7434    7.6340   -9.8240 H   0  0  0  0  0  0  0  0  0  0  0  0
  2  1  1  0
  3  2  1  0
  4  2  1  0
  5  4  1  0
  6  5  1  0
  7  6  1  0
  8  7  1  0
  9  8  2  0
 10  9  1  0
 11 10  1  0
 12 11  1  0
 13 12  1  0
 14 13  1  0
 15 14  1  0
 16 15  1  0
 17 16  1  0
 18 17  2  0
 19 18  1  0
 20 19  2  0
 21 20  1  0
 22 21  2  0
 23 22  1  0
 24 19  1  0
 24 23  2  0
 25 17  1  0
 25 24  1  0
 26 15  1  0
 27 12  1  0
 27 26  1  0
 28 10  2  0
 29  7  2  0
 29 28  1  0
 30  2  1  0
 31  4  1  0
 32  4  1  0
 33  5  1  0
 34  5  1  0
 35  8  1  0
 36  9  1  0
 37 11  1  0
 38 11  1  0
 39 13  1  0
 40 13  1  0
 41 14  1  0
 42 14  1  0
 43 16  1  0
 44 16  1  0
 45 18  1  0
 46 20  1  0
 47 21  1  0
 48 22  1  0
 49 23  1  0
 50 26  1  0
 51 26  1  0
 52 27  1  0
 53 27  1  0
 54 28  1  0
 55 29  1  0
 56 15  1  0
M  CHG  1  15   1
M  END
>  <b_m_subgroup_collapsed>  (629) 
0

>  <r_i_docking_score>  (629) 
-7.6419837503605699

>  <s_m_subgroup_title>  (629) 
glide-dock_SP_D22_pv

>  <s_m_subgroupid>  (629) 
glide-dock_SP_D22_pv

>  <Molecule ChEMBL ID>  (629) 
CHEMBL1214891

>  <Standard Type>  (629) 
Ki

>  <Standard Value>  (629) 
10000.0

>  <label>  (629) 
0

$$$$
CHEMBL293956
     RDKit          3D

 44 46  0  0  1  0  0  0  0  0999 V2000
    9.0380    2.7680  -15.0355 N   0  0  0  0  0  0  0  0  0  0  0  0
    8.2493    3.0812  -14.2479 C   0  0  0  0  0  0  0  0  0  0  0  0
    7.2487    3.4584  -13.3088 C   0  0  0  0  0  0  0  0  0  0  0  0
    6.0301    2.7355  -13.1937 C   0  0  0  0  0  0  0  0  0  0  0  0
    5.0606    2.1215  -13.0451 N   0  0  0  0  0  0  0  0  0  0  0  0
    7.4382    4.5000  -12.4801 C   0  0  0  0  0  0  0  0  0  0  0  0
    8.5609    5.3741  -12.3177 C   0  0  0  0  0  0  0  0  0  0  0  0
    9.8234    5.4487  -12.8436 C   0  0  0  0  0  0  0  0  0  0  0  0
   10.4856    6.5693  -12.2541 C   0  0  0  0  0  0  0  0  0  0  0  0
    9.6149    7.1541  -11.3800 C   0  0  0  0  0  0  0  0  0  0  0  0
    9.7212    8.2946  -10.4378 C   0  0  0  0  0  0  0  0  0  0  0  0
    9.6869    7.8343   -9.0299 N   0  0  0  0  0  0  0  0  0  0  0  0
   10.8674    6.9917   -8.6665 C   0  0  0  0  0  0  0  0  0  0  0  0
   10.9070    6.6095   -7.1727 C   0  0  0  0  0  0  0  0  0  0  0  0
   10.7022    7.7938   -6.3543 N   0  0  0  0  0  0  0  0  0  0  0  0
   11.2866    7.9277   -5.0784 C   0  0  0  0  0  0  0  0  0  0  0  0
   11.6667    6.8006   -4.3115 C   0  0  0  0  0  0  0  0  0  0  0  0
   12.2153    6.9585   -3.0240 C   0  0  0  0  0  0  0  0  0  0  0  0
   12.4170    8.2454   -2.4936 C   0  0  0  0  0  0  0  0  0  0  0  0
   12.0713    9.3722   -3.2579 C   0  0  0  0  0  0  0  0  0  0  0  0
   11.5102    9.2168   -4.5388 C   0  0  0  0  0  0  0  0  0  0  0  0
    9.4804    8.5216   -6.6465 C   0  0  0  0  0  0  0  0  0  0  0  0
    9.4799    8.9718   -8.1067 C   0  0  0  0  0  0  0  0  0  0  0  0
    8.4503    6.4352  -11.4489 N   0  0  0  0  0  0  0  0  0  0  0  0
    6.6219    4.7160  -11.8029 H   0  0  0  0  0  0  0  0  0  0  0  0
   10.2456    4.7705  -13.5713 H   0  0  0  0  0  0  0  0  0  0  0  0
   11.4960    6.8971  -12.4460 H   0  0  0  0  0  0  0  0  0  0  0  0
   10.6334    8.8619  -10.6270 H   0  0  0  0  0  0  0  0  0  0  0  0
    8.8874    8.9763  -10.6187 H   0  0  0  0  0  0  0  0  0  0  0  0
   10.8806    6.0820   -9.2666 H   0  0  0  0  0  0  0  0  0  0  0  0
   11.7756    7.5449   -8.9093 H   0  0  0  0  0  0  0  0  0  0  0  0
   10.1230    5.8860   -6.9468 H   0  0  0  0  0  0  0  0  0  0  0  0
   11.8617    6.1367   -6.9401 H   0  0  0  0  0  0  0  0  0  0  0  0
   11.5076    5.8002   -4.6847 H   0  0  0  0  0  0  0  0  0  0  0  0
   12.4724    6.0874   -2.4395 H   0  0  0  0  0  0  0  0  0  0  0  0
   12.8358    8.3703   -1.5057 H   0  0  0  0  0  0  0  0  0  0  0  0
   12.2250   10.3620   -2.8521 H   0  0  0  0  0  0  0  0  0  0  0  0
   11.2573   10.0997   -5.1073 H   0  0  0  0  0  0  0  0  0  0  0  0
    8.6262    7.8678   -6.4637 H   0  0  0  0  0  0  0  0  0  0  0  0
    9.3602    9.3723   -5.9839 H   0  0  0  0  0  0  0  0  0  0  0  0
   10.2834    9.6930   -8.2652 H   0  0  0  0  0  0  0  0  0  0  0  0
    8.5354    9.4657   -8.3363 H   0  0  0  0  0  0  0  0  0  0  0  0
    7.5947    6.7014  -10.9538 H   0  0  0  0  0  0  0  0  0  0  0  0
    8.8613    7.2562   -8.9319 H   0  0  0  0  0  0  0  0  0  0  0  0
  2  1  3  0
  3  2  1  0
  4  3  1  0
  5  4  3  0
  6  3  2  3
  7  6  1  0
  8  7  2  0
  9  8  1  0
 10  9  2  0
 11 10  1  0
 12 11  1  0
 13 12  1  0
 14 13  1  0
 15 14  1  0
 16 15  1  0
 17 16  2  0
 18 17  1  0
 19 18  2  0
 20 19  1  0
 21 16  1  0
 21 20  2  0
 22 15  1  0
 23 12  1  0
 23 22  1  0
 24  7  1  0
 24 10  1  0
 25  6  1  0
 26  8  1  0
 27  9  1  0
 28 11  1  0
 29 11  1  0
 30 13  1  0
 31 13  1  0
 32 14  1  0
 33 14  1  0
 34 17  1  0
 35 18  1  0
 36 19  1  0
 37 20  1  0
 38 21  1  0
 39 22  1  0
 40 22  1  0
 41 23  1  0
 42 23  1  0
 43 24  1  0
 44 12  1  0
M  CHG  1  12   1
M  END
>  <b_m_subgroup_collapsed>  (630) 
0

>  <r_i_docking_score>  (630) 
-7.6375509769178596

>  <s_m_subgroup_title>  (630) 
glide-dock_SP_D22_pv

>  <s_m_subgroupid>  (630) 
glide-dock_SP_D22_pv

>  <Molecule ChEMBL ID>  (630) 
CHEMBL293956

>  <Standard Type>  (630) 
Ki

>  <Standard Value>  (630) 
100000.0

>  <label>  (630) 
0

$$$$
CHEMBL519201
     RDKit          3D

 47 50  0  0  1  0  0  0  0  0999 V2000
    8.7361    4.2585  -13.1516 C   0  0  0  0  0  0  0  0  0  0  0  0
    8.9954    5.7723  -13.1574 C   0  0  0  0  0  0  0  0  0  0  0  0
    8.4776    6.5445  -11.9266 C   0  0  0  0  0  0  0  0  0  0  0  0
    9.0770    6.0355  -10.6611 N   0  0  2  0  0  0  0  0  0  0  0  0
    8.1208    5.1328   -9.9839 C   0  0  0  0  0  0  0  0  0  0  0  0
    8.7566    4.4785   -8.7528 C   0  0  0  0  0  0  0  0  0  0  0  0
    9.0911    5.5120   -7.8473 O   0  0  0  0  0  0  0  0  0  0  0  0
   10.0679    6.3751   -8.3999 C   0  0  2  0  0  0  0  0  0  0  0  0
   10.6177    7.3401   -7.3617 C   0  0  0  0  0  0  0  0  0  0  0  0
   10.8394    6.8775   -6.0421 C   0  0  0  0  0  0  0  0  0  0  0  0
   11.3639    7.7740   -5.1030 C   0  0  0  0  0  0  0  0  0  0  0  0
   11.6367    9.0822   -5.4316 C   0  0  0  0  0  0  0  0  0  0  0  0
   11.4510    9.5685   -6.7350 C   0  0  0  0  0  0  0  0  0  0  0  0
   10.9674    8.6721   -7.7217 C   0  0  0  0  0  0  0  0  0  0  0  0
   10.8107    9.1520   -9.1606 C   0  0  0  0  0  0  0  0  0  0  0  0
   10.6132    8.0272  -10.1865 C   0  0  0  0  0  0  0  0  0  0  0  0
    9.5229    7.0681   -9.6765 C   0  0  1  0  0  0  0  0  0  0  0  0
   12.1666    9.7723   -4.2061 C   0  0  0  0  0  0  0  0  0  0  0  0
   12.1753    8.7005   -3.2031 N   0  0  0  0  0  0  0  0  0  0  0  0
   12.6285    8.9426   -1.8418 C   0  0  0  0  0  0  0  0  0  0  0  0
   11.7501    7.5239   -3.6945 C   0  0  0  0  0  0  0  0  0  0  0  0
   11.6863    6.4501   -3.1086 O   0  0  0  0  0  0  0  0  0  0  0  0
    9.0539    3.8119  -14.0944 H   0  0  0  0  0  0  0  0  0  0  0  0
    7.6752    4.0379  -13.0269 H   0  0  0  0  0  0  0  0  0  0  0  0
    9.2874    3.7553  -12.3566 H   0  0  0  0  0  0  0  0  0  0  0  0
   10.0620    5.9591  -13.2911 H   0  0  0  0  0  0  0  0  0  0  0  0
    8.4957    6.1723  -14.0389 H   0  0  0  0  0  0  0  0  0  0  0  0
    8.6816    7.6026  -12.0714 H   0  0  0  0  0  0  0  0  0  0  0  0
    7.3878    6.4884  -11.8883 H   0  0  0  0  0  0  0  0  0  0  0  0
    7.2864    5.7722   -9.6900 H   0  0  0  0  0  0  0  0  0  0  0  0
    7.7294    4.3679  -10.6531 H   0  0  0  0  0  0  0  0  0  0  0  0
    8.0797    3.7864   -8.2608 H   0  0  0  0  0  0  0  0  0  0  0  0
    9.6378    3.8949   -9.0276 H   0  0  0  0  0  0  0  0  0  0  0  0
   10.9072    5.7511   -8.6874 H   0  0  0  0  0  0  0  0  0  0  0  0
   10.6270    5.8588   -5.7602 H   0  0  0  0  0  0  0  0  0  0  0  0
   11.6854   10.5936   -6.9772 H   0  0  0  0  0  0  0  0  0  0  0  0
    9.9190    9.7723   -9.1897 H   0  0  0  0  0  0  0  0  0  0  0  0
   11.6597    9.7724   -9.4491 H   0  0  0  0  0  0  0  0  0  0  0  0
   10.3711    8.4815  -11.1449 H   0  0  0  0  0  0  0  0  0  0  0  0
   11.5489    7.4851  -10.3320 H   0  0  0  0  0  0  0  0  0  0  0  0
    8.6476    7.6616   -9.4042 H   0  0  0  0  0  0  0  0  0  0  0  0
   13.1701   10.1630   -4.3835 H   0  0  0  0  0  0  0  0  0  0  0  0
   11.4924   10.5722   -3.9009 H   0  0  0  0  0  0  0  0  0  0  0  0
   12.4864    8.0748   -1.1996 H   0  0  0  0  0  0  0  0  0  0  0  0
   12.0862    9.7724   -1.3974 H   0  0  0  0  0  0  0  0  0  0  0  0
   13.6858    9.1878   -1.8421 H   0  0  0  0  0  0  0  0  0  0  0  0
    9.8879    5.4927  -10.9181 H   0  0  0  0  0  0  0  0  0  0  0  0
  2  1  1  0
  3  2  1  0
  4  3  1  0
  5  4  1  0
  6  5  1  0
  7  6  1  0
  8  7  1  0
  9  8  1  0
 10  9  1  0
 11 10  2  0
 12 11  1  0
 13 12  2  0
 14  9  2  0
 14 13  1  0
 15 14  1  0
 16 15  1  0
 17  4  1  0
 17  8  1  0
 17 16  1  0
 18 12  1  0
 19 18  1  0
 20 19  1  0
 21 11  1  0
 21 19  1  0
 22 21  2  0
 23  1  1  0
 24  1  1  0
 25  1  1  0
 26  2  1  0
 27  2  1  0
 28  3  1  0
 29  3  1  0
 30  5  1  0
 31  5  1  0
 32  6  1  0
 33  6  1  0
  8 34  1  6
 35 10  1  0
 36 13  1  0
 37 15  1  0
 38 15  1  0
 39 16  1  0
 40 16  1  0
 17 41  1  1
 42 18  1  0
 43 18  1  0
 44 20  1  0
 45 20  1  0
 46 20  1  0
  4 47  1  6
M  CHG  1   4   1
M  END
>  <b_m_subgroup_collapsed>  (631) 
0

>  <r_i_docking_score>  (631) 
-7.6370568636230196

>  <s_m_subgroup_title>  (631) 
glide-dock_SP_D22_pv

>  <s_m_subgroupid>  (631) 
glide-dock_SP_D22_pv

>  <Molecule ChEMBL ID>  (631) 
CHEMBL519201

>  <Standard Type>  (631) 
Ki

>  <Standard Value>  (631) 
10000.0

>  <label>  (631) 
0

$$$$
CHEMBL1214829
     RDKit          3D

 46 49  0  0  1  0  0  0  0  0999 V2000
   12.3881    9.2466   -4.2602 C   0  0  0  0  0  0  0  0  0  0  0  0
   12.1901    7.8677   -4.0595 C   0  0  0  0  0  0  0  0  0  0  0  0
   11.2860    7.1615   -4.8752 C   0  0  0  0  0  0  0  0  0  0  0  0
   10.5241    7.8462   -5.8468 C   0  0  0  0  0  0  0  0  0  0  0  0
    9.4747    7.1018   -6.6458 C   0  0  0  0  0  0  0  0  0  0  0  0
    9.8220    6.8436   -8.0408 N   0  0  0  0  0  0  0  0  0  0  0  0
    9.6293    8.0767   -8.8137 C   0  0  0  0  0  0  0  0  0  0  0  0
    9.8252    7.8329  -10.3075 C   0  0  0  0  0  0  0  0  0  0  0  0
    8.8860    6.7967  -10.7784 N   0  0  0  0  0  0  0  0  0  0  0  0
    8.9249    6.6722  -12.2492 C   0  0  0  0  0  0  0  0  0  0  0  0
    8.2695    5.4477  -12.7927 C   0  0  0  0  0  0  0  0  0  0  0  0
    6.9839    4.9712  -12.6924 C   0  0  0  0  0  0  0  0  0  0  0  0
    6.9962    3.6928  -13.3454 C   0  0  0  0  0  0  0  0  0  0  0  0
    6.0856    2.6346  -13.5632 C   0  0  0  0  0  0  0  0  0  0  0  0
    6.4845    1.4636  -14.2468 C   0  0  0  0  0  0  0  0  0  0  0  0
    7.7971    1.3312  -14.7453 C   0  0  0  0  0  0  0  0  0  0  0  0
    8.7251    2.3705  -14.5486 C   0  0  0  0  0  0  0  0  0  0  0  0
    8.3113    3.5153  -13.8470 C   0  0  0  0  0  0  0  0  0  0  0  0
    9.0783    4.6064  -13.5080 O   0  0  0  0  0  0  0  0  0  0  0  0
    9.0930    5.5435  -10.0115 C   0  0  0  0  0  0  0  0  0  0  0  0
    8.8861    5.8248   -8.5191 C   0  0  0  0  0  0  0  0  0  0  0  0
   10.6988    9.2321   -6.0132 C   0  0  0  0  0  0  0  0  0  0  0  0
   11.6519    9.9218   -5.2534 C   0  0  0  0  0  0  0  0  0  0  0  0
   13.1070    9.7782   -3.6550 H   0  0  0  0  0  0  0  0  0  0  0  0
   12.7547    7.3452   -3.3012 H   0  0  0  0  0  0  0  0  0  0  0  0
   11.1494    6.1008   -4.7246 H   0  0  0  0  0  0  0  0  0  0  0  0
    9.3014    6.1652   -6.1251 H   0  0  0  0  0  0  0  0  0  0  0  0
    8.5265    7.6405   -6.5804 H   0  0  0  0  0  0  0  0  0  0  0  0
    8.6390    8.4996   -8.6322 H   0  0  0  0  0  0  0  0  0  0  0  0
   10.3676    8.8199   -8.5247 H   0  0  0  0  0  0  0  0  0  0  0  0
    9.6478    8.7629  -10.8493 H   0  0  0  0  0  0  0  0  0  0  0  0
   10.8553    7.5334  -10.5098 H   0  0  0  0  0  0  0  0  0  0  0  0
    8.4456    7.5576  -12.6676 H   0  0  0  0  0  0  0  0  0  0  0  0
    9.9640    6.6946  -12.5834 H   0  0  0  0  0  0  0  0  0  0  0  0
    6.1488    5.4268  -12.1769 H   0  0  0  0  0  0  0  0  0  0  0  0
    5.0762    2.7173  -13.1889 H   0  0  0  0  0  0  0  0  0  0  0  0
    5.7757    0.6618  -14.3965 H   0  0  0  0  0  0  0  0  0  0  0  0
    8.0890    0.4310  -15.2680 H   0  0  0  0  0  0  0  0  0  0  0  0
    9.7403    2.2825  -14.9048 H   0  0  0  0  0  0  0  0  0  0  0  0
    8.3742    4.7781  -10.3027 H   0  0  0  0  0  0  0  0  0  0  0  0
   10.0861    5.1367  -10.1992 H   0  0  0  0  0  0  0  0  0  0  0  0
    9.0321    4.9015   -7.9564 H   0  0  0  0  0  0  0  0  0  0  0  0
    7.8575    6.1404   -8.3463 H   0  0  0  0  0  0  0  0  0  0  0  0
   10.0971    9.7795   -6.7191 H   0  0  0  0  0  0  0  0  0  0  0  0
   11.7920   10.9733   -5.4446 H   0  0  0  0  0  0  0  0  0  0  0  0
    7.9415    7.1212  -10.5484 H   0  0  0  0  0  0  0  0  0  0  0  0
  2  1  2  0
  3  2  1  0
  4  3  2  0
  5  4  1  0
  6  5  1  0
  7  6  1  0
  8  7  1  0
  9  8  1  0
 10  9  1  0
 11 10  1  0
 12 11  2  0
 13 12  1  0
 14 13  2  0
 15 14  1  0
 16 15  2  0
 17 16  1  0
 18 13  1  0
 18 17  2  0
 19 11  1  0
 19 18  1  0
 20  9  1  0
 21  6  1  0
 21 20  1  0
 22  4  1  0
 23  1  1  0
 23 22  2  0
 24  1  1  0
 25  2  1  0
 26  3  1  0
 27  5  1  0
 28  5  1  0
 29  7  1  0
 30  7  1  0
 31  8  1  0
 32  8  1  0
 33 10  1  0
 34 10  1  0
 35 12  1  0
 36 14  1  0
 37 15  1  0
 38 16  1  0
 39 17  1  0
 40 20  1  0
 41 20  1  0
 42 21  1  0
 43 21  1  0
 44 22  1  0
 45 23  1  0
 46  9  1  0
M  CHG  1   9   1
M  END
>  <b_m_subgroup_collapsed>  (632) 
0

>  <r_i_docking_score>  (632) 
-7.6363662701985699

>  <s_m_subgroup_title>  (632) 
glide-dock_SP_D22_pv

>  <s_m_subgroupid>  (632) 
glide-dock_SP_D22_pv

>  <Molecule ChEMBL ID>  (632) 
CHEMBL1214829

>  <Standard Type>  (632) 
Ki

>  <Standard Value>  (632) 
10000.0

>  <label>  (632) 
0

$$$$
CHEMBL4515093
     RDKit          3D

 74 78  0  0  1  0  0  0  0  0999 V2000
    6.7731   -1.0011  -17.6935 C   0  0  0  0  0  0  0  0  0  0  0  0
    7.9215   -0.1854  -17.5138 O   0  0  0  0  0  0  0  0  0  0  0  0
    8.8601   -0.1309  -18.5253 C   0  0  0  0  0  0  0  0  0  0  0  0
    8.6615   -0.7447  -19.7905 C   0  0  0  0  0  0  0  0  0  0  0  0
    9.6238   -0.6247  -20.8103 C   0  0  0  0  0  0  0  0  0  0  0  0
   10.8015    0.1046  -20.5810 C   0  0  0  0  0  0  0  0  0  0  0  0
   11.0129    0.7135  -19.3318 C   0  0  0  0  0  0  0  0  0  0  0  0
   10.0555    0.6017  -18.2984 C   0  0  0  0  0  0  0  0  0  0  0  0
   10.3197    1.2529  -17.0804 N   0  0  0  0  0  0  0  0  0  0  0  0
   10.1379    0.5907  -15.7917 C   0  0  0  0  0  0  0  0  0  0  0  0
    9.1106    1.3507  -14.9301 C   0  0  0  0  0  0  0  0  0  0  0  0
    9.4144    2.8689  -14.8141 C   0  0  0  0  0  0  0  0  0  0  0  0
    8.2443    3.5447  -14.0582 C   0  0  0  0  0  0  0  0  0  0  0  0
    8.5292    4.9999  -13.6378 C   0  0  0  0  0  0  0  0  0  0  0  0
    9.7750    5.0755  -12.8271 N   0  0  0  0  0  0  0  0  0  0  0  0
   10.0373    6.4183  -12.2490 C   0  0  0  0  0  0  0  0  0  0  0  0
    9.0576    6.7967  -11.1202 C   0  0  0  0  0  0  0  0  0  0  0  0
    9.2659    8.2232  -10.5978 C   0  0  0  0  0  0  0  0  0  0  0  0
   10.8865    8.4642   -9.8228 S   0  0  0  0  0  0  0  0  0  0  0  0
   10.5423    7.9097   -8.1786 C   0  0  0  0  0  0  0  0  0  0  0  0
    9.6831    6.9559   -7.8460 N   0  0  0  0  0  0  0  0  0  0  0  0
    9.7752    6.8694   -6.4621 C   0  0  0  0  0  0  0  0  0  0  0  0
   10.7356    7.7361   -6.0015 C   0  0  0  0  0  0  0  0  0  0  0  0
   11.2868    7.9287   -4.6629 C   0  0  0  0  0  0  0  0  0  0  0  0
   11.4344    9.2154   -4.0936 C   0  0  0  0  0  0  0  0  0  0  0  0
   12.0284    9.3791   -2.8307 C   0  0  0  0  0  0  0  0  0  0  0  0
   12.4781    8.2560   -2.1142 C   0  0  0  0  0  0  0  0  0  0  0  0
   12.3002    6.9683   -2.6557 C   0  0  0  0  0  0  0  0  0  0  0  0
   11.7046    6.8046   -3.9190 C   0  0  0  0  0  0  0  0  0  0  0  0
   11.1717    8.4387   -7.1152 N   0  0  0  0  0  0  0  0  0  0  0  0
   12.0892    9.5473   -7.1654 C   0  0  0  0  0  0  0  0  0  0  0  0
   10.9279    4.5673  -13.6115 C   0  0  0  0  0  0  0  0  0  0  0  0
   10.7006    3.0951  -13.9804 C   0  0  0  0  0  0  0  0  0  0  0  0
    9.5511    3.4351  -16.2558 C   0  0  0  0  0  0  0  0  0  0  0  0
   10.6022    2.6828  -17.0940 C   0  0  0  0  0  0  0  0  0  0  0  0
    6.1704   -0.9894  -16.7839 H   0  0  0  0  0  0  0  0  0  0  0  0
    6.1451   -0.6281  -18.5049 H   0  0  0  0  0  0  0  0  0  0  0  0
    7.0485   -2.0389  -17.8928 H   0  0  0  0  0  0  0  0  0  0  0  0
    7.7682   -1.3030  -20.0123 H   0  0  0  0  0  0  0  0  0  0  0  0
    9.4566   -1.0915  -21.7701 H   0  0  0  0  0  0  0  0  0  0  0  0
   11.5438    0.1959  -21.3606 H   0  0  0  0  0  0  0  0  0  0  0  0
   11.9257    1.2640  -19.1652 H   0  0  0  0  0  0  0  0  0  0  0  0
   11.1016    0.5557  -15.2844 H   0  0  0  0  0  0  0  0  0  0  0  0
    9.8301   -0.4464  -15.9234 H   0  0  0  0  0  0  0  0  0  0  0  0
    9.0555    0.8907  -13.9416 H   0  0  0  0  0  0  0  0  0  0  0  0
    8.1223    1.2176  -15.3717 H   0  0  0  0  0  0  0  0  0  0  0  0
    8.0233    2.9755  -13.1576 H   0  0  0  0  0  0  0  0  0  0  0  0
    7.3298    3.4975  -14.6471 H   0  0  0  0  0  0  0  0  0  0  0  0
    7.6717    5.3576  -13.0721 H   0  0  0  0  0  0  0  0  0  0  0  0
    8.6123    5.6439  -14.5124 H   0  0  0  0  0  0  0  0  0  0  0  0
   10.0430    7.1504  -13.0469 H   0  0  0  0  0  0  0  0  0  0  0  0
   11.0460    6.4518  -11.8455 H   0  0  0  0  0  0  0  0  0  0  0  0
    9.1326    6.0779  -10.3042 H   0  0  0  0  0  0  0  0  0  0  0  0
    8.0273    6.7364  -11.4632 H   0  0  0  0  0  0  0  0  0  0  0  0
    8.4864    8.4987   -9.8859 H   0  0  0  0  0  0  0  0  0  0  0  0
    9.1733    8.9248  -11.4263 H   0  0  0  0  0  0  0  0  0  0  0  0
    9.1622    6.1856   -5.9012 H   0  0  0  0  0  0  0  0  0  0  0  0
   11.0851   10.0914   -4.6220 H   0  0  0  0  0  0  0  0  0  0  0  0
   12.0933   10.3681   -2.3950 H   0  0  0  0  0  0  0  0  0  0  0  0
   12.9286    8.3840   -1.1386 H   0  0  0  0  0  0  0  0  0  0  0  0
   12.6275    6.0975   -2.1029 H   0  0  0  0  0  0  0  0  0  0  0  0
   11.5915    5.8002   -4.3158 H   0  0  0  0  0  0  0  0  0  0  0  0
   12.6523    9.6746   -6.2427 H   0  0  0  0  0  0  0  0  0  0  0  0
   12.8195    9.3720   -7.9611 H   0  0  0  0  0  0  0  0  0  0  0  0
   11.4710   10.4304   -7.3523 H   0  0  0  0  0  0  0  0  0  0  0  0
   11.0707    5.1790  -14.5019 H   0  0  0  0  0  0  0  0  0  0  0  0
   11.8542    4.6486  -13.0472 H   0  0  0  0  0  0  0  0  0  0  0  0
   10.6168    2.5369  -13.0513 H   0  0  0  0  0  0  0  0  0  0  0  0
   11.5821    2.7002  -14.4851 H   0  0  0  0  0  0  0  0  0  0  0  0
    8.5943    3.3509  -16.7698 H   0  0  0  0  0  0  0  0  0  0  0  0
    9.7860    4.4992  -16.2500 H   0  0  0  0  0  0  0  0  0  0  0  0
   11.6084    2.8512  -16.7090 H   0  0  0  0  0  0  0  0  0  0  0  0
   10.5980    3.0710  -18.1153 H   0  0  0  0  0  0  0  0  0  0  0  0
    9.6535    4.4433  -12.0467 H   0  0  0  0  0  0  0  0  0  0  0  0
  2  1  1  0
  3  2  1  0
  4  3  2  0
  5  4  1  0
  6  5  2  0
  7  6  1  0
  8  3  1  0
  8  7  2  0
  9  8  1  0
 10  9  1  0
 11 10  1  0
 12 11  1  0
 13 12  1  0
 14 13  1  0
 15 14  1  0
 16 15  1  0
 17 16  1  0
 18 17  1  0
 19 18  1  0
 20 19  1  0
 21 20  2  0
 22 21  1  0
 23 22  2  0
 24 23  1  0
 25 24  2  0
 26 25  1  0
 27 26  2  0
 28 27  1  0
 29 24  1  0
 29 28  2  0
 30 20  1  0
 30 23  1  0
 31 30  1  0
 32 15  1  0
 33 12  1  0
 33 32  1  0
 34 12  1  0
 35  9  1  0
 35 34  1  0
 36  1  1  0
 37  1  1  0
 38  1  1  0
 39  4  1  0
 40  5  1  0
 41  6  1  0
 42  7  1  0
 43 10  1  0
 44 10  1  0
 45 11  1  0
 46 11  1  0
 47 13  1  0
 48 13  1  0
 49 14  1  0
 50 14  1  0
 51 16  1  0
 52 16  1  0
 53 17  1  0
 54 17  1  0
 55 18  1  0
 56 18  1  0
 57 22  1  0
 58 25  1  0
 59 26  1  0
 60 27  1  0
 61 28  1  0
 62 29  1  0
 63 31  1  0
 64 31  1  0
 65 31  1  0
 66 32  1  0
 67 32  1  0
 68 33  1  0
 69 33  1  0
 70 34  1  0
 71 34  1  0
 72 35  1  0
 73 35  1  0
 74 15  1  0
M  CHG  1  15   1
M  END
>  <b_m_subgroup_collapsed>  (633) 
0

>  <r_i_docking_score>  (633) 
-7.6328438622391701

>  <s_m_subgroup_title>  (633) 
glide-dock_SP_D22_pv

>  <s_m_subgroupid>  (633) 
glide-dock_SP_D22_pv

>  <Molecule ChEMBL ID>  (633) 
CHEMBL4515093

>  <Standard Type>  (633) 
Ki

>  <Standard Value>  (633) 
35720.0

>  <label>  (633) 
0

$$$$
CHEMBL3289973
     RDKit          3D

 56 59  0  0  1  0  0  0  0  0999 V2000
    5.2860    4.5040  -13.8473 O   0  0  0  0  0  0  0  0  0  0  0  0
    6.0114    3.4275  -13.1621 S   0  0  0  0  0  0  0  0  0  0  0  0
    5.2862    2.2678  -12.6195 O   0  0  0  0  0  0  0  0  0  0  0  0
    6.8249    4.1642  -11.8471 N   0  0  0  0  0  0  0  0  0  0  0  0
    7.3751    5.5124  -11.8911 C   0  0  0  0  0  0  0  0  0  0  0  0
    8.6905    5.5191  -11.1118 C   0  0  0  0  0  0  0  0  0  0  0  0
    9.2571    6.9285  -10.8580 C   0  0  0  0  0  0  0  0  0  0  0  0
   10.1599    6.9199   -9.7154 N   0  0  0  0  0  0  0  0  0  0  0  0
    9.4160    6.8100   -8.4488 C   0  0  0  0  0  0  0  0  0  0  0  0
   10.4251    6.5765   -7.3195 C   0  0  0  0  0  0  0  0  0  0  0  0
   11.3692    7.6782   -7.2767 N   0  0  0  0  0  0  0  0  0  0  0  0
   11.2941    8.5704   -6.2055 C   0  0  0  0  0  0  0  0  0  0  0  0
   11.1368    9.8844   -6.3222 N   0  0  0  0  0  0  0  0  0  0  0  0
   11.2871   10.4151   -5.0129 O   0  0  0  0  0  0  0  0  0  0  0  0
   11.6125    9.3999   -4.1228 C   0  0  0  0  0  0  0  0  0  0  0  0
   11.9925    9.4185   -2.7751 C   0  0  0  0  0  0  0  0  0  0  0  0
   12.2449    8.1848   -2.1408 C   0  0  0  0  0  0  0  0  0  0  0  0
   12.1176    6.9725   -2.8607 C   0  0  0  0  0  0  0  0  0  0  0  0
   11.7783    6.9821   -4.2332 C   0  0  0  0  0  0  0  0  0  0  0  0
   11.5386    8.2240   -4.8640 C   0  0  0  0  0  0  0  0  0  0  0  0
   11.9614    8.0977   -8.5451 C   0  0  0  0  0  0  0  0  0  0  0  0
   10.9035    8.1828   -9.6602 C   0  0  0  0  0  0  0  0  0  0  0  0
    7.3283    2.7875  -14.2187 C   0  0  0  0  0  0  0  0  0  0  0  0
    8.5818    3.4273  -14.3089 C   0  0  0  0  0  0  0  0  0  0  0  0
    9.6112    2.8601  -15.0813 C   0  0  0  0  0  0  0  0  0  0  0  0
    9.4162    1.6479  -15.7704 C   0  0  0  0  0  0  0  0  0  0  0  0
   10.4875    1.1788  -16.5016 O   0  0  0  0  0  0  0  0  0  0  0  0
   10.3579    0.1113  -17.3338 C   0  0  0  0  0  0  0  0  0  0  0  0
   11.5232   -0.0917  -17.9937 F   0  0  0  0  0  0  0  0  0  0  0  0
   10.0857   -1.0278  -16.6528 F   0  0  0  0  0  0  0  0  0  0  0  0
    9.4023    0.3166  -18.2745 F   0  0  0  0  0  0  0  0  0  0  0  0
    8.1573    1.0008  -15.6660 C   0  0  0  0  0  0  0  0  0  0  0  0
    7.1220    1.5668  -14.8940 C   0  0  0  0  0  0  0  0  0  0  0  0
    7.2122    3.5314  -11.1472 H   0  0  0  0  0  0  0  0  0  0  0  0
    7.5027    5.8579  -12.9153 H   0  0  0  0  0  0  0  0  0  0  0  0
    6.6389    6.1723  -11.4468 H   0  0  0  0  0  0  0  0  0  0  0  0
    8.5001    4.9924  -10.1796 H   0  0  0  0  0  0  0  0  0  0  0  0
    9.4440    4.9179  -11.6247 H   0  0  0  0  0  0  0  0  0  0  0  0
    9.7866    7.2527  -11.7545 H   0  0  0  0  0  0  0  0  0  0  0  0
    8.4861    7.6721  -10.6842 H   0  0  0  0  0  0  0  0  0  0  0  0
    8.8216    7.7084   -8.2655 H   0  0  0  0  0  0  0  0  0  0  0  0
    8.7105    5.9834   -8.4364 H   0  0  0  0  0  0  0  0  0  0  0  0
    9.8966    6.4747   -6.3707 H   0  0  0  0  0  0  0  0  0  0  0  0
   10.9700    5.6466   -7.4824 H   0  0  0  0  0  0  0  0  0  0  0  0
   12.0856   10.3539   -2.2470 H   0  0  0  0  0  0  0  0  0  0  0  0
   12.5305    8.1724   -1.0999 H   0  0  0  0  0  0  0  0  0  0  0  0
   12.3047    6.0309   -2.3645 H   0  0  0  0  0  0  0  0  0  0  0  0
   11.7269    6.0588   -4.7904 H   0  0  0  0  0  0  0  0  0  0  0  0
   12.4745    9.0512   -8.4397 H   0  0  0  0  0  0  0  0  0  0  0  0
   12.7263    7.3770   -8.8233 H   0  0  0  0  0  0  0  0  0  0  0  0
   11.4043    8.3648  -10.6117 H   0  0  0  0  0  0  0  0  0  0  0  0
   10.2264    9.0229   -9.4864 H   0  0  0  0  0  0  0  0  0  0  0  0
    8.7833    4.3487  -13.7946 H   0  0  0  0  0  0  0  0  0  0  0  0
   10.5654    3.3625  -15.1428 H   0  0  0  0  0  0  0  0  0  0  0  0
    7.9624    0.0615  -16.1645 H   0  0  0  0  0  0  0  0  0  0  0  0
    6.1717    1.0593  -14.8144 H   0  0  0  0  0  0  0  0  0  0  0  0
  2  1  2  0
  3  2  2  0
  4  2  1  0
  5  4  1  0
  6  5  1  0
  7  6  1  0
  8  7  1  0
  9  8  1  0
 10  9  1  0
 11 10  1  0
 12 11  1  0
 13 12  2  0
 14 13  1  0
 15 14  1  0
 16 15  2  0
 17 16  1  0
 18 17  2  0
 19 18  1  0
 20 12  1  0
 20 15  1  0
 20 19  2  0
 21 11  1  0
 22  8  1  0
 22 21  1  0
 23  2  1  0
 24 23  1  0
 25 24  2  0
 26 25  1  0
 27 26  1  0
 28 27  1  0
 29 28  1  0
 30 28  1  0
 31 28  1  0
 32 26  2  0
 33 23  2  0
 33 32  1  0
 34  4  1  0
 35  5  1  0
 36  5  1  0
 37  6  1  0
 38  6  1  0
 39  7  1  0
 40  7  1  0
 41  9  1  0
 42  9  1  0
 43 10  1  0
 44 10  1  0
 45 16  1  0
 46 17  1  0
 47 18  1  0
 48 19  1  0
 49 21  1  0
 50 21  1  0
 51 22  1  0
 52 22  1  0
 53 24  1  0
 54 25  1  0
 55 32  1  0
 56 33  1  0
M  END
>  <b_m_subgroup_collapsed>  (634) 
0

>  <r_i_docking_score>  (634) 
-7.63071265118404

>  <s_m_subgroup_title>  (634) 
glide-dock_SP_D22_pv

>  <s_m_subgroupid>  (634) 
glide-dock_SP_D22_pv

>  <Molecule ChEMBL ID>  (634) 
CHEMBL3289973

>  <Standard Type>  (634) 
Ki

>  <Standard Value>  (634) 
63.0

>  <label>  (634) 
1

$$$$
CHEMBL4464861
     RDKit          3D

 50 52  0  0  1  0  0  0  0  0999 V2000
    9.7114    0.6547  -15.0374 C   0  0  0  0  0  0  0  0  0  0  0  0
   10.1789    2.0882  -14.8890 C   0  0  0  0  0  0  0  0  0  0  0  0
   11.2874    2.5467  -15.6269 C   0  0  0  0  0  0  0  0  0  0  0  0
   11.7370    3.8717  -15.4743 C   0  0  0  0  0  0  0  0  0  0  0  0
   11.0911    4.7400  -14.5743 C   0  0  0  0  0  0  0  0  0  0  0  0
    9.9804    4.2870  -13.8212 C   0  0  0  0  0  0  0  0  0  0  0  0
    9.2652    5.1208  -12.9155 N   0  0  0  0  0  0  0  0  0  0  0  0
    9.7168    6.1972  -12.2477 C   0  0  0  0  0  0  0  0  0  0  0  0
   10.8870    6.5736  -12.2470 O   0  0  0  0  0  0  0  0  0  0  0  0
    8.6753    6.9798  -11.4497 C   0  0  0  0  0  0  0  0  0  0  0  0
    9.2656    8.1930  -10.6922 C   0  0  0  0  0  0  0  0  0  0  0  0
    9.9462    7.8129   -9.4235 N   0  0  2  0  0  0  0  0  0  0  0  0
    8.9685    7.6276   -8.3135 C   0  0  0  0  0  0  0  0  0  0  0  0
    9.6483    7.2852   -6.9777 C   0  0  0  0  0  0  0  0  0  0  0  0
   10.6677    8.3753   -6.6168 C   0  0  1  0  0  0  0  0  0  0  0  0
   11.2868    8.2365   -5.2296 C   0  0  0  0  0  0  0  0  0  0  0  0
   11.5485    6.9804   -4.6418 C   0  0  0  0  0  0  0  0  0  0  0  0
   12.0860    6.9443   -3.3393 C   0  0  0  0  0  0  0  0  0  0  0  0
   12.3581    8.1561   -2.6823 C   0  0  0  0  0  0  0  0  0  0  0  0
   12.0837    9.3570   -3.3601 C   0  0  0  0  0  0  0  0  0  0  0  0
   11.5569    9.4020   -4.6032 N   0  0  0  0  0  0  0  0  0  0  0  0
   11.7146    8.4437   -7.7373 C   0  0  0  0  0  0  0  0  0  0  0  0
   11.0358    8.7693   -9.0821 C   0  0  0  0  0  0  0  0  0  0  0  0
    9.5210    2.9653  -14.0015 C   0  0  0  0  0  0  0  0  0  0  0  0
    8.6458    0.5640  -14.8308 H   0  0  0  0  0  0  0  0  0  0  0  0
    9.8901    0.2880  -16.0496 H   0  0  0  0  0  0  0  0  0  0  0  0
   10.2470    0.0133  -14.3358 H   0  0  0  0  0  0  0  0  0  0  0  0
   11.8016    1.8849  -16.3098 H   0  0  0  0  0  0  0  0  0  0  0  0
   12.5860    4.2231  -16.0432 H   0  0  0  0  0  0  0  0  0  0  0  0
   11.4530    5.7540  -14.4890 H   0  0  0  0  0  0  0  0  0  0  0  0
    8.3085    4.8533  -12.7375 H   0  0  0  0  0  0  0  0  0  0  0  0
    8.1390    6.3038  -10.7804 H   0  0  0  0  0  0  0  0  0  0  0  0
    7.9363    7.3427  -12.1656 H   0  0  0  0  0  0  0  0  0  0  0  0
    8.4858    8.9249  -10.4825 H   0  0  0  0  0  0  0  0  0  0  0  0
    9.9573    8.7204  -11.3508 H   0  0  0  0  0  0  0  0  0  0  0  0
    8.2674    6.8312   -8.5668 H   0  0  0  0  0  0  0  0  0  0  0  0
    8.3886    8.5425   -8.1873 H   0  0  0  0  0  0  0  0  0  0  0  0
   10.1266    6.3084   -7.0445 H   0  0  0  0  0  0  0  0  0  0  0  0
    8.8867    7.2129   -6.2027 H   0  0  0  0  0  0  0  0  0  0  0  0
   10.1304    9.3266   -6.6053 H   0  0  0  0  0  0  0  0  0  0  0  0
   11.3335    6.0567   -5.1570 H   0  0  0  0  0  0  0  0  0  0  0  0
   12.2836    5.9989   -2.8536 H   0  0  0  0  0  0  0  0  0  0  0  0
   12.7652    8.1692   -1.6832 H   0  0  0  0  0  0  0  0  0  0  0  0
   12.2760   10.3062   -2.8831 H   0  0  0  0  0  0  0  0  0  0  0  0
   12.4565    9.2113   -7.5087 H   0  0  0  0  0  0  0  0  0  0  0  0
   12.2578    7.5005   -7.8066 H   0  0  0  0  0  0  0  0  0  0  0  0
   11.7853    8.7701   -9.8769 H   0  0  0  0  0  0  0  0  0  0  0  0
   10.6189    9.7723   -9.0482 H   0  0  0  0  0  0  0  0  0  0  0  0
    8.6665    2.6088  -13.4466 H   0  0  0  0  0  0  0  0  0  0  0  0
   10.3933    6.9202   -9.5860 H   0  0  0  0  0  0  0  0  0  0  0  0
  2  1  1  0
  3  2  2  0
  4  3  1  0
  5  4  2  0
  6  5  1  0
  7  6  1  0
  8  7  1  0
  9  8  2  0
 10  8  1  0
 11 10  1  0
 12 11  1  0
 13 12  1  0
 14 13  1  0
 15 14  1  0
 16 15  1  0
 17 16  2  0
 18 17  1  0
 19 18  2  0
 20 19  1  0
 21 16  1  0
 21 20  2  0
 22 15  1  0
 23 12  1  0
 23 22  1  0
 24  2  1  0
 24  6  2  0
 25  1  1  0
 26  1  1  0
 27  1  1  0
 28  3  1  0
 29  4  1  0
 30  5  1  0
 31  7  1  0
 32 10  1  0
 33 10  1  0
 34 11  1  0
 35 11  1  0
 36 13  1  0
 37 13  1  0
 38 14  1  0
 39 14  1  0
 15 40  1  1
 41 17  1  0
 42 18  1  0
 43 19  1  0
 44 20  1  0
 45 22  1  0
 46 22  1  0
 47 23  1  0
 48 23  1  0
 49 24  1  0
 12 50  1  6
M  CHG  1  12   1
M  END
>  <b_m_subgroup_collapsed>  (635) 
0

>  <r_i_docking_score>  (635) 
-7.6270149819989701

>  <s_m_subgroup_title>  (635) 
glide-dock_SP_D22_pv

>  <s_m_subgroupid>  (635) 
glide-dock_SP_D22_pv

>  <Molecule ChEMBL ID>  (635) 
CHEMBL4464861

>  <Standard Type>  (635) 
Ki

>  <Standard Value>  (635) 
80.3

>  <label>  (635) 
1

$$$$
CHEMBL111054
     RDKit          3D

 48 51  0  0  1  0  0  0  0  0999 V2000
   12.4784    9.1783   -3.2750 C   0  0  0  0  0  0  0  0  0  0  0  0
   12.2764    8.9561   -4.6612 O   0  0  0  0  0  0  0  0  0  0  0  0
   11.2428    9.5465   -5.2924 C   0  0  0  0  0  0  0  0  0  0  0  0
   10.4864   10.3534   -4.7560 O   0  0  0  0  0  0  0  0  0  0  0  0
   11.0842    9.0691   -6.6905 C   0  0  0  0  0  0  0  0  0  0  0  0
   12.2178    8.8699   -7.4964 C   0  0  0  0  0  0  0  0  0  0  0  0
   12.0946    8.3661   -8.8045 C   0  0  0  0  0  0  0  0  0  0  0  0
   10.8272    8.0516   -9.3473 C   0  0  0  0  0  0  0  0  0  0  0  0
   10.6695    7.5043  -10.7130 C   0  0  0  0  0  0  0  0  0  0  0  0
   11.6618    7.3724  -11.6192 C   0  0  0  0  0  0  0  0  0  0  0  0
   11.6247    6.8221  -12.9798 C   0  0  0  0  0  0  0  0  0  0  0  0
   12.4866    7.3329  -13.8524 N   0  0  0  0  0  0  0  0  0  0  0  0
   12.1914    6.6688  -15.0172 C   0  0  0  0  0  0  0  0  0  0  0  0
   12.7830    6.7993  -16.2920 C   0  0  0  0  0  0  0  0  0  0  0  0
   12.2831    6.0689  -17.3887 C   0  0  0  0  0  0  0  0  0  0  0  0
   11.1775    5.2138  -17.2204 C   0  0  0  0  0  0  0  0  0  0  0  0
   10.5784    5.0681  -15.9537 C   0  0  0  0  0  0  0  0  0  0  0  0
   11.0978    5.7722  -14.8417 C   0  0  0  0  0  0  0  0  0  0  0  0
   10.7678    5.8775  -13.4731 N   0  0  0  0  0  0  0  0  0  0  0  0
    9.6965    5.2111  -12.7244 C   0  0  0  0  0  0  0  0  0  0  0  0
    9.0135    4.0318  -13.4023 C   0  0  0  0  0  0  0  0  0  0  0  0
    9.7481    2.9009  -13.8248 C   0  0  0  0  0  0  0  0  0  0  0  0
    9.0938    1.8281  -14.4607 C   0  0  0  0  0  0  0  0  0  0  0  0
    7.6985    1.8634  -14.6469 C   0  0  0  0  0  0  0  0  0  0  0  0
    6.8892    0.5460  -15.4079 Cl  0  0  0  0  0  0  0  0  0  0  0  0
    6.9593    2.9723  -14.1952 C   0  0  0  0  0  0  0  0  0  0  0  0
    7.6153    4.0553  -13.5818 C   0  0  0  0  0  0  0  0  0  0  0  0
    9.6851    8.2897   -8.5489 C   0  0  0  0  0  0  0  0  0  0  0  0
    9.8094    8.7987   -7.2358 C   0  0  0  0  0  0  0  0  0  0  0  0
   13.1856    8.4509   -2.8820 H   0  0  0  0  0  0  0  0  0  0  0  0
   12.8803   10.1725   -3.0971 H   0  0  0  0  0  0  0  0  0  0  0  0
   11.5471    9.0706   -2.7171 H   0  0  0  0  0  0  0  0  0  0  0  0
   13.2035    9.1021   -7.1184 H   0  0  0  0  0  0  0  0  0  0  0  0
   13.0036    8.2294   -9.3704 H   0  0  0  0  0  0  0  0  0  0  0  0
    9.6652    7.2048  -10.9632 H   0  0  0  0  0  0  0  0  0  0  0  0
   12.6509    7.7043  -11.3456 H   0  0  0  0  0  0  0  0  0  0  0  0
   13.6139    7.4762  -16.4259 H   0  0  0  0  0  0  0  0  0  0  0  0
   12.7362    6.1823  -18.3624 H   0  0  0  0  0  0  0  0  0  0  0  0
   10.7805    4.6762  -18.0685 H   0  0  0  0  0  0  0  0  0  0  0  0
    9.7113    4.4359  -15.8714 H   0  0  0  0  0  0  0  0  0  0  0  0
   10.0864    4.8709  -11.7640 H   0  0  0  0  0  0  0  0  0  0  0  0
    8.9326    5.9591  -12.5171 H   0  0  0  0  0  0  0  0  0  0  0  0
   10.8173    2.8628  -13.6713 H   0  0  0  0  0  0  0  0  0  0  0  0
    9.6622    0.9711  -14.7904 H   0  0  0  0  0  0  0  0  0  0  0  0
    5.8870    2.9972  -14.3158 H   0  0  0  0  0  0  0  0  0  0  0  0
    7.0350    4.9036  -13.2472 H   0  0  0  0  0  0  0  0  0  0  0  0
    8.6993    8.0772   -8.9396 H   0  0  0  0  0  0  0  0  0  0  0  0
    8.9189    8.9661   -6.6459 H   0  0  0  0  0  0  0  0  0  0  0  0
  2  1  1  0
  3  2  1  0
  4  3  2  0
  5  3  1  0
  6  5  1  0
  7  6  2  0
  8  7  1  0
  9  8  1  0
 10  9  2  0
 11 10  1  0
 12 11  2  0
 13 12  1  0
 14 13  2  0
 15 14  1  0
 16 15  2  0
 17 16  1  0
 18 13  1  0
 18 17  2  0
 19 11  1  0
 19 18  1  0
 20 19  1  0
 21 20  1  0
 22 21  1  0
 23 22  2  0
 24 23  1  0
 25 24  1  0
 26 24  2  0
 27 21  2  0
 27 26  1  0
 28  8  2  0
 29  5  2  0
 29 28  1  0
 30  1  1  0
 31  1  1  0
 32  1  1  0
 33  6  1  0
 34  7  1  0
 35  9  1  0
 36 10  1  0
 37 14  1  0
 38 15  1  0
 39 16  1  0
 40 17  1  0
 41 20  1  0
 42 20  1  0
 43 22  1  0
 44 23  1  0
 45 26  1  0
 46 27  1  0
 47 28  1  0
 48 29  1  0
M  END
>  <b_m_subgroup_collapsed>  (636) 
0

>  <r_i_docking_score>  (636) 
-7.6267417803683104

>  <s_m_subgroup_title>  (636) 
glide-dock_SP_D22_pv

>  <s_m_subgroupid>  (636) 
glide-dock_SP_D22_pv

>  <Molecule ChEMBL ID>  (636) 
CHEMBL111054

>  <Standard Type>  (636) 
Ki

>  <Standard Value>  (636) 
38.0

>  <label>  (636) 
1

$$$$
CHEMBL540028
     RDKit          3D

 46 49  0  0  1  0  0  0  0  0999 V2000
   12.4862    8.1702   -8.0615 O   0  0  0  0  0  0  0  0  0  0  0  0
   11.2790    8.1822   -7.8311 C   0  0  0  0  0  0  0  0  0  0  0  0
   10.6124    8.3821   -6.5673 C   0  0  0  0  0  0  0  0  0  0  0  0
   11.2084    8.4343   -5.2311 C   0  0  0  0  0  0  0  0  0  0  0  0
   11.6859    7.2422   -4.6448 C   0  0  0  0  0  0  0  0  0  0  0  0
   12.2148    7.2625   -3.3397 C   0  0  0  0  0  0  0  0  0  0  0  0
   12.2849    8.4756   -2.6294 C   0  0  0  0  0  0  0  0  0  0  0  0
   11.8237    9.6649   -3.2237 C   0  0  0  0  0  0  0  0  0  0  0  0
   11.2859    9.6515   -4.5255 C   0  0  0  0  0  0  0  0  0  0  0  0
    9.3291    8.5701   -6.8909 C   0  0  0  0  0  0  0  0  0  0  0  0
    9.0215    8.4359   -8.2177 O   0  0  0  0  0  0  0  0  0  0  0  0
   10.2033    8.0143   -8.8937 C   0  0  1  0  0  0  0  0  0  0  0  0
   10.5014    8.8652  -10.1288 C   0  0  0  0  0  0  0  0  0  0  0  0
    9.4760    8.5726  -11.2311 C   0  0  0  0  0  0  0  0  0  0  0  0
    9.4725    7.0969  -11.5926 C   0  0  0  0  0  0  0  0  0  0  0  0
    9.1273    6.2937  -10.3975 N   0  0  1  0  0  0  0  0  0  0  0  0
    9.0331    4.8478  -10.6879 C   0  0  0  0  0  0  0  0  0  0  0  0
    8.1557    4.5134  -11.8774 C   0  0  0  0  0  0  0  0  0  0  0  0
    6.7916    4.8635  -11.8583 C   0  0  0  0  0  0  0  0  0  0  0  0
    5.9380    4.4314  -12.8854 C   0  0  0  0  0  0  0  0  0  0  0  0
    6.4556    3.6727  -13.9449 C   0  0  0  0  0  0  0  0  0  0  0  0
    7.8297    3.3731  -14.0078 C   0  0  0  0  0  0  0  0  0  0  0  0
    8.6852    3.7966  -12.9749 C   0  0  0  0  0  0  0  0  0  0  0  0
   10.0611    6.5299   -9.2638 C   0  0  0  0  0  0  0  0  0  0  0  0
   11.6269    6.3068   -5.1826 H   0  0  0  0  0  0  0  0  0  0  0  0
   12.5618    6.3457   -2.8854 H   0  0  0  0  0  0  0  0  0  0  0  0
   12.6933    8.4973   -1.6284 H   0  0  0  0  0  0  0  0  0  0  0  0
   11.8799   10.5891   -2.6674 H   0  0  0  0  0  0  0  0  0  0  0  0
   10.9243   10.5677   -4.9702 H   0  0  0  0  0  0  0  0  0  0  0  0
    8.4856    8.7668   -6.2478 H   0  0  0  0  0  0  0  0  0  0  0  0
   10.4945    9.9153   -9.8469 H   0  0  0  0  0  0  0  0  0  0  0  0
   11.5037    8.6566  -10.5088 H   0  0  0  0  0  0  0  0  0  0  0  0
    8.4853    8.8833  -10.9000 H   0  0  0  0  0  0  0  0  0  0  0  0
    9.6854    9.1503  -12.1288 H   0  0  0  0  0  0  0  0  0  0  0  0
    8.7424    6.9521  -12.3895 H   0  0  0  0  0  0  0  0  0  0  0  0
   10.4429    6.7919  -11.9869 H   0  0  0  0  0  0  0  0  0  0  0  0
   10.0336    4.4402  -10.8540 H   0  0  0  0  0  0  0  0  0  0  0  0
    8.6290    4.3380   -9.8102 H   0  0  0  0  0  0  0  0  0  0  0  0
    6.3882    5.4503  -11.0472 H   0  0  0  0  0  0  0  0  0  0  0  0
    4.8863    4.6724  -12.8645 H   0  0  0  0  0  0  0  0  0  0  0  0
    5.7931    3.3539  -14.7304 H   0  0  0  0  0  0  0  0  0  0  0  0
    8.2202    2.8016  -14.8382 H   0  0  0  0  0  0  0  0  0  0  0  0
    9.7300    3.5258  -13.0076 H   0  0  0  0  0  0  0  0  0  0  0  0
   11.0486    6.1693   -9.5496 H   0  0  0  0  0  0  0  0  0  0  0  0
    9.7399    5.9498   -8.3958 H   0  0  0  0  0  0  0  0  0  0  0  0
    8.2057    6.6145  -10.1103 H   0  0  0  0  0  0  0  0  0  0  0  0
  2  1  2  0
  3  2  1  0
  4  3  1  0
  5  4  2  0
  6  5  1  0
  7  6  2  0
  8  7  1  0
  9  4  1  0
  9  8  2  0
 10  3  2  0
 11 10  1  0
 12  2  1  0
 12 11  1  1
 13 12  1  0
 14 13  1  0
 15 14  1  0
 16 15  1  0
 17 16  1  0
 18 17  1  0
 19 18  2  0
 20 19  1  0
 21 20  2  0
 22 21  1  0
 23 18  1  0
 23 22  2  0
 24 12  1  0
 24 16  1  0
 25  5  1  0
 26  6  1  0
 27  7  1  0
 28  8  1  0
 29  9  1  0
 30 10  1  0
 31 13  1  0
 32 13  1  0
 33 14  1  0
 34 14  1  0
 35 15  1  0
 36 15  1  0
 37 17  1  0
 38 17  1  0
 39 19  1  0
 40 20  1  0
 41 21  1  0
 42 22  1  0
 43 23  1  0
 44 24  1  0
 45 24  1  0
 16 46  1  1
M  CHG  1  16   1
M  END
>  <b_m_subgroup_collapsed>  (637) 
0

>  <r_i_docking_score>  (637) 
-7.6205166942672502

>  <s_m_subgroup_title>  (637) 
glide-dock_SP_D22_pv

>  <s_m_subgroupid>  (637) 
glide-dock_SP_D22_pv

>  <Molecule ChEMBL ID>  (637) 
CHEMBL540028

>  <Standard Type>  (637) 
Ki

>  <Standard Value>  (637) 
10000.0

>  <label>  (637) 
0

$$$$
CHEMBL1215037
     RDKit          3D

 56 59  0  0  1  0  0  0  0  0999 V2000
    4.0838   -0.7082  -14.2833 C   0  0  0  0  0  0  0  0  0  0  0  0
    4.9165    0.4523  -13.7237 C   0  0  0  0  0  0  0  0  0  0  0  0
    6.2854    0.5754  -14.4034 C   0  0  0  0  0  0  0  0  0  0  0  0
    6.8866    1.8187  -14.0525 O   0  0  0  0  0  0  0  0  0  0  0  0
    8.2028    2.0435  -14.4113 C   0  0  0  0  0  0  0  0  0  0  0  0
    9.0107    1.0696  -15.0584 C   0  0  0  0  0  0  0  0  0  0  0  0
   10.3452    1.3536  -15.4026 C   0  0  0  0  0  0  0  0  0  0  0  0
   10.8901    2.6147  -15.1188 C   0  0  0  0  0  0  0  0  0  0  0  0
   10.1028    3.5916  -14.4822 C   0  0  0  0  0  0  0  0  0  0  0  0
    8.7674    3.3115  -14.1115 C   0  0  0  0  0  0  0  0  0  0  0  0
    7.9096    4.3900  -13.4491 C   0  0  0  0  0  0  0  0  0  0  0  0
    8.6488    5.4748  -12.7951 N   0  0  0  0  0  0  0  0  0  0  0  0
    9.2220    5.0320  -11.5197 C   0  0  0  0  0  0  0  0  0  0  0  0
   10.0374    6.1786  -10.8837 C   0  0  0  0  0  0  0  0  0  0  0  0
    9.1832    7.3704  -10.6555 N   0  0  0  0  0  0  0  0  0  0  0  0
    9.8696    8.5081   -9.9947 C   0  0  0  0  0  0  0  0  0  0  0  0
   10.2763    8.2782   -8.5680 C   0  0  0  0  0  0  0  0  0  0  0  0
   10.1734    7.2049   -7.7091 C   0  0  0  0  0  0  0  0  0  0  0  0
   10.7969    7.6174   -6.4814 C   0  0  0  0  0  0  0  0  0  0  0  0
   11.0792    7.0419   -5.2213 C   0  0  0  0  0  0  0  0  0  0  0  0
   11.7128    7.7946   -4.2075 C   0  0  0  0  0  0  0  0  0  0  0  0
   12.0848    9.1362   -4.4327 C   0  0  0  0  0  0  0  0  0  0  0  0
   11.8328    9.7304   -5.6858 C   0  0  0  0  0  0  0  0  0  0  0  0
   11.2018    8.9602   -6.6777 C   0  0  0  0  0  0  0  0  0  0  0  0
   10.8870    9.3465   -7.9608 O   0  0  0  0  0  0  0  0  0  0  0  0
    8.5599    7.7675  -11.9400 C   0  0  0  0  0  0  0  0  0  0  0  0
    7.7504    6.5956  -12.5199 C   0  0  0  0  0  0  0  0  0  0  0  0
    3.1435   -0.8168  -13.7433 H   0  0  0  0  0  0  0  0  0  0  0  0
    3.8388   -0.5402  -15.3335 H   0  0  0  0  0  0  0  0  0  0  0  0
    4.6260   -1.6522  -14.2245 H   0  0  0  0  0  0  0  0  0  0  0  0
    5.0611    0.3255  -12.6514 H   0  0  0  0  0  0  0  0  0  0  0  0
    4.3539    1.3736  -13.8460 H   0  0  0  0  0  0  0  0  0  0  0  0
    6.1789    0.5204  -15.4872 H   0  0  0  0  0  0  0  0  0  0  0  0
    6.9005   -0.2659  -14.0799 H   0  0  0  0  0  0  0  0  0  0  0  0
    8.6336    0.0918  -15.3082 H   0  0  0  0  0  0  0  0  0  0  0  0
   10.9485    0.6028  -15.8894 H   0  0  0  0  0  0  0  0  0  0  0  0
   11.9114    2.8395  -15.3927 H   0  0  0  0  0  0  0  0  0  0  0  0
   10.5361    4.5622  -14.2880 H   0  0  0  0  0  0  0  0  0  0  0  0
    7.2908    4.8083  -14.2448 H   0  0  0  0  0  0  0  0  0  0  0  0
    7.2225    3.9322  -12.7338 H   0  0  0  0  0  0  0  0  0  0  0  0
    8.4329    4.7007  -10.8429 H   0  0  0  0  0  0  0  0  0  0  0  0
    9.8740    4.1736  -11.6874 H   0  0  0  0  0  0  0  0  0  0  0  0
   10.4742    5.8286   -9.9523 H   0  0  0  0  0  0  0  0  0  0  0  0
   10.8673    6.4603  -11.5370 H   0  0  0  0  0  0  0  0  0  0  0  0
   10.7426    8.7909  -10.5823 H   0  0  0  0  0  0  0  0  0  0  0  0
    9.2007    9.3689  -10.0107 H   0  0  0  0  0  0  0  0  0  0  0  0
    9.7293    6.2379   -7.8916 H   0  0  0  0  0  0  0  0  0  0  0  0
   10.7951    6.0186   -5.0246 H   0  0  0  0  0  0  0  0  0  0  0  0
   11.9092    7.3374   -3.2453 H   0  0  0  0  0  0  0  0  0  0  0  0
   12.5691    9.7047   -3.6507 H   0  0  0  0  0  0  0  0  0  0  0  0
   12.1260   10.7491   -5.8875 H   0  0  0  0  0  0  0  0  0  0  0  0
    7.9031    8.6305  -11.8130 H   0  0  0  0  0  0  0  0  0  0  0  0
    9.3327    8.0785  -12.6444 H   0  0  0  0  0  0  0  0  0  0  0  0
    7.2847    6.9283  -13.4468 H   0  0  0  0  0  0  0  0  0  0  0  0
    6.9439    6.2959  -11.8467 H   0  0  0  0  0  0  0  0  0  0  0  0
    8.3986    7.1165  -10.0632 H   0  0  0  0  0  0  0  0  0  0  0  0
  2  1  1  0
  3  2  1  0
  4  3  1  0
  5  4  1  0
  6  5  2  0
  7  6  1  0
  8  7  2  0
  9  8  1  0
 10  5  1  0
 10  9  2  0
 11 10  1  0
 12 11  1  0
 13 12  1  0
 14 13  1  0
 15 14  1  0
 16 15  1  0
 17 16  1  0
 18 17  2  0
 19 18  1  0
 20 19  2  0
 21 20  1  0
 22 21  2  0
 23 22  1  0
 24 19  1  0
 24 23  2  0
 25 17  1  0
 25 24  1  0
 26 15  1  0
 27 12  1  0
 27 26  1  0
 28  1  1  0
 29  1  1  0
 30  1  1  0
 31  2  1  0
 32  2  1  0
 33  3  1  0
 34  3  1  0
 35  6  1  0
 36  7  1  0
 37  8  1  0
 38  9  1  0
 39 11  1  0
 40 11  1  0
 41 13  1  0
 42 13  1  0
 43 14  1  0
 44 14  1  0
 45 16  1  0
 46 16  1  0
 47 18  1  0
 48 20  1  0
 49 21  1  0
 50 22  1  0
 51 23  1  0
 52 26  1  0
 53 26  1  0
 54 27  1  0
 55 27  1  0
 56 15  1  0
M  CHG  1  15   1
M  END
>  <b_m_subgroup_collapsed>  (638) 
0

>  <r_i_docking_score>  (638) 
-7.6204927986333901

>  <s_m_subgroup_title>  (638) 
glide-dock_SP_D22_pv

>  <s_m_subgroupid>  (638) 
glide-dock_SP_D22_pv

>  <Molecule ChEMBL ID>  (638) 
CHEMBL1215037

>  <Standard Type>  (638) 
Ki

>  <Standard Value>  (638) 
10000.0

>  <label>  (638) 
0

$$$$
CHEMBL3897499
     RDKit          3D

 62 66  0  0  1  0  0  0  0  0999 V2000
    7.6841   -0.1544  -14.2482 C   0  0  0  0  0  0  0  0  0  0  0  0
    7.1804    0.9952  -15.1230 C   0  0  0  0  0  0  0  0  0  0  0  0
    8.2863    2.0033  -15.5060 C   0  0  0  0  0  0  0  0  0  0  0  0
    8.8156    2.8619  -14.3970 N   0  0  2  0  0  0  0  0  0  0  0  0
    7.7262    3.6136  -13.7167 C   0  0  0  0  0  0  0  0  0  0  0  0
    8.2363    4.4538  -12.5514 C   0  0  0  0  0  0  0  0  0  0  0  0
    9.2962    5.4747  -13.0027 C   0  0  1  0  0  0  0  0  0  0  0  0
    9.8351    6.3400  -11.8643 C   0  0  0  0  0  0  0  0  0  0  0  0
    9.1267    6.4705  -10.6487 C   0  0  0  0  0  0  0  0  0  0  0  0
    9.7102    7.1505   -9.5693 C   0  0  0  0  0  0  0  0  0  0  0  0
    9.0453    7.1905   -8.3309 C   0  0  0  0  0  0  0  0  0  0  0  0
    9.6140    7.8724   -7.2462 C   0  0  0  0  0  0  0  0  0  0  0  0
   10.8614    8.5061   -7.3948 C   0  0  0  0  0  0  0  0  0  0  0  0
   11.4634    9.2236   -6.1985 C   0  0  0  0  0  0  0  0  0  0  0  0
   12.7671    9.3857   -6.3682 F   0  0  0  0  0  0  0  0  0  0  0  0
   10.8940   10.4178   -6.0473 F   0  0  0  0  0  0  0  0  0  0  0  0
   11.2762    8.5154   -5.0846 F   0  0  0  0  0  0  0  0  0  0  0  0
   11.5286    8.4539   -8.6444 C   0  0  0  0  0  0  0  0  0  0  0  0
   10.9701    7.7671   -9.7444 C   0  0  0  0  0  0  0  0  0  0  0  0
   11.6339    7.6660  -10.9176 N   0  0  0  0  0  0  0  0  0  0  0  0
   11.1011    6.9724  -11.9548 C   0  0  0  0  0  0  0  0  0  0  0  0
   12.0667    6.6922  -13.1231 C   0  0  2  0  0  0  0  0  0  0  0  0
   12.6877    7.9466  -13.8105 C   0  0  0  0  0  0  0  0  0  0  0  0
   13.6861    8.7740  -12.9586 C   0  0  0  0  0  0  0  0  0  0  0  0
   11.5388    5.6797  -14.1868 C   0  0  1  0  0  0  0  0  0  0  0  0
   12.7065    4.8568  -14.7772 C   0  0  0  0  0  0  0  0  0  0  0  0
   12.2371    3.9518  -15.9141 C   0  0  0  0  0  0  0  0  0  0  0  0
   11.1219    3.0107  -15.4498 C   0  0  0  0  0  0  0  0  0  0  0  0
    9.9204    3.7829  -14.8414 C   0  0  2  0  0  0  0  0  0  0  0  0
   10.4375    4.7050  -13.6862 C   0  0  2  0  0  0  0  0  0  0  0  0
    6.9148   -0.9174  -14.1250 H   0  0  0  0  0  0  0  0  0  0  0  0
    7.9839    0.1739  -13.2559 H   0  0  0  0  0  0  0  0  0  0  0  0
    8.5457   -0.6277  -14.7162 H   0  0  0  0  0  0  0  0  0  0  0  0
    6.8083    0.5535  -16.0483 H   0  0  0  0  0  0  0  0  0  0  0  0
    6.3055    1.4654  -14.6793 H   0  0  0  0  0  0  0  0  0  0  0  0
    9.0842    1.4044  -15.9390 H   0  0  0  0  0  0  0  0  0  0  0  0
    7.9196    2.6406  -16.3107 H   0  0  0  0  0  0  0  0  0  0  0  0
    7.2107    4.2540  -14.4297 H   0  0  0  0  0  0  0  0  0  0  0  0
    6.9769    2.9390  -13.3086 H   0  0  0  0  0  0  0  0  0  0  0  0
    7.3682    4.9568  -12.1248 H   0  0  0  0  0  0  0  0  0  0  0  0
    8.6431    3.7974  -11.7800 H   0  0  0  0  0  0  0  0  0  0  0  0
    8.8326    6.1526  -13.7204 H   0  0  0  0  0  0  0  0  0  0  0  0
    8.1544    6.0277  -10.4956 H   0  0  0  0  0  0  0  0  0  0  0  0
    8.0864    6.7061   -8.2093 H   0  0  0  0  0  0  0  0  0  0  0  0
    9.0879    7.9047   -6.3024 H   0  0  0  0  0  0  0  0  0  0  0  0
   12.4905    8.9323   -8.7701 H   0  0  0  0  0  0  0  0  0  0  0  0
   12.8860    6.1733  -12.6385 H   0  0  0  0  0  0  0  0  0  0  0  0
   13.2614    7.6217  -14.6767 H   0  0  0  0  0  0  0  0  0  0  0  0
   11.9094    8.5713  -14.2468 H   0  0  0  0  0  0  0  0  0  0  0  0
   14.0860    9.6156  -13.5199 H   0  0  0  0  0  0  0  0  0  0  0  0
   14.5342    8.1725  -12.6463 H   0  0  0  0  0  0  0  0  0  0  0  0
   13.2729    9.2016  -12.0511 H   0  0  0  0  0  0  0  0  0  0  0  0
   11.0867    6.2638  -14.9900 H   0  0  0  0  0  0  0  0  0  0  0  0
   13.4967    5.5046  -15.1548 H   0  0  0  0  0  0  0  0  0  0  0  0
   13.1675    4.2505  -13.9964 H   0  0  0  0  0  0  0  0  0  0  0  0
   11.8827    4.5627  -16.7453 H   0  0  0  0  0  0  0  0  0  0  0  0
   13.0772    3.3703  -16.2952 H   0  0  0  0  0  0  0  0  0  0  0  0
   10.8361    2.4327  -16.3260 H   0  0  0  0  0  0  0  0  0  0  0  0
   11.5185    2.3045  -14.7188 H   0  0  0  0  0  0  0  0  0  0  0  0
    9.5040    4.4267  -15.6199 H   0  0  0  0  0  0  0  0  0  0  0  0
   10.8861    4.0604  -12.9290 H   0  0  0  0  0  0  0  0  0  0  0  0
    9.2148    2.2404  -13.7050 H   0  0  0  0  0  0  0  0  0  0  0  0
  2  1  1  0
  3  2  1  0
  4  3  1  0
  5  4  1  0
  6  5  1  0
  7  6  1  0
  8  7  1  0
  9  8  2  0
 10  9  1  0
 11 10  2  0
 12 11  1  0
 13 12  2  0
 14 13  1  0
 15 14  1  0
 16 14  1  0
 17 14  1  0
 18 13  1  0
 19 10  1  0
 19 18  2  0
 20 19  1  0
 21  8  1  0
 21 20  2  0
 22 21  1  0
 23 22  1  0
 24 23  1  0
 25 22  1  0
 26 25  1  0
 27 26  1  0
 28 27  1  0
 29  4  1  0
 29 28  1  0
 30  7  1  0
 30 25  1  0
 30 29  1  0
 31  1  1  0
 32  1  1  0
 33  1  1  0
 34  2  1  0
 35  2  1  0
 36  3  1  0
 37  3  1  0
 38  5  1  0
 39  5  1  0
 40  6  1  0
 41  6  1  0
  7 42  1  6
 43  9  1  0
 44 11  1  0
 45 12  1  0
 46 18  1  0
 22 47  1  1
 48 23  1  0
 49 23  1  0
 50 24  1  0
 51 24  1  0
 52 24  1  0
 25 53  1  6
 54 26  1  0
 55 26  1  0
 56 27  1  0
 57 27  1  0
 58 28  1  0
 59 28  1  0
 29 60  1  6
 30 61  1  1
  4 62  1  1
M  CHG  1   4   1
M  END
>  <b_m_subgroup_collapsed>  (639) 
0

>  <r_i_docking_score>  (639) 
-7.6196568635873101

>  <s_m_subgroup_title>  (639) 
glide-dock_SP_D22_pv

>  <s_m_subgroupid>  (639) 
glide-dock_SP_D22_pv

>  <Molecule ChEMBL ID>  (639) 
CHEMBL3897499

>  <Standard Type>  (639) 
Ki

>  <Standard Value>  (639) 
10000.0

>  <label>  (639) 
0

$$$$
CHEMBL381912
     RDKit          3D

 46 50  0  0  1  0  0  0  0  0999 V2000
   12.2841    4.8747  -14.4290 C   0  0  0  0  0  0  0  0  0  0  0  0
   12.3215    6.2098  -13.9971 C   0  0  0  0  0  0  0  0  0  0  0  0
   11.2864    6.7244  -13.1961 C   0  0  0  0  0  0  0  0  0  0  0  0
   10.1752    5.9314  -12.8139 C   0  0  0  0  0  0  0  0  0  0  0  0
    8.9859    6.5580  -12.0310 C   0  0  1  0  0  0  0  0  0  0  0  0
    7.7869    5.6089  -11.8469 C   0  0  0  0  0  0  0  0  0  0  0  0
    8.0934    4.5723  -10.7611 C   0  0  0  0  0  0  0  0  0  0  0  0
    8.4940    5.2035   -9.4243 C   0  0  0  0  0  0  0  0  0  0  0  0
    9.6685    6.1414   -9.6480 C   0  0  2  0  0  0  0  0  0  0  0  0
   10.1297    6.8146   -8.3880 C   0  0  0  0  0  0  0  0  0  0  0  0
   10.4363    6.1756   -7.2046 N   0  0  0  0  0  0  0  0  0  0  0  0
   10.8686    7.0830   -6.2575 C   0  0  0  0  0  0  0  0  0  0  0  0
   11.2861    6.9251   -4.9254 C   0  0  0  0  0  0  0  0  0  0  0  0
   11.6943    8.0499   -4.1902 C   0  0  0  0  0  0  0  0  0  0  0  0
   11.6781    9.3200   -4.7934 C   0  0  0  0  0  0  0  0  0  0  0  0
   11.2546    9.4743   -6.1310 C   0  0  0  0  0  0  0  0  0  0  0  0
   10.8378    8.3583   -6.8965 C   0  0  0  0  0  0  0  0  0  0  0  0
   10.3663    8.1496   -8.2391 C   0  0  0  0  0  0  0  0  0  0  0  0
   10.1362    9.0908   -9.3681 C   0  0  0  0  0  0  0  0  0  0  0  0
   10.1911    8.3259  -10.6968 C   0  0  0  0  0  0  0  0  0  0  0  0
    9.2930    7.1454  -10.6866 N   0  0  1  0  0  0  0  0  0  0  0  0
   10.1450    4.5942  -13.2961 C   0  0  0  0  0  0  0  0  0  0  0  0
   11.1900    4.0683  -14.0795 C   0  0  0  0  0  0  0  0  0  0  0  0
   13.0813    4.4776  -15.0407 H   0  0  0  0  0  0  0  0  0  0  0  0
   13.1488    6.8430  -14.2837 H   0  0  0  0  0  0  0  0  0  0  0  0
   11.3389    7.7706  -12.9503 H   0  0  0  0  0  0  0  0  0  0  0  0
    8.6249    7.3809  -12.6479 H   0  0  0  0  0  0  0  0  0  0  0  0
    6.9095    6.1722  -11.5326 H   0  0  0  0  0  0  0  0  0  0  0  0
    7.4953    5.1391  -12.7863 H   0  0  0  0  0  0  0  0  0  0  0  0
    7.2566    3.8915  -10.6430 H   0  0  0  0  0  0  0  0  0  0  0  0
    8.9264    3.9425  -11.0602 H   0  0  0  0  0  0  0  0  0  0  0  0
    7.6842    5.7739   -8.9840 H   0  0  0  0  0  0  0  0  0  0  0  0
    8.7497    4.4210   -8.7087 H   0  0  0  0  0  0  0  0  0  0  0  0
   10.4862    5.5483  -10.0383 H   0  0  0  0  0  0  0  0  0  0  0  0
   10.3363    5.1815   -7.0620 H   0  0  0  0  0  0  0  0  0  0  0  0
   11.2930    5.9455   -4.4699 H   0  0  0  0  0  0  0  0  0  0  0  0
   12.0183    7.9400   -3.1652 H   0  0  0  0  0  0  0  0  0  0  0  0
   11.9943   10.1723   -4.2161 H   0  0  0  0  0  0  0  0  0  0  0  0
   11.2500   10.4571   -6.5781 H   0  0  0  0  0  0  0  0  0  0  0  0
    9.1632    9.5695   -9.2583 H   0  0  0  0  0  0  0  0  0  0  0  0
   10.8892    9.8790   -9.3736 H   0  0  0  0  0  0  0  0  0  0  0  0
    9.9146    8.9732  -11.5235 H   0  0  0  0  0  0  0  0  0  0  0  0
   11.2204    8.0014  -10.8462 H   0  0  0  0  0  0  0  0  0  0  0  0
    9.3130    3.9339  -13.1168 H   0  0  0  0  0  0  0  0  0  0  0  0
   11.1414    3.0466  -14.4275 H   0  0  0  0  0  0  0  0  0  0  0  0
    8.3891    7.4987  -10.3746 H   0  0  0  0  0  0  0  0  0  0  0  0
  2  1  2  0
  3  2  1  0
  4  3  2  0
  5  4  1  0
  6  5  1  0
  7  6  1  0
  8  7  1  0
  9  8  1  0
 10  9  1  0
 11 10  1  0
 12 11  1  0
 13 12  2  0
 14 13  1  0
 15 14  2  0
 16 15  1  0
 17 12  1  0
 17 16  2  0
 18 10  2  0
 18 17  1  0
 19 18  1  0
 20 19  1  0
 21  5  1  0
 21  9  1  0
 21 20  1  0
 22  4  1  0
 23  1  1  0
 23 22  2  0
 24  1  1  0
 25  2  1  0
 26  3  1  0
  5 27  1  6
 28  6  1  0
 29  6  1  0
 30  7  1  0
 31  7  1  0
 32  8  1  0
 33  8  1  0
  9 34  1  6
 35 11  1  0
 36 13  1  0
 37 14  1  0
 38 15  1  0
 39 16  1  0
 40 19  1  0
 41 19  1  0
 42 20  1  0
 43 20  1  0
 44 22  1  0
 45 23  1  0
 21 46  1  1
M  CHG  1  21   1
M  END
>  <b_m_subgroup_collapsed>  (640) 
0

>  <r_i_docking_score>  (640) 
-7.61905783807092

>  <s_m_subgroup_title>  (640) 
glide-dock_SP_D22_pv

>  <s_m_subgroupid>  (640) 
glide-dock_SP_D22_pv

>  <Molecule ChEMBL ID>  (640) 
CHEMBL381912

>  <Standard Type>  (640) 
Ki

>  <Standard Value>  (640) 
10000.0

>  <label>  (640) 
0

$$$$
CHEMBL5904436
     RDKit          3D

 76 81  0  0  1  0  0  0  0  0999 V2000
    4.8870   -3.5896  -17.7320 C   0  0  0  0  0  0  0  0  0  0  0  0
    5.9003   -2.7495  -18.3257 N   0  0  0  0  0  0  0  0  0  0  0  0
    6.3928   -1.5443  -17.8473 C   0  0  0  0  0  0  0  0  0  0  0  0
    7.3542   -1.1486  -18.7631 C   0  0  0  0  0  0  0  0  0  0  0  0
    8.1974   -0.0182  -18.8191 C   0  0  0  0  0  0  0  0  0  0  0  0
    8.1699    1.0427  -17.7622 C   0  0  0  0  0  0  0  0  0  0  0  0
    8.0862    2.2296  -18.0799 O   0  0  0  0  0  0  0  0  0  0  0  0
    8.2490    0.5987  -16.4930 N   0  0  0  0  0  0  0  0  0  0  0  0
    8.1419    1.3868  -15.2616 C   0  0  1  0  0  0  0  0  0  0  0  0
    9.2454    2.4544  -15.1454 C   0  0  0  0  0  0  0  0  0  0  0  0
    9.1165    3.2422  -13.8355 C   0  0  0  0  0  0  0  0  0  0  0  0
    7.7375    3.9332  -13.7126 C   0  0  2  0  0  0  0  0  0  0  0  0
    7.5862    4.7157  -12.3890 C   0  0  0  0  0  0  0  0  0  0  0  0
    8.4589    5.9895  -12.3326 C   0  0  0  0  0  0  0  0  0  0  0  0
    8.4861    6.6717  -11.0136 N   0  0  1  0  0  0  0  0  0  0  0  0
    9.1734    5.8796   -9.9595 C   0  0  0  0  0  0  0  0  0  0  0  0
    9.0944    6.5567   -8.5831 C   0  0  0  0  0  0  0  0  0  0  0  0
    9.5103    8.0371   -8.5784 C   0  0  1  0  0  0  0  0  0  0  0  0
   10.9778    8.1956   -8.4170 C   0  0  0  0  0  0  0  0  0  0  0  0
   11.7545    7.7732   -9.4050 N   0  0  0  0  0  0  0  0  0  0  0  0
   13.0458    8.1346   -9.0529 O   0  0  0  0  0  0  0  0  0  0  0  0
   12.9700    8.7283   -7.8473 C   0  0  0  0  0  0  0  0  0  0  0  0
   11.7076    8.8105   -7.3621 C   0  0  0  0  0  0  0  0  0  0  0  0
   11.2799    9.4370   -6.0564 C   0  0  0  0  0  0  0  0  0  0  0  0
   11.1917   10.7528   -6.2456 F   0  0  0  0  0  0  0  0  0  0  0  0
   10.0888    8.9780   -5.6909 F   0  0  0  0  0  0  0  0  0  0  0  0
   12.2875    9.1912   -4.9394 C   0  0  0  0  0  0  0  0  0  0  0  0
   11.9134    9.3545   -3.4843 C   0  0  0  0  0  0  0  0  0  0  0  0
   12.1842    7.9775   -4.0392 C   0  0  0  0  0  0  0  0  0  0  0  0
    9.0642    8.8395   -9.8053 C   0  0  0  0  0  0  0  0  0  0  0  0
    9.0891    8.0342  -11.1298 C   0  0  0  0  0  0  0  0  0  0  0  0
    6.5873    2.9109  -13.8798 C   0  0  0  0  0  0  0  0  0  0  0  0
    6.7391    2.0036  -15.1138 C   0  0  0  0  0  0  0  0  0  0  0  0
    9.0379    0.1164  -19.9511 C   0  0  0  0  0  0  0  0  0  0  0  0
    9.0528   -0.8735  -20.9631 C   0  0  0  0  0  0  0  0  0  0  0  0
    8.2145   -2.0061  -20.8679 C   0  0  0  0  0  0  0  0  0  0  0  0
    7.3710   -2.1165  -19.7499 C   0  0  0  0  0  0  0  0  0  0  0  0
    6.5030   -3.1183  -19.5123 N   0  0  0  0  0  0  0  0  0  0  0  0
    4.4860   -3.0953  -16.8464 H   0  0  0  0  0  0  0  0  0  0  0  0
    4.0763   -3.7596  -18.4396 H   0  0  0  0  0  0  0  0  0  0  0  0
    5.3191   -4.5469  -17.4426 H   0  0  0  0  0  0  0  0  0  0  0  0
    6.0145   -1.1239  -16.9276 H   0  0  0  0  0  0  0  0  0  0  0  0
    8.3350   -0.4020  -16.3715 H   0  0  0  0  0  0  0  0  0  0  0  0
    8.2822    0.6834  -14.4396 H   0  0  0  0  0  0  0  0  0  0  0  0
    9.2007    3.1557  -15.9782 H   0  0  0  0  0  0  0  0  0  0  0  0
   10.2272    1.9814  -15.1935 H   0  0  0  0  0  0  0  0  0  0  0  0
    9.9206    3.9752  -13.8014 H   0  0  0  0  0  0  0  0  0  0  0  0
    9.2895    2.5733  -12.9942 H   0  0  0  0  0  0  0  0  0  0  0  0
    7.6666    4.6508  -14.5295 H   0  0  0  0  0  0  0  0  0  0  0  0
    7.8089    4.0358  -11.5710 H   0  0  0  0  0  0  0  0  0  0  0  0
    6.5450    5.0113  -12.2513 H   0  0  0  0  0  0  0  0  0  0  0  0
    8.0647    6.6916  -13.0654 H   0  0  0  0  0  0  0  0  0  0  0  0
    9.4870    5.7784  -12.6259 H   0  0  0  0  0  0  0  0  0  0  0  0
    8.7302    4.8910   -9.8589 H   0  0  0  0  0  0  0  0  0  0  0  0
   10.2124    5.7243  -10.2451 H   0  0  0  0  0  0  0  0  0  0  0  0
    9.6829    5.9984   -7.8534 H   0  0  0  0  0  0  0  0  0  0  0  0
    8.0811    6.4840   -8.2194 H   0  0  0  0  0  0  0  0  0  0  0  0
    9.0213    8.4971   -7.7225 H   0  0  0  0  0  0  0  0  0  0  0  0
   13.9301    8.9956   -7.4468 H   0  0  0  0  0  0  0  0  0  0  0  0
   13.2914    9.5347   -5.1769 H   0  0  0  0  0  0  0  0  0  0  0  0
   12.6598    9.7722   -2.8122 H   0  0  0  0  0  0  0  0  0  0  0  0
   10.8855    9.6217   -3.2531 H   0  0  0  0  0  0  0  0  0  0  0  0
   11.3338    7.3125   -4.1760 H   0  0  0  0  0  0  0  0  0  0  0  0
   13.1097    7.4924   -3.7338 H   0  0  0  0  0  0  0  0  0  0  0  0
    8.0846    9.2363   -9.6222 H   0  0  0  0  0  0  0  0  0  0  0  0
    9.6564    9.7559   -9.8564 H   0  0  0  0  0  0  0  0  0  0  0  0
    8.5528    8.6059  -11.8885 H   0  0  0  0  0  0  0  0  0  0  0  0
   10.1134    7.9410  -11.4901 H   0  0  0  0  0  0  0  0  0  0  0  0
    6.4861    2.2826  -12.9971 H   0  0  0  0  0  0  0  0  0  0  0  0
    5.6392    3.4437  -13.9494 H   0  0  0  0  0  0  0  0  0  0  0  0
    6.4871    2.5728  -16.0050 H   0  0  0  0  0  0  0  0  0  0  0  0
    6.0095    1.1963  -15.0524 H   0  0  0  0  0  0  0  0  0  0  0  0
    9.6816    0.9800  -20.0464 H   0  0  0  0  0  0  0  0  0  0  0  0
    9.7054   -0.7619  -21.8165 H   0  0  0  0  0  0  0  0  0  0  0  0
    8.2168   -2.7666  -21.6345 H   0  0  0  0  0  0  0  0  0  0  0  0
    7.5253    6.8627  -10.7031 H   0  0  0  0  0  0  0  0  0  0  0  0
  2  1  1  0
  3  2  1  0
  4  3  2  0
  5  4  1  0
  6  5  1  0
  7  6  2  0
  8  6  1  0
  9  8  1  0
 10  9  1  0
 11 10  1  0
 12 11  1  0
 13 12  1  0
 14 13  1  0
 15 14  1  0
 16 15  1  0
 17 16  1  0
 18 17  1  0
 19 18  1  0
 20 19  2  0
 21 20  1  0
 22 21  1  0
 23 19  1  0
 23 22  2  0
 24 23  1  0
 25 24  1  0
 26 24  1  0
 27 24  1  0
 28 27  1  0
 29 27  1  0
 29 28  1  0
 30 18  1  0
 31 15  1  0
 31 30  1  0
 32 12  1  0
 33  9  1  0
 33 32  1  0
 34  5  2  0
 35 34  1  0
 36 35  2  0
 37  4  1  0
 37 36  1  0
 38  2  1  0
 38 37  2  0
 39  1  1  0
 40  1  1  0
 41  1  1  0
 42  3  1  0
 43  8  1  0
  9 44  1  1
 45 10  1  0
 46 10  1  0
 47 11  1  0
 48 11  1  0
 12 49  1  6
 50 13  1  0
 51 13  1  0
 52 14  1  0
 53 14  1  0
 54 16  1  0
 55 16  1  0
 56 17  1  0
 57 17  1  0
 18 58  1  1
 59 22  1  0
 60 27  1  0
 61 28  1  0
 62 28  1  0
 63 29  1  0
 64 29  1  0
 65 30  1  0
 66 30  1  0
 67 31  1  0
 68 31  1  0
 69 32  1  0
 70 32  1  0
 71 33  1  0
 72 33  1  0
 73 34  1  0
 74 35  1  0
 75 36  1  0
 15 76  1  1
M  CHG  1  15   1
M  END
>  <b_m_subgroup_collapsed>  (641) 
0

>  <r_i_docking_score>  (641) 
-7.6183317642024599

>  <s_m_subgroup_title>  (641) 
glide-dock_SP_D22_pv

>  <s_m_subgroupid>  (641) 
glide-dock_SP_D22_pv

>  <Molecule ChEMBL ID>  (641) 
CHEMBL5904436

>  <Standard Type>  (641) 
Ki

>  <Standard Value>  (641) 
45.0

>  <label>  (641) 
1

$$$$
CHEMBL4100699
     RDKit          3D

 73 77  0  0  1  0  0  0  0  0999 V2000
   13.0042    8.8529   -1.5072 C   0  0  0  0  0  0  0  0  0  0  0  0
   12.4839    7.7140   -2.1634 O   0  0  0  0  0  0  0  0  0  0  0  0
   11.9665    7.9058   -3.4224 C   0  0  0  0  0  0  0  0  0  0  0  0
   11.6891    9.1740   -3.9885 C   0  0  0  0  0  0  0  0  0  0  0  0
   11.1517    9.2732   -5.2862 C   0  0  0  0  0  0  0  0  0  0  0  0
   10.8777    8.1123   -6.0475 C   0  0  0  0  0  0  0  0  0  0  0  0
   10.3078    8.1985   -7.3332 N   0  0  0  0  0  0  0  0  0  0  0  0
    9.5294    7.1079   -7.9112 C   0  0  0  0  0  0  0  0  0  0  0  0
   10.2420    6.5905   -9.1693 C   0  0  0  0  0  0  0  0  0  0  0  0
   10.4590    7.7147  -10.2288 C   0  0  0  0  0  0  0  0  0  0  0  0
    9.1388    8.1970  -10.8628 C   0  0  0  0  0  0  0  0  0  0  0  0
    8.4051    7.0627  -11.6098 C   0  0  0  0  0  0  0  0  0  0  0  0
    9.2292    6.4040  -12.6469 N   0  0  0  0  0  0  0  0  0  0  0  0
    8.5357    5.2220  -13.2227 C   0  0  0  0  0  0  0  0  0  0  0  0
    9.2563    4.6116  -14.4431 C   0  0  0  0  0  0  0  0  0  0  0  0
   10.1612    3.4035  -14.1278 C   0  0  0  0  0  0  0  0  0  0  0  0
   10.8922    2.6937  -15.6340 S   0  0  0  0  0  0  0  0  0  0  0  0
    9.4127    2.0834  -16.3709 C   0  0  0  0  0  0  0  0  0  0  0  0
    8.8541    2.6407  -17.4426 N   0  0  0  0  0  0  0  0  0  0  0  0
    7.6857    1.9467  -17.6423 N   0  0  0  0  0  0  0  0  0  0  0  0
    7.6239    1.0209  -16.6760 C   0  0  0  0  0  0  0  0  0  0  0  0
    6.4637    0.1318  -16.5574 C   0  0  0  0  0  0  0  0  0  0  0  0
    5.8430   -0.3658  -17.7261 C   0  0  0  0  0  0  0  0  0  0  0  0
    4.6981   -1.1821  -17.6385 C   0  0  0  0  0  0  0  0  0  0  0  0
    4.1631   -1.5118  -16.3799 C   0  0  0  0  0  0  0  0  0  0  0  0
    4.7763   -1.0266  -15.2104 C   0  0  0  0  0  0  0  0  0  0  0  0
    5.9183   -0.2061  -15.2968 C   0  0  0  0  0  0  0  0  0  0  0  0
    8.7169    1.0422  -15.8734 N   0  0  0  0  0  0  0  0  0  0  0  0
    9.0759    0.1726  -14.7652 C   0  0  0  0  0  0  0  0  0  0  0  0
   10.5956    6.0849  -12.1939 C   0  0  0  0  0  0  0  0  0  0  0  0
   11.2858    7.2319  -11.4277 C   0  0  0  0  0  0  0  0  0  0  0  0
   11.2268    8.8669   -9.5297 C   0  0  0  0  0  0  0  0  0  0  0  0
   10.5701    9.3253   -8.2160 C   0  0  0  0  0  0  0  0  0  0  0  0
   11.1688    6.8552   -5.4750 C   0  0  0  0  0  0  0  0  0  0  0  0
   11.6860    6.7535   -4.1739 C   0  0  0  0  0  0  0  0  0  0  0  0
   13.5921    8.5468   -0.6469 H   0  0  0  0  0  0  0  0  0  0  0  0
   13.6860    9.3723   -2.1727 H   0  0  0  0  0  0  0  0  0  0  0  0
   12.2137    9.5271   -1.1747 H   0  0  0  0  0  0  0  0  0  0  0  0
   11.8617   10.0866   -3.4387 H   0  0  0  0  0  0  0  0  0  0  0  0
   10.9215   10.2549   -5.6693 H   0  0  0  0  0  0  0  0  0  0  0  0
    8.5392    7.4861   -8.1674 H   0  0  0  0  0  0  0  0  0  0  0  0
    9.3427    6.2971   -7.2097 H   0  0  0  0  0  0  0  0  0  0  0  0
    9.6808    5.7437   -9.5601 H   0  0  0  0  0  0  0  0  0  0  0  0
   11.2069    6.1859   -8.8676 H   0  0  0  0  0  0  0  0  0  0  0  0
    9.3354    9.0033  -11.5683 H   0  0  0  0  0  0  0  0  0  0  0  0
    8.4861    8.6286  -10.1064 H   0  0  0  0  0  0  0  0  0  0  0  0
    7.5278    7.4703  -12.1134 H   0  0  0  0  0  0  0  0  0  0  0  0
    8.0431    6.3158  -10.9028 H   0  0  0  0  0  0  0  0  0  0  0  0
    7.5409    5.5422  -13.5312 H   0  0  0  0  0  0  0  0  0  0  0  0
    8.3706    4.4626  -12.4571 H   0  0  0  0  0  0  0  0  0  0  0  0
    9.8053    5.3737  -14.9979 H   0  0  0  0  0  0  0  0  0  0  0  0
    8.4861    4.2626  -15.1212 H   0  0  0  0  0  0  0  0  0  0  0  0
    9.5980    2.6352  -13.5994 H   0  0  0  0  0  0  0  0  0  0  0  0
   10.9824    3.6786  -13.4706 H   0  0  0  0  0  0  0  0  0  0  0  0
    6.2388   -0.1160  -18.6994 H   0  0  0  0  0  0  0  0  0  0  0  0
    4.2276   -1.5560  -18.5363 H   0  0  0  0  0  0  0  0  0  0  0  0
    3.2894   -2.1456  -16.3122 H   0  0  0  0  0  0  0  0  0  0  0  0
    4.3651   -1.2825  -14.2466 H   0  0  0  0  0  0  0  0  0  0  0  0
    6.3534    0.1773  -14.3881 H   0  0  0  0  0  0  0  0  0  0  0  0
   10.1385    0.2467  -14.5374 H   0  0  0  0  0  0  0  0  0  0  0  0
    8.5086    0.4334  -13.8732 H   0  0  0  0  0  0  0  0  0  0  0  0
    8.8779   -0.8553  -15.0470 H   0  0  0  0  0  0  0  0  0  0  0  0
   10.4860    5.1957  -11.5748 H   0  0  0  0  0  0  0  0  0  0  0  0
   11.2221    5.8270  -13.0463 H   0  0  0  0  0  0  0  0  0  0  0  0
   11.4475    8.0560  -12.1165 H   0  0  0  0  0  0  0  0  0  0  0  0
   12.2904    6.9723  -11.1014 H   0  0  0  0  0  0  0  0  0  0  0  0
   12.2433    8.5399   -9.3010 H   0  0  0  0  0  0  0  0  0  0  0  0
   11.3378    9.7185  -10.2019 H   0  0  0  0  0  0  0  0  0  0  0  0
    9.6015    9.7723   -8.4297 H   0  0  0  0  0  0  0  0  0  0  0  0
   11.2159   10.0698   -7.7503 H   0  0  0  0  0  0  0  0  0  0  0  0
   11.0088    5.9415   -6.0225 H   0  0  0  0  0  0  0  0  0  0  0  0
   11.8902    5.7756   -3.7589 H   0  0  0  0  0  0  0  0  0  0  0  0
    9.3268    7.0836  -13.3857 H   0  0  0  0  0  0  0  0  0  0  0  0
  2  1  1  0
  3  2  1  0
  4  3  1  0
  5  4  2  0
  6  5  1  0
  7  6  1  0
  8  7  1  0
  9  8  1  0
 10  9  1  0
 11 10  1  0
 12 11  1  0
 13 12  1  0
 14 13  1  0
 15 14  1  0
 16 15  1  0
 17 16  1  0
 18 17  1  0
 19 18  2  0
 20 19  1  0
 21 20  2  0
 22 21  1  0
 23 22  2  0
 24 23  1  0
 25 24  2  0
 26 25  1  0
 27 22  1  0
 27 26  2  0
 28 18  1  0
 28 21  1  0
 29 28  1  0
 30 13  1  0
 31 10  1  0
 31 30  1  0
 32 10  1  0
 33  7  1  0
 33 32  1  0
 34  6  2  0
 35  3  2  0
 35 34  1  0
 36  1  1  0
 37  1  1  0
 38  1  1  0
 39  4  1  0
 40  5  1  0
 41  8  1  0
 42  8  1  0
 43  9  1  0
 44  9  1  0
 45 11  1  0
 46 11  1  0
 47 12  1  0
 48 12  1  0
 49 14  1  0
 50 14  1  0
 51 15  1  0
 52 15  1  0
 53 16  1  0
 54 16  1  0
 55 23  1  0
 56 24  1  0
 57 25  1  0
 58 26  1  0
 59 27  1  0
 60 29  1  0
 61 29  1  0
 62 29  1  0
 63 30  1  0
 64 30  1  0
 65 31  1  0
 66 31  1  0
 67 32  1  0
 68 32  1  0
 69 33  1  0
 70 33  1  0
 71 34  1  0
 72 35  1  0
 73 13  1  0
M  CHG  1  13   1
M  END
>  <b_m_subgroup_collapsed>  (642) 
0

>  <r_i_docking_score>  (642) 
-7.6177755662790503

>  <s_m_subgroup_title>  (642) 
glide-dock_SP_D22_pv

>  <s_m_subgroupid>  (642) 
glide-dock_SP_D22_pv

>  <Molecule ChEMBL ID>  (642) 
CHEMBL4100699

>  <Standard Type>  (642) 
Ki

>  <Standard Value>  (642) 
104847.0

>  <label>  (642) 
0

$$$$
CHEMBL4591118
     RDKit          3D

 42 44  0  0  1  0  0  0  0  0999 V2000
    9.8708    5.6128  -12.5439 O   0  0  0  0  0  0  0  0  0  0  0  0
    8.9088    6.2484  -12.1187 C   0  0  0  0  0  0  0  0  0  0  0  0
    9.1725    7.5932  -11.4408 C   0  0  0  0  0  0  0  0  0  0  0  0
    9.2860    7.4939   -9.9617 N   0  0  0  0  0  0  0  0  0  0  0  0
   10.3745    6.5980   -9.4868 C   0  0  0  0  0  0  0  0  0  0  0  0
   10.4104    6.5068   -7.9562 C   0  0  0  0  0  0  0  0  0  0  0  0
   10.4597    7.8324   -7.3483 N   0  0  0  0  0  0  0  0  0  0  0  0
   10.9196    7.9568   -6.0182 C   0  0  0  0  0  0  0  0  0  0  0  0
   11.2098    6.8233   -5.2199 C   0  0  0  0  0  0  0  0  0  0  0  0
   11.6912    6.9988   -3.9121 C   0  0  0  0  0  0  0  0  0  0  0  0
   11.8930    8.3041   -3.4398 C   0  0  0  0  0  0  0  0  0  0  0  0
   12.4860    8.5731   -1.8467 Cl  0  0  0  0  0  0  0  0  0  0  0  0
   11.5759    9.3769   -4.2916 C   0  0  0  0  0  0  0  0  0  0  0  0
   11.0970    9.2129   -5.5436 N   0  0  0  0  0  0  0  0  0  0  0  0
    9.4277    8.7654   -7.8001 C   0  0  0  0  0  0  0  0  0  0  0  0
    9.3595    8.8363   -9.3352 C   0  0  0  0  0  0  0  0  0  0  0  0
    7.6303    5.8330  -12.1774 N   0  0  0  0  0  0  0  0  0  0  0  0
    7.1361    4.6247  -12.7475 C   0  0  0  0  0  0  0  0  0  0  0  0
    5.8621    4.1716  -12.3503 C   0  0  0  0  0  0  0  0  0  0  0  0
    5.3505    2.9855  -12.9102 C   0  0  0  0  0  0  0  0  0  0  0  0
    6.1364    2.2914  -13.8468 C   0  0  0  0  0  0  0  0  0  0  0  0
    7.3473    2.7186  -14.2528 N   0  0  0  0  0  0  0  0  0  0  0  0
    7.8315    3.8582  -13.7170 C   0  0  0  0  0  0  0  0  0  0  0  0
   10.0870    8.0239  -11.8507 H   0  0  0  0  0  0  0  0  0  0  0  0
    8.3652    8.2782  -11.7051 H   0  0  0  0  0  0  0  0  0  0  0  0
   10.2488    5.5886   -9.8770 H   0  0  0  0  0  0  0  0  0  0  0  0
   11.3306    6.9705   -9.8593 H   0  0  0  0  0  0  0  0  0  0  0  0
    9.5319    5.9764   -7.5854 H   0  0  0  0  0  0  0  0  0  0  0  0
   11.2863    5.9212   -7.6784 H   0  0  0  0  0  0  0  0  0  0  0  0
   11.0620    5.8133   -5.5671 H   0  0  0  0  0  0  0  0  0  0  0  0
   11.9091    6.1462   -3.2860 H   0  0  0  0  0  0  0  0  0  0  0  0
   11.6865   10.3951   -3.9522 H   0  0  0  0  0  0  0  0  0  0  0  0
    8.4663    8.4512   -7.3907 H   0  0  0  0  0  0  0  0  0  0  0  0
    9.6184    9.7720   -7.4341 H   0  0  0  0  0  0  0  0  0  0  0  0
   10.2383    9.3615   -9.7129 H   0  0  0  0  0  0  0  0  0  0  0  0
    8.4854    9.4167   -9.6313 H   0  0  0  0  0  0  0  0  0  0  0  0
    6.9483    6.4106  -11.6930 H   0  0  0  0  0  0  0  0  0  0  0  0
    5.2850    4.7231  -11.6225 H   0  0  0  0  0  0  0  0  0  0  0  0
    4.3759    2.6098  -12.6401 H   0  0  0  0  0  0  0  0  0  0  0  0
    5.7769    1.3739  -14.2895 H   0  0  0  0  0  0  0  0  0  0  0  0
    8.7908    4.1553  -14.1091 H   0  0  0  0  0  0  0  0  0  0  0  0
    8.4008    7.1047   -9.6506 H   0  0  0  0  0  0  0  0  0  0  0  0
  2  1  2  0
  3  2  1  0
  4  3  1  0
  5  4  1  0
  6  5  1  0
  7  6  1  0
  8  7  1  0
  9  8  2  0
 10  9  1  0
 11 10  2  0
 12 11  1  0
 13 11  1  0
 14  8  1  0
 14 13  2  0
 15  7  1  0
 16  4  1  0
 16 15  1  0
 17  2  1  0
 18 17  1  0
 19 18  1  0
 20 19  2  0
 21 20  1  0
 22 21  2  0
 23 18  2  0
 23 22  1  0
 24  3  1  0
 25  3  1  0
 26  5  1  0
 27  5  1  0
 28  6  1  0
 29  6  1  0
 30  9  1  0
 31 10  1  0
 32 13  1  0
 33 15  1  0
 34 15  1  0
 35 16  1  0
 36 16  1  0
 37 17  1  0
 38 19  1  0
 39 20  1  0
 40 21  1  0
 41 23  1  0
 42  4  1  0
M  CHG  1   4   1
M  END
>  <b_m_subgroup_collapsed>  (643) 
0

>  <r_i_docking_score>  (643) 
-7.6166011347614999

>  <s_m_subgroup_title>  (643) 
glide-dock_SP_D22_pv

>  <s_m_subgroupid>  (643) 
glide-dock_SP_D22_pv

>  <Molecule ChEMBL ID>  (643) 
CHEMBL4591118

>  <Standard Type>  (643) 
Ki

>  <Standard Value>  (643) 
50000.0

>  <label>  (643) 
0

$$$$
CHEMBL1771111
     RDKit          3D

 71 75  0  0  1  0  0  0  0  0999 V2000
    5.2405    2.1128  -12.4145 C   0  0  0  0  0  0  0  0  0  0  0  0
    6.0857    1.5350  -13.3967 O   0  0  0  0  0  0  0  0  0  0  0  0
    5.5820    0.5724  -14.2444 C   0  0  0  0  0  0  0  0  0  0  0  0
    4.2284    0.1451  -14.1882 C   0  0  0  0  0  0  0  0  0  0  0  0
    3.7194   -0.7617  -15.1337 C   0  0  0  0  0  0  0  0  0  0  0  0
    4.5562   -1.2587  -16.1446 C   0  0  0  0  0  0  0  0  0  0  0  0
    5.9011   -0.8466  -16.2072 C   0  0  0  0  0  0  0  0  0  0  0  0
    6.4386    0.0493  -15.2545 C   0  0  0  0  0  0  0  0  0  0  0  0
    7.8052    0.4027  -15.3438 N   0  0  0  0  0  0  0  0  0  0  0  0
    8.6411    0.5546  -14.1598 C   0  0  0  0  0  0  0  0  0  0  0  0
    9.1013    2.0175  -14.0298 C   0  0  0  0  0  0  0  0  0  0  0  0
    9.7807    2.4502  -15.2758 N   0  0  0  0  0  0  0  0  0  0  0  0
   10.4499    3.7745  -15.1719 C   0  0  0  0  0  0  0  0  0  0  0  0
    9.5708    4.9063  -14.5841 C   0  0  0  0  0  0  0  0  0  0  0  0
    9.9725    5.3215  -13.1529 C   0  0  0  0  0  0  0  0  0  0  0  0
    8.9087    6.1679  -12.4192 C   0  0  0  0  0  0  0  0  0  0  0  0
    9.4191    6.7226  -11.1554 N   0  0  0  0  0  0  0  0  0  0  0  0
    9.7667    8.1513  -11.1582 C   0  0  0  0  0  0  0  0  0  0  0  0
   11.2827    8.3949  -10.9938 C   0  0  0  0  0  0  0  0  0  0  0  0
   11.9799    7.6273   -9.8834 C   0  0  0  0  0  0  0  0  0  0  0  0
   11.1061    7.4069   -8.6757 C   0  0  0  0  0  0  0  0  0  0  0  0
   11.5308    7.9431   -7.4462 C   0  0  0  0  0  0  0  0  0  0  0  0
   10.8377    7.6339   -6.2641 C   0  0  0  0  0  0  0  0  0  0  0  0
   11.3313    8.0566   -4.9703 C   0  0  0  0  0  0  0  0  0  0  0  0
   11.6861    7.2674   -3.9051 C   0  0  0  0  0  0  0  0  0  0  0  0
   12.1151    8.0267   -2.7807 C   0  0  0  0  0  0  0  0  0  0  0  0
   12.0859    9.3762   -3.0128 C   0  0  0  0  0  0  0  0  0  0  0  0
   11.5124    9.7530   -4.6149 S   0  0  0  0  0  0  0  0  0  0  0  0
    9.6857    6.8380   -6.3412 C   0  0  0  0  0  0  0  0  0  0  0  0
    9.2215    6.3437   -7.5675 C   0  0  0  0  0  0  0  0  0  0  0  0
    9.9336    6.6090   -8.7511 C   0  0  0  0  0  0  0  0  0  0  0  0
    9.4553    5.9686  -10.0298 C   0  0  0  0  0  0  0  0  0  0  0  0
    9.1023    4.7879  -10.0080 O   0  0  0  0  0  0  0  0  0  0  0  0
    8.9229    2.2848  -16.4807 C   0  0  0  0  0  0  0  0  0  0  0  0
    8.3777    0.8451  -16.6083 C   0  0  0  0  0  0  0  0  0  0  0  0
    5.7958    2.8642  -11.8529 H   0  0  0  0  0  0  0  0  0  0  0  0
    4.3826    2.6142  -12.8652 H   0  0  0  0  0  0  0  0  0  0  0  0
    4.8913    1.3621  -11.7031 H   0  0  0  0  0  0  0  0  0  0  0  0
    3.5412    0.5265  -13.4504 H   0  0  0  0  0  0  0  0  0  0  0  0
    2.6828   -1.0606  -15.0922 H   0  0  0  0  0  0  0  0  0  0  0  0
    4.1683   -1.9623  -16.8676 H   0  0  0  0  0  0  0  0  0  0  0  0
    6.5334   -1.2586  -16.9794 H   0  0  0  0  0  0  0  0  0  0  0  0
    9.5115   -0.0944  -14.2720 H   0  0  0  0  0  0  0  0  0  0  0  0
    8.1233    0.2014  -13.2661 H   0  0  0  0  0  0  0  0  0  0  0  0
    9.7678    2.1724  -13.1834 H   0  0  0  0  0  0  0  0  0  0  0  0
    8.2328    2.6457  -13.8449 H   0  0  0  0  0  0  0  0  0  0  0  0
   10.8082    4.0627  -16.1608 H   0  0  0  0  0  0  0  0  0  0  0  0
   11.3484    3.6582  -14.5659 H   0  0  0  0  0  0  0  0  0  0  0  0
    8.5101    4.6667  -14.6389 H   0  0  0  0  0  0  0  0  0  0  0  0
    9.6871    5.7723  -15.2298 H   0  0  0  0  0  0  0  0  0  0  0  0
   10.9137    5.8709  -13.1950 H   0  0  0  0  0  0  0  0  0  0  0  0
   10.1737    4.4319  -12.5556 H   0  0  0  0  0  0  0  0  0  0  0  0
    8.0279    5.5550  -12.2224 H   0  0  0  0  0  0  0  0  0  0  0  0
    8.5337    6.9705  -13.0487 H   0  0  0  0  0  0  0  0  0  0  0  0
    9.2130    8.6489  -10.3610 H   0  0  0  0  0  0  0  0  0  0  0  0
    9.4309    8.6446  -12.0713 H   0  0  0  0  0  0  0  0  0  0  0  0
   11.4320    9.4498  -10.7745 H   0  0  0  0  0  0  0  0  0  0  0  0
   11.8144    8.1720  -11.9131 H   0  0  0  0  0  0  0  0  0  0  0  0
   12.9075    8.1311   -9.6108 H   0  0  0  0  0  0  0  0  0  0  0  0
   12.2734    6.6514  -10.2469 H   0  0  0  0  0  0  0  0  0  0  0  0
   12.4300    8.5419   -7.3977 H   0  0  0  0  0  0  0  0  0  0  0  0
   11.6467    6.1878   -3.8953 H   0  0  0  0  0  0  0  0  0  0  0  0
   12.4285    7.5658   -1.8562 H   0  0  0  0  0  0  0  0  0  0  0  0
   12.3622   10.1720   -2.3376 H   0  0  0  0  0  0  0  0  0  0  0  0
    9.1606    6.5700   -5.4456 H   0  0  0  0  0  0  0  0  0  0  0  0
    8.3280    5.7367   -7.5908 H   0  0  0  0  0  0  0  0  0  0  0  0
    8.0857    2.9723  -16.4130 H   0  0  0  0  0  0  0  0  0  0  0  0
    9.4811    2.5464  -17.3807 H   0  0  0  0  0  0  0  0  0  0  0  0
    9.1803    0.1595  -16.8815 H   0  0  0  0  0  0  0  0  0  0  0  0
    7.6436    0.7990  -17.4122 H   0  0  0  0  0  0  0  0  0  0  0  0
   10.5294    1.7850  -15.4048 H   0  0  0  0  0  0  0  0  0  0  0  0
  2  1  1  0
  3  2  1  0
  4  3  2  0
  5  4  1  0
  6  5  2  0
  7  6  1  0
  8  3  1  0
  8  7  2  0
  9  8  1  0
 10  9  1  0
 11 10  1  0
 12 11  1  0
 13 12  1  0
 14 13  1  0
 15 14  1  0
 16 15  1  0
 17 16  1  0
 18 17  1  0
 19 18  1  0
 20 19  1  0
 21 20  1  0
 22 21  1  0
 23 22  2  0
 24 23  1  0
 25 24  2  0
 26 25  1  0
 27 26  2  0
 28 24  1  0
 28 27  1  0
 29 23  1  0
 30 29  2  0
 31 21  2  0
 31 30  1  0
 32 17  1  0
 32 31  1  0
 33 32  2  0
 34 12  1  0
 35  9  1  0
 35 34  1  0
 36  1  1  0
 37  1  1  0
 38  1  1  0
 39  4  1  0
 40  5  1  0
 41  6  1  0
 42  7  1  0
 43 10  1  0
 44 10  1  0
 45 11  1  0
 46 11  1  0
 47 13  1  0
 48 13  1  0
 49 14  1  0
 50 14  1  0
 51 15  1  0
 52 15  1  0
 53 16  1  0
 54 16  1  0
 55 18  1  0
 56 18  1  0
 57 19  1  0
 58 19  1  0
 59 20  1  0
 60 20  1  0
 61 22  1  0
 62 25  1  0
 63 26  1  0
 64 27  1  0
 65 29  1  0
 66 30  1  0
 67 34  1  0
 68 34  1  0
 69 35  1  0
 70 35  1  0
 71 12  1  0
M  CHG  1  12   1
M  END
>  <b_m_subgroup_collapsed>  (644) 
0

>  <r_i_docking_score>  (644) 
-7.6131051572388202

>  <s_m_subgroup_title>  (644) 
glide-dock_SP_D22_pv

>  <s_m_subgroupid>  (644) 
glide-dock_SP_D22_pv

>  <Molecule ChEMBL ID>  (644) 
CHEMBL1771111

>  <Standard Type>  (644) 
Ki

>  <Standard Value>  (644) 
2.1

>  <label>  (644) 
1

$$$$
CHEMBL5957512
     RDKit          3D

 75 80  0  0  1  0  0  0  0  0999 V2000
   11.6861    6.0047   -7.0430 O   0  0  0  0  0  0  0  0  0  0  0  0
   10.8890    6.9303   -7.0101 C   0  0  0  0  0  0  0  0  0  0  0  0
    9.9026    7.0827   -7.9073 N   0  0  0  0  0  0  0  0  0  0  0  0
    9.8031    6.3390   -9.1538 C   0  0  1  0  0  0  0  0  0  0  0  0
    8.6173    5.3740   -9.0961 C   0  0  0  0  0  0  0  0  0  0  0  0
    8.5427    4.5754  -10.3965 C   0  0  0  0  0  0  0  0  0  0  0  0
    8.4025    5.4907  -11.6248 C   0  0  2  0  0  0  0  0  0  0  0  0
    8.2442    4.6504  -12.9075 C   0  0  0  0  0  0  0  0  0  0  0  0
    9.5251    3.9447  -13.4244 C   0  0  0  0  0  0  0  0  0  0  0  0
    9.2716    2.6199  -14.0526 N   0  0  1  0  0  0  0  0  0  0  0  0
    8.1987    2.6170  -15.0818 C   0  0  0  0  0  0  0  0  0  0  0  0
    7.8416    1.1786  -15.4668 C   0  0  0  0  0  0  0  0  0  0  0  0
    9.0517    0.4266  -16.0454 C   0  0  1  0  0  0  0  0  0  0  0  0
    9.3523    0.8456  -17.4747 C   0  0  0  0  0  0  0  0  0  0  0  0
   10.4701    1.5032  -17.7535 N   0  0  0  0  0  0  0  0  0  0  0  0
   10.4453    1.7967  -19.1224 O   0  0  0  0  0  0  0  0  0  0  0  0
    9.2793    1.3356  -19.6348 C   0  0  0  0  0  0  0  0  0  0  0  0
    8.5420    0.7445  -18.6492 C   0  0  0  0  0  0  0  0  0  0  0  0
    7.1738    0.2052  -18.8009 C   0  0  0  0  0  0  0  0  0  0  0  0
    6.7277   -0.9372  -18.0971 C   0  0  0  0  0  0  0  0  0  0  0  0
    5.4034   -1.4017  -18.2251 C   0  0  0  0  0  0  0  0  0  0  0  0
    4.5017   -0.7369  -19.0760 C   0  0  0  0  0  0  0  0  0  0  0  0
    4.9379    0.3808  -19.8080 C   0  0  0  0  0  0  0  0  0  0  0  0
    4.0869    1.0182  -20.6419 F   0  0  0  0  0  0  0  0  0  0  0  0
    6.2607    0.8431  -19.6729 C   0  0  0  0  0  0  0  0  0  0  0  0
   10.2446    0.5391  -15.0596 C   0  0  0  0  0  0  0  0  0  0  0  0
   10.5107    1.9839  -14.5749 C   0  0  0  0  0  0  0  0  0  0  0  0
    9.5412    6.5312  -11.6818 C   0  0  0  0  0  0  0  0  0  0  0  0
    9.6833    7.2994  -10.3536 C   0  0  0  0  0  0  0  0  0  0  0  0
   11.0226    8.0198   -5.9918 C   0  0  0  0  0  0  0  0  0  0  0  0
   10.7679    9.3275   -6.4393 C   0  0  0  0  0  0  0  0  0  0  0  0
   10.8861   10.3949   -5.5592 C   0  0  0  0  0  0  0  0  0  0  0  0
   11.2859   10.1725   -4.2437 C   0  0  0  0  0  0  0  0  0  0  0  0
   11.6782    8.9318   -3.7889 C   0  0  0  0  0  0  0  0  0  0  0  0
   12.1571    8.8638   -2.5345 N   0  0  0  0  0  0  0  0  0  0  0  0
   12.4861    7.6661   -2.0523 C   0  0  0  0  0  0  0  0  0  0  0  0
   12.3010    6.4899   -2.7824 C   0  0  0  0  0  0  0  0  0  0  0  0
   11.7890    6.5723   -4.0919 C   0  0  0  0  0  0  0  0  0  0  0  0
   11.4985    7.8252   -4.6548 C   0  0  0  0  0  0  0  0  0  0  0  0
    9.2334    7.8258   -7.7669 H   0  0  0  0  0  0  0  0  0  0  0  0
   10.7091    5.7523   -9.3054 H   0  0  0  0  0  0  0  0  0  0  0  0
    8.7199    4.6942   -8.2496 H   0  0  0  0  0  0  0  0  0  0  0  0
    7.6876    5.9233   -8.9458 H   0  0  0  0  0  0  0  0  0  0  0  0
    9.4489    3.9767  -10.4891 H   0  0  0  0  0  0  0  0  0  0  0  0
    7.6860    3.9050  -10.3455 H   0  0  0  0  0  0  0  0  0  0  0  0
    7.4695    6.0432  -11.4939 H   0  0  0  0  0  0  0  0  0  0  0  0
    7.4674    3.9149  -12.6950 H   0  0  0  0  0  0  0  0  0  0  0  0
    7.8440    5.2805  -13.7027 H   0  0  0  0  0  0  0  0  0  0  0  0
   10.0408    4.5990  -14.1286 H   0  0  0  0  0  0  0  0  0  0  0  0
   10.2194    3.7747  -12.6014 H   0  0  0  0  0  0  0  0  0  0  0  0
    7.2868    3.0882  -14.7202 H   0  0  0  0  0  0  0  0  0  0  0  0
    8.5233    3.1845  -15.9551 H   0  0  0  0  0  0  0  0  0  0  0  0
    7.0038    1.1746  -16.1649 H   0  0  0  0  0  0  0  0  0  0  0  0
    7.4868    0.6547  -14.5772 H   0  0  0  0  0  0  0  0  0  0  0  0
    8.7970   -0.6276  -16.0718 H   0  0  0  0  0  0  0  0  0  0  0  0
    9.1125    1.5198  -20.6855 H   0  0  0  0  0  0  0  0  0  0  0  0
    7.3951   -1.4782  -17.4470 H   0  0  0  0  0  0  0  0  0  0  0  0
    5.0794   -2.2694  -17.6696 H   0  0  0  0  0  0  0  0  0  0  0  0
    3.4841   -1.0877  -19.1737 H   0  0  0  0  0  0  0  0  0  0  0  0
    6.5652    1.7066  -20.2465 H   0  0  0  0  0  0  0  0  0  0  0  0
   11.1501    0.1116  -15.4931 H   0  0  0  0  0  0  0  0  0  0  0  0
   10.0227   -0.0749  -14.1864 H   0  0  0  0  0  0  0  0  0  0  0  0
   10.9153    2.5951  -15.3824 H   0  0  0  0  0  0  0  0  0  0  0  0
   11.2791    1.9623  -13.8002 H   0  0  0  0  0  0  0  0  0  0  0  0
   10.4866    6.0413  -11.9050 H   0  0  0  0  0  0  0  0  0  0  0  0
    9.3602    7.2351  -12.4944 H   0  0  0  0  0  0  0  0  0  0  0  0
    8.8237    7.9550  -10.2189 H   0  0  0  0  0  0  0  0  0  0  0  0
   10.5574    7.9505  -10.4007 H   0  0  0  0  0  0  0  0  0  0  0  0
   10.4625    9.5284   -7.4562 H   0  0  0  0  0  0  0  0  0  0  0  0
   10.6434   11.3723   -5.9066 H   0  0  0  0  0  0  0  0  0  0  0  0
   11.3212   10.9723   -3.5333 H   0  0  0  0  0  0  0  0  0  0  0  0
   12.8862    7.6491   -1.0510 H   0  0  0  0  0  0  0  0  0  0  0  0
   12.5505    5.5369   -2.3441 H   0  0  0  0  0  0  0  0  0  0  0  0
   11.6422    5.6710   -4.6540 H   0  0  0  0  0  0  0  0  0  0  0  0
    8.9566    2.0230  -13.2988 H   0  0  0  0  0  0  0  0  0  0  0  0
  2  1  2  0
  3  2  1  0
  4  3  1  0
  5  4  1  0
  6  5  1  0
  7  6  1  0
  8  7  1  0
  9  8  1  0
 10  9  1  0
 11 10  1  0
 12 11  1  0
 13 12  1  0
 14 13  1  0
 15 14  2  0
 16 15  1  0
 17 16  1  0
 18 14  1  0
 18 17  2  0
 19 18  1  0
 20 19  2  0
 21 20  1  0
 22 21  2  0
 23 22  1  0
 24 23  1  0
 25 19  1  0
 25 23  2  0
 26 13  1  0
 27 10  1  0
 27 26  1  0
 28  7  1  0
 29  4  1  0
 29 28  1  0
 30  2  1  0
 31 30  1  0
 32 31  2  0
 33 32  1  0
 34 33  2  0
 35 34  1  0
 36 35  2  0
 37 36  1  0
 38 37  2  0
 39 30  2  0
 39 34  1  0
 39 38  1  0
 40  3  1  0
  4 41  1  6
 42  5  1  0
 43  5  1  0
 44  6  1  0
 45  6  1  0
  7 46  1  1
 47  8  1  0
 48  8  1  0
 49  9  1  0
 50  9  1  0
 51 11  1  0
 52 11  1  0
 53 12  1  0
 54 12  1  0
 13 55  1  6
 56 17  1  0
 57 20  1  0
 58 21  1  0
 59 22  1  0
 60 25  1  0
 61 26  1  0
 62 26  1  0
 63 27  1  0
 64 27  1  0
 65 28  1  0
 66 28  1  0
 67 29  1  0
 68 29  1  0
 69 31  1  0
 70 32  1  0
 71 33  1  0
 72 36  1  0
 73 37  1  0
 74 38  1  0
 10 75  1  1
M  CHG  1  10   1
M  END
>  <b_m_subgroup_collapsed>  (645) 
0

>  <r_i_docking_score>  (645) 
-7.61302587863032

>  <s_m_subgroup_title>  (645) 
glide-dock_SP_D22_pv

>  <s_m_subgroupid>  (645) 
glide-dock_SP_D22_pv

>  <Molecule ChEMBL ID>  (645) 
CHEMBL5957512

>  <Standard Type>  (645) 
Ki

>  <Standard Value>  (645) 
36.0

>  <label>  (645) 
1

$$$$
CHEMBL46596
     RDKit          3D

 47 49  0  0  1  0  0  0  0  0999 V2000
   11.3945    6.9540   -1.8484 O   0  0  0  0  0  0  0  0  0  0  0  0
   12.0719    7.8617   -2.3146 N   0  0  0  0  0  0  0  0  0  0  0  0
   12.8233    8.5726   -1.6546 O   0  0  0  0  0  0  0  0  0  0  0  0
   11.9460    8.1208   -3.7551 C   0  0  0  0  0  0  0  0  0  0  0  0
   11.4220    7.1325   -4.6151 C   0  0  0  0  0  0  0  0  0  0  0  0
   11.2856    7.3844   -5.9892 C   0  0  0  0  0  0  0  0  0  0  0  0
   11.6859    8.6294   -6.5391 C   0  0  0  0  0  0  0  0  0  0  0  0
   11.6579    8.9313   -7.8847 O   0  0  0  0  0  0  0  0  0  0  0  0
   11.2249    7.9227   -8.7877 C   0  0  0  0  0  0  0  0  0  0  0  0
    9.6839    7.8606   -8.7859 C   0  0  1  0  0  0  0  0  0  0  0  0
    9.0975    8.8557   -9.7971 C   0  0  0  0  0  0  0  0  0  0  0  0
    9.1181    8.3125  -11.2365 C   0  0  0  0  0  0  0  0  0  0  0  0
    8.4861    6.9715  -11.3278 N   0  0  1  0  0  0  0  0  0  0  0  0
    8.3560    6.5363  -12.7307 C   0  0  0  0  0  0  0  0  0  0  0  0
    7.6121    5.2312  -12.9516 C   0  0  0  0  0  0  0  0  0  0  0  0
    6.2790    5.0838  -12.5149 C   0  0  0  0  0  0  0  0  0  0  0  0
    5.5861    3.8841  -12.7677 C   0  0  0  0  0  0  0  0  0  0  0  0
    6.2154    2.8317  -13.4576 C   0  0  0  0  0  0  0  0  0  0  0  0
    5.5589    1.6678  -13.6711 F   0  0  0  0  0  0  0  0  0  0  0  0
    7.5353    2.9869  -13.9205 C   0  0  0  0  0  0  0  0  0  0  0  0
    8.2371    4.1785  -13.6561 C   0  0  0  0  0  0  0  0  0  0  0  0
    9.1623    5.9838  -10.4528 C   0  0  0  0  0  0  0  0  0  0  0  0
    9.1203    6.4415   -8.9912 C   0  0  0  0  0  0  0  0  0  0  0  0
   12.1779    9.6219   -5.6713 C   0  0  0  0  0  0  0  0  0  0  0  0
   12.3165    9.3683   -4.2933 C   0  0  0  0  0  0  0  0  0  0  0  0
   11.1197    6.1707   -4.2262 H   0  0  0  0  0  0  0  0  0  0  0  0
   10.8854    6.5868   -6.5932 H   0  0  0  0  0  0  0  0  0  0  0  0
   11.6859    6.9679   -8.5512 H   0  0  0  0  0  0  0  0  0  0  0  0
   11.6025    8.1707   -9.7792 H   0  0  0  0  0  0  0  0  0  0  0  0
    9.3378    8.1734   -7.8004 H   0  0  0  0  0  0  0  0  0  0  0  0
    8.0863    9.1417   -9.5074 H   0  0  0  0  0  0  0  0  0  0  0  0
    9.6738    9.7740   -9.7529 H   0  0  0  0  0  0  0  0  0  0  0  0
   10.1418    8.2597  -11.6087 H   0  0  0  0  0  0  0  0  0  0  0  0
    8.5859    9.0131  -11.8818 H   0  0  0  0  0  0  0  0  0  0  0  0
    9.3702    6.4432  -13.1149 H   0  0  0  0  0  0  0  0  0  0  0  0
    7.8349    7.3121  -13.2889 H   0  0  0  0  0  0  0  0  0  0  0  0
    5.7833    5.8880  -11.9881 H   0  0  0  0  0  0  0  0  0  0  0  0
    4.5659    3.7705  -12.4399 H   0  0  0  0  0  0  0  0  0  0  0  0
    8.0168    2.1813  -14.4557 H   0  0  0  0  0  0  0  0  0  0  0  0
    9.2527    4.2803  -14.0112 H   0  0  0  0  0  0  0  0  0  0  0  0
    8.6742    5.0110  -10.5252 H   0  0  0  0  0  0  0  0  0  0  0  0
   10.1927    5.8466  -10.7816 H   0  0  0  0  0  0  0  0  0  0  0  0
    8.0862    6.4248   -8.6517 H   0  0  0  0  0  0  0  0  0  0  0  0
    9.6426    5.7207   -8.3616 H   0  0  0  0  0  0  0  0  0  0  0  0
   12.4864   10.5735   -6.0777 H   0  0  0  0  0  0  0  0  0  0  0  0
   12.7076   10.1384   -3.6442 H   0  0  0  0  0  0  0  0  0  0  0  0
    7.5440    7.1266  -10.9416 H   0  0  0  0  0  0  0  0  0  0  0  0
  2  1  2  0
  3  2  1  0
  4  2  1  0
  5  4  1  0
  6  5  2  0
  7  6  1  0
  8  7  1  0
  9  8  1  0
 10  9  1  0
 11 10  1  0
 12 11  1  0
 13 12  1  0
 14 13  1  0
 15 14  1  0
 16 15  1  0
 17 16  2  0
 18 17  1  0
 19 18  1  0
 20 18  2  0
 21 15  2  0
 21 20  1  0
 22 13  1  0
 23 10  1  0
 23 22  1  0
 24  7  2  0
 25  4  2  0
 25 24  1  0
 26  5  1  0
 27  6  1  0
 28  9  1  0
 29  9  1  0
 10 30  1  1
 31 11  1  0
 32 11  1  0
 33 12  1  0
 34 12  1  0
 35 14  1  0
 36 14  1  0
 37 16  1  0
 38 17  1  0
 39 20  1  0
 40 21  1  0
 41 22  1  0
 42 22  1  0
 43 23  1  0
 44 23  1  0
 45 24  1  0
 46 25  1  0
 13 47  1  1
M  CHG  3   2   1   3  -1  13   1
M  END
>  <b_m_subgroup_collapsed>  (646) 
0

>  <r_i_docking_score>  (646) 
-7.6053531303460202

>  <s_m_subgroup_title>  (646) 
glide-dock_SP_D22_pv

>  <s_m_subgroupid>  (646) 
glide-dock_SP_D22_pv

>  <Molecule ChEMBL ID>  (646) 
CHEMBL46596

>  <Standard Type>  (646) 
Ki

>  <Standard Value>  (646) 
10000.0

>  <label>  (646) 
0

$$$$
CHEMBL111884
     RDKit          3D

 62 65  0  0  1  0  0  0  0  0999 V2000
    8.8566    4.5841   -8.6688 C   0  0  0  0  0  0  0  0  0  0  0  0
   10.0090    5.4704   -9.1552 C   0  0  0  0  0  0  0  0  0  0  0  0
    9.5822    6.8976   -9.2653 N   0  0  1  0  0  0  0  0  0  0  0  0
   10.5566    7.9182   -8.7906 C   0  0  2  0  0  0  0  0  0  0  0  0
   10.8450    8.0218   -7.2843 C   0  0  0  0  0  0  0  0  0  0  0  0
   10.5864    6.9722   -6.3747 C   0  0  0  0  0  0  0  0  0  0  0  0
   11.0317    7.0480   -5.0448 C   0  0  0  0  0  0  0  0  0  0  0  0
   11.6843    8.2013   -4.5744 C   0  0  0  0  0  0  0  0  0  0  0  0
   11.8880    9.2837   -5.4459 C   0  0  0  0  0  0  0  0  0  0  0  0
   11.4810    9.1864   -6.7900 C   0  0  0  0  0  0  0  0  0  0  0  0
   10.0441    9.2379   -9.3893 C   0  0  0  0  0  0  0  0  0  0  0  0
    9.0856    8.8691  -10.5225 C   0  0  0  0  0  0  0  0  0  0  0  0
    9.1746    7.3408  -10.6310 C   0  0  1  0  0  0  0  0  0  0  0  0
   10.1588    6.9433  -11.7011 C   0  0  0  0  0  0  0  0  0  0  0  0
   11.4229    7.3724  -11.9940 C   0  0  0  0  0  0  0  0  0  0  0  0
   11.9106    6.6187  -13.0971 C   0  0  0  0  0  0  0  0  0  0  0  0
   10.9364    5.7363  -13.4850 C   0  0  0  0  0  0  0  0  0  0  0  0
   10.8402    4.7395  -14.5638 C   0  0  0  0  0  0  0  0  0  0  0  0
    9.7565    3.8273  -14.5749 C   0  0  0  0  0  0  0  0  0  0  0  0
    9.5867    2.9197  -15.6344 C   0  0  0  0  0  0  0  0  0  0  0  0
    8.1736    1.8168  -15.6501 S   0  0  0  0  0  0  0  0  0  0  0  0
    7.2201    2.2830  -14.6314 O   0  0  0  0  0  0  0  0  0  0  0  0
    7.7380    1.6967  -17.0505 O   0  0  0  0  0  0  0  0  0  0  0  0
    8.8329    0.1843  -15.1010 C   0  0  0  0  0  0  0  0  0  0  0  0
    9.8449   -0.3966  -16.0971 C   0  0  0  0  0  0  0  0  0  0  0  0
   10.5165    2.8741  -16.6832 C   0  0  0  0  0  0  0  0  0  0  0  0
   11.6217    3.7402  -16.6680 C   0  0  0  0  0  0  0  0  0  0  0  0
   11.7937    4.6840  -15.6219 C   0  0  0  0  0  0  0  0  0  0  0  0
   12.8505    5.5701  -15.6022 O   0  0  0  0  0  0  0  0  0  0  0  0
   13.8090    5.5330  -16.6499 C   0  0  0  0  0  0  0  0  0  0  0  0
    9.8771    5.9524  -12.6205 N   0  0  0  0  0  0  0  0  0  0  0  0
    9.2036    3.5720   -8.4567 H   0  0  0  0  0  0  0  0  0  0  0  0
    8.3824    4.9758   -7.7713 H   0  0  0  0  0  0  0  0  0  0  0  0
    8.0861    4.5069   -9.4369 H   0  0  0  0  0  0  0  0  0  0  0  0
   10.3528    5.0614  -10.0997 H   0  0  0  0  0  0  0  0  0  0  0  0
   10.8782    5.3713   -8.5019 H   0  0  0  0  0  0  0  0  0  0  0  0
   11.5161    7.6850   -9.2533 H   0  0  0  0  0  0  0  0  0  0  0  0
   10.0731    6.0708   -6.6594 H   0  0  0  0  0  0  0  0  0  0  0  0
   10.8577    6.2165   -4.3747 H   0  0  0  0  0  0  0  0  0  0  0  0
   12.0184    8.2581   -3.5483 H   0  0  0  0  0  0  0  0  0  0  0  0
   12.3856   10.1726   -5.0887 H   0  0  0  0  0  0  0  0  0  0  0  0
   11.6859   10.0150   -7.4458 H   0  0  0  0  0  0  0  0  0  0  0  0
    9.4638    9.7721   -8.6372 H   0  0  0  0  0  0  0  0  0  0  0  0
   10.8659    9.8756   -9.7164 H   0  0  0  0  0  0  0  0  0  0  0  0
    8.0873    9.1919  -10.2274 H   0  0  0  0  0  0  0  0  0  0  0  0
    9.2882    9.3715  -11.4702 H   0  0  0  0  0  0  0  0  0  0  0  0
    8.2084    6.9053  -10.8844 H   0  0  0  0  0  0  0  0  0  0  0  0
   11.9559    8.1520  -11.4690 H   0  0  0  0  0  0  0  0  0  0  0  0
   12.8870    6.7301  -13.5444 H   0  0  0  0  0  0  0  0  0  0  0  0
    9.0241    3.8309  -13.7822 H   0  0  0  0  0  0  0  0  0  0  0  0
    9.2692    0.3037  -14.1090 H   0  0  0  0  0  0  0  0  0  0  0  0
    7.9809   -0.4887  -15.0109 H   0  0  0  0  0  0  0  0  0  0  0  0
   10.0873   -1.4276  -15.8469 H   0  0  0  0  0  0  0  0  0  0  0  0
    9.4454   -0.3948  -17.1115 H   0  0  0  0  0  0  0  0  0  0  0  0
   10.7778    0.1669  -16.0969 H   0  0  0  0  0  0  0  0  0  0  0  0
   10.3855    2.1805  -17.5007 H   0  0  0  0  0  0  0  0  0  0  0  0
   12.3184    3.6698  -17.4894 H   0  0  0  0  0  0  0  0  0  0  0  0
   14.5736    6.2869  -16.4601 H   0  0  0  0  0  0  0  0  0  0  0  0
   14.3111    4.5659  -16.7040 H   0  0  0  0  0  0  0  0  0  0  0  0
   13.3554    5.7638  -17.6149 H   0  0  0  0  0  0  0  0  0  0  0  0
    8.9980    5.4578  -12.6690 H   0  0  0  0  0  0  0  0  0  0  0  0
    8.7570    7.0122   -8.6887 H   0  0  0  0  0  0  0  0  0  0  0  0
  2  1  1  0
  3  2  1  0
  4  3  1  0
  5  4  1  0
  6  5  2  0
  7  6  1  0
  8  7  2  0
  9  8  1  0
 10  5  1  0
 10  9  2  0
 11  4  1  0
 12 11  1  0
 13  3  1  0
 13 12  1  0
 14 13  1  0
 15 14  2  0
 16 15  1  0
 17 16  2  0
 18 17  1  0
 19 18  1  0
 20 19  2  0
 21 20  1  0
 22 21  2  0
 23 21  2  0
 24 21  1  0
 25 24  1  0
 26 20  1  0
 27 26  2  0
 28 18  2  0
 28 27  1  0
 29 28  1  0
 30 29  1  0
 31 14  1  0
 31 17  1  0
 32  1  1  0
 33  1  1  0
 34  1  1  0
 35  2  1  0
 36  2  1  0
  4 37  1  6
 38  6  1  0
 39  7  1  0
 40  8  1  0
 41  9  1  0
 42 10  1  0
 43 11  1  0
 44 11  1  0
 45 12  1  0
 46 12  1  0
 13 47  1  6
 48 15  1  0
 49 16  1  0
 50 19  1  0
 51 24  1  0
 52 24  1  0
 53 25  1  0
 54 25  1  0
 55 25  1  0
 56 26  1  0
 57 27  1  0
 58 30  1  0
 59 30  1  0
 60 30  1  0
 61 31  1  0
  3 62  1  1
M  CHG  1   3   1
M  END
>  <b_m_subgroup_collapsed>  (647) 
0

>  <r_i_docking_score>  (647) 
-7.6029797469445901

>  <s_m_subgroup_title>  (647) 
glide-dock_SP_D22_pv

>  <s_m_subgroupid>  (647) 
glide-dock_SP_D22_pv

>  <Molecule ChEMBL ID>  (647) 
CHEMBL111884

>  <Standard Type>  (647) 
Ki

>  <Standard Value>  (647) 
39.81

>  <label>  (647) 
1

$$$$
CHEMBL3898054
     RDKit          3D

 59 62  0  0  1  0  0  0  0  0999 V2000
    4.4677   -0.2279  -13.4721 O   0  0  0  0  0  0  0  0  0  0  0  0
    4.8147   -0.4075  -14.6397 C   0  0  0  0  0  0  0  0  0  0  0  0
    4.1144   -1.1944  -15.4727 N   0  0  0  0  0  0  0  0  0  0  0  0
    4.3821   -1.3798  -16.8965 C   0  0  0  0  0  0  0  0  0  0  0  0
    5.8717   -1.2217  -17.2548 C   0  0  0  0  0  0  0  0  0  0  0  0
    6.5381   -0.1024  -16.4725 C   0  0  0  0  0  0  0  0  0  0  0  0
    7.6650    0.5533  -17.0032 C   0  0  0  0  0  0  0  0  0  0  0  0
    8.2686    1.6041  -16.2900 C   0  0  0  0  0  0  0  0  0  0  0  0
    7.7550    2.0253  -15.0479 C   0  0  0  0  0  0  0  0  0  0  0  0
    8.4197    3.0645  -14.4371 O   0  0  0  0  0  0  0  0  0  0  0  0
    7.7666    3.8896  -13.4755 C   0  0  0  0  0  0  0  0  0  0  0  0
    8.9131    4.5309  -12.6885 C   0  0  0  0  0  0  0  0  0  0  0  0
    8.5167    5.5752  -11.6304 C   0  0  0  0  0  0  0  0  0  0  0  0
    9.7796    5.9641  -10.8439 C   0  0  0  0  0  0  0  0  0  0  0  0
    9.6428    7.1249   -9.9303 N   0  0  2  0  0  0  0  0  0  0  0  0
   10.9771    7.7072   -9.6086 C   0  0  0  0  0  0  0  0  0  0  0  0
   10.8774    8.9733   -8.7484 C   0  0  0  0  0  0  0  0  0  0  0  0
   10.0364    8.7793   -7.4758 C   0  0  2  0  0  0  0  0  0  0  0  0
   10.7970    8.2582   -6.2479 C   0  0  0  0  0  0  0  0  0  0  0  0
   11.1158    6.8942   -6.1293 C   0  0  0  0  0  0  0  0  0  0  0  0
   11.6861    6.4044   -4.9467 C   0  0  0  0  0  0  0  0  0  0  0  0
   11.9865    7.2336   -3.8662 C   0  0  0  0  0  0  0  0  0  0  0  0
   11.7238    8.5966   -3.9856 C   0  0  0  0  0  0  0  0  0  0  0  0
   12.0860    9.6080   -2.6474 Cl  0  0  0  0  0  0  0  0  0  0  0  0
   11.1535    9.1088   -5.1691 C   0  0  0  0  0  0  0  0  0  0  0  0
   10.8861   10.7910   -5.2511 Cl  0  0  0  0  0  0  0  0  0  0  0  0
    8.7339    8.0217   -7.7801 C   0  0  0  0  0  0  0  0  0  0  0  0
    8.8855    6.7920   -8.7014 C   0  0  0  0  0  0  0  0  0  0  0  0
    6.6393    1.3452  -14.5027 C   0  0  0  0  0  0  0  0  0  0  0  0
    6.0284    0.2820  -15.2101 C   0  0  0  0  0  0  0  0  0  0  0  0
    3.3086   -1.6764  -15.1020 H   0  0  0  0  0  0  0  0  0  0  0  0
    4.0083   -2.3519  -17.2196 H   0  0  0  0  0  0  0  0  0  0  0  0
    3.7990   -0.6306  -17.4340 H   0  0  0  0  0  0  0  0  0  0  0  0
    5.9757   -1.0440  -18.3255 H   0  0  0  0  0  0  0  0  0  0  0  0
    6.4075   -2.1474  -17.0447 H   0  0  0  0  0  0  0  0  0  0  0  0
    8.0668    0.2552  -17.9608 H   0  0  0  0  0  0  0  0  0  0  0  0
    9.1301    2.1034  -16.7063 H   0  0  0  0  0  0  0  0  0  0  0  0
    7.1108    3.3695  -12.7827 H   0  0  0  0  0  0  0  0  0  0  0  0
    7.1746    4.6473  -13.9876 H   0  0  0  0  0  0  0  0  0  0  0  0
    9.6033    4.9927  -13.3978 H   0  0  0  0  0  0  0  0  0  0  0  0
    9.4731    3.7289  -12.2042 H   0  0  0  0  0  0  0  0  0  0  0  0
    7.7600    5.1637  -10.9612 H   0  0  0  0  0  0  0  0  0  0  0  0
    8.0743    6.4482  -12.1125 H   0  0  0  0  0  0  0  0  0  0  0  0
   10.5537    6.1984  -11.5756 H   0  0  0  0  0  0  0  0  0  0  0  0
   10.1199    5.0989  -10.2749 H   0  0  0  0  0  0  0  0  0  0  0  0
   11.5047    7.9577  -10.5297 H   0  0  0  0  0  0  0  0  0  0  0  0
   11.5899    6.9702   -9.0931 H   0  0  0  0  0  0  0  0  0  0  0  0
   10.4135    9.7514   -9.3584 H   0  0  0  0  0  0  0  0  0  0  0  0
   11.8693    9.3495   -8.4961 H   0  0  0  0  0  0  0  0  0  0  0  0
    9.6891    9.7725   -7.2223 H   0  0  0  0  0  0  0  0  0  0  0  0
   10.9370    6.1942   -6.9238 H   0  0  0  0  0  0  0  0  0  0  0  0
   11.9522    5.3725   -4.8711 H   0  0  0  0  0  0  0  0  0  0  0  0
   12.4281    6.8284   -2.9672 H   0  0  0  0  0  0  0  0  0  0  0  0
    8.2076    7.7603   -6.8600 H   0  0  0  0  0  0  0  0  0  0  0  0
    8.0860    8.7330   -8.2891 H   0  0  0  0  0  0  0  0  0  0  0  0
    7.9062    6.4189   -8.9890 H   0  0  0  0  0  0  0  0  0  0  0  0
    9.3481    5.9559   -8.1845 H   0  0  0  0  0  0  0  0  0  0  0  0
    6.2338    1.6249  -13.5430 H   0  0  0  0  0  0  0  0  0  0  0  0
    9.0999    7.8263  -10.4170 H   0  0  0  0  0  0  0  0  0  0  0  0
  2  1  2  0
  3  2  1  0
  4  3  1  0
  5  4  1  0
  6  5  1  0
  7  6  1  0
  8  7  2  0
  9  8  1  0
 10  9  1  0
 11 10  1  0
 12 11  1  0
 13 12  1  0
 14 13  1  0
 15 14  1  0
 16 15  1  0
 17 16  1  0
 18 17  1  0
 19 18  1  0
 20 19  2  0
 21 20  1  0
 22 21  2  0
 23 22  1  0
 24 23  1  0
 25 19  1  0
 25 23  2  0
 26 25  1  0
 27 18  1  0
 28 15  1  0
 28 27  1  0
 29  9  2  0
 30  2  1  0
 30  6  2  0
 30 29  1  0
 31  3  1  0
 32  4  1  0
 33  4  1  0
 34  5  1  0
 35  5  1  0
 36  7  1  0
 37  8  1  0
 38 11  1  0
 39 11  1  0
 40 12  1  0
 41 12  1  0
 42 13  1  0
 43 13  1  0
 44 14  1  0
 45 14  1  0
 46 16  1  0
 47 16  1  0
 48 17  1  0
 49 17  1  0
 18 50  1  1
 51 20  1  0
 52 21  1  0
 53 22  1  0
 54 27  1  0
 55 27  1  0
 56 28  1  0
 57 28  1  0
 58 29  1  0
 15 59  1  6
M  CHG  1  15   1
M  END
>  <b_m_subgroup_collapsed>  (648) 
0

>  <r_i_docking_score>  (648) 
-7.60051345148855

>  <s_m_subgroup_title>  (648) 
glide-dock_SP_D22_pv

>  <s_m_subgroupid>  (648) 
glide-dock_SP_D22_pv

>  <Molecule ChEMBL ID>  (648) 
CHEMBL3898054

>  <Standard Type>  (648) 
Ki

>  <Standard Value>  (648) 
20.0

>  <label>  (648) 
1

$$$$
CHEMBL3764597
     RDKit          3D

 61 64  0  0  1  0  0  0  0  0999 V2000
    8.8542    8.8589   -8.6535 C   0  0  0  0  0  0  0  0  0  0  0  0
   10.0998    8.4062   -9.2297 N   0  0  0  0  0  0  0  0  0  0  0  0
   10.4230    8.1109  -10.5046 C   0  0  0  0  0  0  0  0  0  0  0  0
    9.2853    8.1723  -11.8435 S   0  0  0  0  0  0  0  0  0  0  0  0
    8.4201    6.5907  -11.5791 C   0  0  0  0  0  0  0  0  0  0  0  0
    9.2359    5.3483  -11.9716 C   0  0  0  0  0  0  0  0  0  0  0  0
    9.7186    5.3777  -13.4352 C   0  0  0  0  0  0  0  0  0  0  0  0
   10.1377    4.0905  -13.9870 N   0  0  0  0  0  0  0  0  0  0  0  0
   10.9095    4.2747  -15.2125 C   0  0  0  0  0  0  0  0  0  0  0  0
   11.3218    2.9331  -15.8420 C   0  0  0  0  0  0  0  0  0  0  0  0
   10.1622    2.1507  -16.1093 O   0  0  0  0  0  0  0  0  0  0  0  0
    9.3746    1.9054  -14.9457 C   0  0  2  0  0  0  0  0  0  0  0  0
    8.1311    1.0798  -15.2433 C   0  0  0  0  0  0  0  0  0  0  0  0
    7.6434    0.2137  -14.2451 C   0  0  0  0  0  0  0  0  0  0  0  0
    6.4735   -0.5376  -14.4517 C   0  0  0  0  0  0  0  0  0  0  0  0
    5.7780   -0.4414  -15.6729 C   0  0  0  0  0  0  0  0  0  0  0  0
    4.5337   -1.2850  -15.8833 C   0  0  0  0  0  0  0  0  0  0  0  0
    4.8855   -2.5683  -15.8476 F   0  0  0  0  0  0  0  0  0  0  0  0
    3.6636   -1.0397  -14.9026 F   0  0  0  0  0  0  0  0  0  0  0  0
    3.9457   -1.0283  -17.0525 F   0  0  0  0  0  0  0  0  0  0  0  0
    6.2572    0.4299  -16.6752 C   0  0  0  0  0  0  0  0  0  0  0  0
    7.4162    1.2010  -16.4583 C   0  0  0  0  0  0  0  0  0  0  0  0
    7.8162    2.0659  -17.4217 F   0  0  0  0  0  0  0  0  0  0  0  0
    8.9845    3.2450  -14.2929 C   0  0  0  0  0  0  0  0  0  0  0  0
   11.7018    7.7711  -10.6611 N   0  0  0  0  0  0  0  0  0  0  0  0
   12.2359    7.7744   -9.3937 N   0  0  0  0  0  0  0  0  0  0  0  0
   11.2396    8.1277   -8.5776 C   0  0  0  0  0  0  0  0  0  0  0  0
   11.3745    8.1551   -7.1323 C   0  0  0  0  0  0  0  0  0  0  0  0
   11.8459    9.3091   -6.4793 C   0  0  0  0  0  0  0  0  0  0  0  0
   12.0669    9.2930   -5.0903 C   0  0  0  0  0  0  0  0  0  0  0  0
   11.7959    8.1279   -4.3357 C   0  0  0  0  0  0  0  0  0  0  0  0
   12.1165    8.0666   -2.8713 C   0  0  0  0  0  0  0  0  0  0  0  0
   12.0863    9.2257   -2.2172 N   0  0  0  0  0  0  0  0  0  0  0  0
   12.3671    7.0038   -2.3088 O   0  0  0  0  0  0  0  0  0  0  0  0
   11.2862    6.9855   -4.9930 C   0  0  0  0  0  0  0  0  0  0  0  0
   11.0729    6.9999   -6.3841 C   0  0  0  0  0  0  0  0  0  0  0  0
    8.3319    8.0010   -8.2350 H   0  0  0  0  0  0  0  0  0  0  0  0
    9.0446    9.5696   -7.8506 H   0  0  0  0  0  0  0  0  0  0  0  0
    8.2349    9.3469   -9.4064 H   0  0  0  0  0  0  0  0  0  0  0  0
    8.1060    6.5165  -10.5376 H   0  0  0  0  0  0  0  0  0  0  0  0
    7.5017    6.6178  -12.1665 H   0  0  0  0  0  0  0  0  0  0  0  0
   10.0858    5.2352  -11.3021 H   0  0  0  0  0  0  0  0  0  0  0  0
    8.6079    4.4768  -11.7907 H   0  0  0  0  0  0  0  0  0  0  0  0
    8.9301    5.7879  -14.0669 H   0  0  0  0  0  0  0  0  0  0  0  0
   10.5476    6.0852  -13.4921 H   0  0  0  0  0  0  0  0  0  0  0  0
   10.3264    4.8460  -15.9371 H   0  0  0  0  0  0  0  0  0  0  0  0
   11.8046    4.8612  -15.0015 H   0  0  0  0  0  0  0  0  0  0  0  0
   11.8623    3.0996  -16.7737 H   0  0  0  0  0  0  0  0  0  0  0  0
   11.9901    2.3867  -15.1774 H   0  0  0  0  0  0  0  0  0  0  0  0
    9.9921    1.3376  -14.2467 H   0  0  0  0  0  0  0  0  0  0  0  0
    8.1685    0.1307  -13.3062 H   0  0  0  0  0  0  0  0  0  0  0  0
    6.1188   -1.2064  -13.6808 H   0  0  0  0  0  0  0  0  0  0  0  0
    5.7301    0.5248  -17.6125 H   0  0  0  0  0  0  0  0  0  0  0  0
    8.4181    3.0383  -13.3867 H   0  0  0  0  0  0  0  0  0  0  0  0
    8.3089    3.7751  -14.9648 H   0  0  0  0  0  0  0  0  0  0  0  0
   12.0795   10.1930   -7.0458 H   0  0  0  0  0  0  0  0  0  0  0  0
   12.4817   10.1721   -4.6243 H   0  0  0  0  0  0  0  0  0  0  0  0
   11.8688   10.0813   -2.7038 H   0  0  0  0  0  0  0  0  0  0  0  0
   12.2796    9.2390   -1.2278 H   0  0  0  0  0  0  0  0  0  0  0  0
   11.0785    6.0835   -4.4348 H   0  0  0  0  0  0  0  0  0  0  0  0
   10.7060    6.1132   -6.8801 H   0  0  0  0  0  0  0  0  0  0  0  0
  2  1  1  0
  3  2  1  0
  4  3  1  0
  5  4  1  0
  6  5  1  0
  7  6  1  0
  8  7  1  0
  9  8  1  0
 10  9  1  0
 11 10  1  0
 12 11  1  0
 13 12  1  0
 14 13  1  0
 15 14  2  0
 16 15  1  0
 17 16  1  0
 18 17  1  0
 19 17  1  0
 20 17  1  0
 21 16  2  0
 22 13  2  0
 22 21  1  0
 23 22  1  0
 24  8  1  0
 24 12  1  0
 25  3  2  0
 26 25  1  0
 27  2  1  0
 27 26  2  0
 28 27  1  0
 29 28  1  0
 30 29  2  0
 31 30  1  0
 32 31  1  0
 33 32  1  0
 34 32  2  0
 35 31  2  0
 36 28  2  0
 36 35  1  0
 37  1  1  0
 38  1  1  0
 39  1  1  0
 40  5  1  0
 41  5  1  0
 42  6  1  0
 43  6  1  0
 44  7  1  0
 45  7  1  0
 46  9  1  0
 47  9  1  0
 48 10  1  0
 49 10  1  0
 12 50  1  1
 51 14  1  0
 52 15  1  0
 53 21  1  0
 54 24  1  0
 55 24  1  0
 56 29  1  0
 57 30  1  0
 58 33  1  0
 59 33  1  0
 60 35  1  0
 61 36  1  0
M  END
>  <b_m_subgroup_collapsed>  (649) 
0

>  <r_i_docking_score>  (649) 
-7.59279558800998

>  <s_m_subgroup_title>  (649) 
glide-dock_SP_D22_pv

>  <s_m_subgroupid>  (649) 
glide-dock_SP_D22_pv

>  <Molecule ChEMBL ID>  (649) 
CHEMBL3764597

>  <Standard Type>  (649) 
Ki

>  <Standard Value>  (649) 
14454.0

>  <label>  (649) 
0

$$$$
CHEMBL378455
     RDKit          3D

 45 48  0  0  1  0  0  0  0  0999 V2000
   11.6178    7.3204  -12.3106 C   0  0  0  0  0  0  0  0  0  0  0  0
   11.2268    6.2727  -13.0659 C   0  0  0  0  0  0  0  0  0  0  0  0
   11.8855    5.9632  -14.3520 C   0  0  0  0  0  0  0  0  0  0  0  0
   12.4900    6.9805  -15.1269 C   0  0  0  0  0  0  0  0  0  0  0  0
   13.1116    6.6702  -16.3508 C   0  0  0  0  0  0  0  0  0  0  0  0
   13.1413    5.3392  -16.8089 C   0  0  0  0  0  0  0  0  0  0  0  0
   12.5430    4.3200  -16.0416 C   0  0  0  0  0  0  0  0  0  0  0  0
   11.9237    4.6289  -14.8156 C   0  0  0  0  0  0  0  0  0  0  0  0
   10.0311    5.4503  -12.6020 C   0  0  0  0  0  0  0  0  0  0  0  0
    9.2109    6.1425  -11.4962 C   0  0  0  0  0  0  0  0  0  0  0  0
   10.0960    6.6494  -10.4468 N   0  0  0  0  0  0  0  0  0  0  0  0
    9.2861    7.1504   -9.3358 C   0  0  0  0  0  0  0  0  0  0  0  0
   10.0760    7.7289   -8.1887 C   0  0  0  0  0  0  0  0  0  0  0  0
   10.7653    8.9727   -8.1734 C   0  0  0  0  0  0  0  0  0  0  0  0
   11.3271    9.2438   -7.0158 N   0  0  0  0  0  0  0  0  0  0  0  0
   11.0299    8.1848   -6.2344 N   0  0  0  0  0  0  0  0  0  0  0  0
   11.4650    8.1654   -4.8892 C   0  0  0  0  0  0  0  0  0  0  0  0
   11.6860    6.9441   -4.2190 C   0  0  0  0  0  0  0  0  0  0  0  0
   12.0993    6.9371   -2.8719 C   0  0  0  0  0  0  0  0  0  0  0  0
   12.3058    8.1513   -2.1920 C   0  0  0  0  0  0  0  0  0  0  0  0
   12.0860    9.3716   -2.8540 C   0  0  0  0  0  0  0  0  0  0  0  0
   11.6752    9.3793   -4.1972 C   0  0  0  0  0  0  0  0  0  0  0  0
   10.2793    7.2468   -6.9253 C   0  0  0  0  0  0  0  0  0  0  0  0
   10.9620    7.6988  -11.0001 C   0  0  0  0  0  0  0  0  0  0  0  0
   12.4546    7.9330  -12.6076 H   0  0  0  0  0  0  0  0  0  0  0  0
   12.4688    8.0112  -14.8051 H   0  0  0  0  0  0  0  0  0  0  0  0
   13.5662    7.4549  -16.9371 H   0  0  0  0  0  0  0  0  0  0  0  0
   13.6184    5.1004  -17.7479 H   0  0  0  0  0  0  0  0  0  0  0  0
   12.5678    3.2970  -16.3905 H   0  0  0  0  0  0  0  0  0  0  0  0
   11.4807    3.8318  -14.2383 H   0  0  0  0  0  0  0  0  0  0  0  0
    9.3751    5.2753  -13.4552 H   0  0  0  0  0  0  0  0  0  0  0  0
   10.3815    4.4745  -12.2627 H   0  0  0  0  0  0  0  0  0  0  0  0
    8.6209    6.9629  -11.9103 H   0  0  0  0  0  0  0  0  0  0  0  0
    8.4998    5.4277  -11.0766 H   0  0  0  0  0  0  0  0  0  0  0  0
    8.5937    7.9009   -9.7189 H   0  0  0  0  0  0  0  0  0  0  0  0
    8.6528    6.3347   -8.9785 H   0  0  0  0  0  0  0  0  0  0  0  0
   10.8633    9.6947   -8.9719 H   0  0  0  0  0  0  0  0  0  0  0  0
   11.5325    6.0035   -4.7296 H   0  0  0  0  0  0  0  0  0  0  0  0
   12.2553    5.9964   -2.3639 H   0  0  0  0  0  0  0  0  0  0  0  0
   12.6204    8.1540   -1.1591 H   0  0  0  0  0  0  0  0  0  0  0  0
   12.2236   10.3018   -2.3268 H   0  0  0  0  0  0  0  0  0  0  0  0
   11.5015   10.3258   -4.6881 H   0  0  0  0  0  0  0  0  0  0  0  0
    9.9284    6.3370   -6.4626 H   0  0  0  0  0  0  0  0  0  0  0  0
   11.7637    7.9157  -10.2954 H   0  0  0  0  0  0  0  0  0  0  0  0
   10.3929    8.6170  -11.1582 H   0  0  0  0  0  0  0  0  0  0  0  0
  2  1  2  0
  3  2  1  0
  4  3  2  0
  5  4  1  0
  6  5  2  0
  7  6  1  0
  8  3  1  0
  8  7  2  0
  9  2  1  0
 10  9  1  0
 11 10  1  0
 12 11  1  0
 13 12  1  0
 14 13  1  0
 15 14  2  0
 16 15  1  0
 17 16  1  0
 18 17  2  0
 19 18  1  0
 20 19  2  0
 21 20  1  0
 22 17  1  0
 22 21  2  0
 23 13  2  0
 23 16  1  0
 24  1  1  0
 24 11  1  0
 25  1  1  0
 26  4  1  0
 27  5  1  0
 28  6  1  0
 29  7  1  0
 30  8  1  0
 31  9  1  0
 32  9  1  0
 33 10  1  0
 34 10  1  0
 35 12  1  0
 36 12  1  0
 37 14  1  0
 38 18  1  0
 39 19  1  0
 40 20  1  0
 41 21  1  0
 42 22  1  0
 43 23  1  0
 44 24  1  0
 45 24  1  0
M  END
>  <b_m_subgroup_collapsed>  (650) 
0

>  <r_i_docking_score>  (650) 
-7.5922139854960298

>  <s_m_subgroup_title>  (650) 
glide-dock_SP_D22_pv

>  <s_m_subgroupid>  (650) 
glide-dock_SP_D22_pv

>  <Molecule ChEMBL ID>  (650) 
CHEMBL378455

>  <Standard Type>  (650) 
Ki

>  <Standard Value>  (650) 
28.0

>  <label>  (650) 
1

$$$$
CHEMBL3765267
     RDKit          3D

 62 65  0  0  1  0  0  0  0  0999 V2000
   12.3377    9.7722   -2.8895 C   0  0  0  0  0  0  0  0  0  0  0  0
   12.0850    8.3634   -3.3993 C   0  0  0  0  0  0  0  0  0  0  0  0
   12.2229    7.4175   -2.6251 O   0  0  0  0  0  0  0  0  0  0  0  0
   11.6686    8.2210   -4.8200 C   0  0  0  0  0  0  0  0  0  0  0  0
   11.2837    6.9481   -5.2860 C   0  0  0  0  0  0  0  0  0  0  0  0
   10.9000    6.7593   -6.6242 C   0  0  0  0  0  0  0  0  0  0  0  0
   10.8907    7.8353   -7.5347 C   0  0  0  0  0  0  0  0  0  0  0  0
   10.5253    7.6248   -8.9400 C   0  0  0  0  0  0  0  0  0  0  0  0
   11.1839    8.2377   -9.9334 N   0  0  0  0  0  0  0  0  0  0  0  0
   10.6336    7.7719  -11.1046 N   0  0  0  0  0  0  0  0  0  0  0  0
    9.6757    6.9243  -10.7360 C   0  0  0  0  0  0  0  0  0  0  0  0
    8.6799    6.0205  -11.8829 S   0  0  0  0  0  0  0  0  0  0  0  0
   10.0015    5.0476  -12.6513 C   0  0  0  0  0  0  0  0  0  0  0  0
    9.4674    4.1110  -13.7389 C   0  0  0  0  0  0  0  0  0  0  0  0
   10.6094    3.3900  -14.4764 C   0  0  0  0  0  0  0  0  0  0  0  0
   10.1783    2.4718  -15.5241 N   0  0  0  0  0  0  0  0  0  0  0  0
    9.5521    1.2669  -14.9833 C   0  0  0  0  0  0  0  0  0  0  0  0
    9.1444    0.2872  -16.0940 C   0  0  0  0  0  0  0  0  0  0  0  0
   10.2756   -0.0330  -16.8955 O   0  0  0  0  0  0  0  0  0  0  0  0
   10.8828    1.1088  -17.5017 C   0  0  2  0  0  0  0  0  0  0  0  0
   12.0567    0.7269  -18.3975 C   0  0  0  0  0  0  0  0  0  0  0  0
   12.3640   -0.6280  -18.6472 C   0  0  0  0  0  0  0  0  0  0  0  0
   13.4646   -0.9780  -19.4539 C   0  0  0  0  0  0  0  0  0  0  0  0
   14.2676    0.0260  -20.0349 C   0  0  0  0  0  0  0  0  0  0  0  0
   15.4792   -0.3592  -20.8736 C   0  0  0  0  0  0  0  0  0  0  0  0
   15.8424    0.6331  -21.6865 F   0  0  0  0  0  0  0  0  0  0  0  0
   16.4901   -0.6285  -20.0553 F   0  0  0  0  0  0  0  0  0  0  0  0
   15.2182   -1.4343  -21.6159 F   0  0  0  0  0  0  0  0  0  0  0  0
   13.9508    1.3810  -19.8049 C   0  0  0  0  0  0  0  0  0  0  0  0
   12.8502    1.7290  -18.9993 C   0  0  0  0  0  0  0  0  0  0  0  0
   11.2985    2.0853  -16.3766 C   0  0  0  0  0  0  0  0  0  0  0  0
    9.5533    6.7985   -9.3985 N   0  0  0  0  0  0  0  0  0  0  0  0
    8.6070    5.9723   -8.6647 C   0  0  0  0  0  0  0  0  0  0  0  0
   11.2760    9.1132   -7.0716 C   0  0  0  0  0  0  0  0  0  0  0  0
   11.6574    9.3085   -5.7273 C   0  0  0  0  0  0  0  0  0  0  0  0
   13.2271   10.1709   -3.3738 H   0  0  0  0  0  0  0  0  0  0  0  0
   11.4909   10.4212   -3.1048 H   0  0  0  0  0  0  0  0  0  0  0  0
   12.4946    9.7707   -1.8106 H   0  0  0  0  0  0  0  0  0  0  0  0
   11.2858    6.0938   -4.6211 H   0  0  0  0  0  0  0  0  0  0  0  0
   10.6314    5.7720   -6.9519 H   0  0  0  0  0  0  0  0  0  0  0  0
   10.7476    5.7243  -13.0667 H   0  0  0  0  0  0  0  0  0  0  0  0
   10.4850    4.4591  -11.8750 H   0  0  0  0  0  0  0  0  0  0  0  0
    8.7843    3.3983  -13.2800 H   0  0  0  0  0  0  0  0  0  0  0  0
    8.8806    4.6847  -14.4576 H   0  0  0  0  0  0  0  0  0  0  0  0
   11.2458    4.1584  -14.9174 H   0  0  0  0  0  0  0  0  0  0  0  0
   11.2359    2.8596  -13.7584 H   0  0  0  0  0  0  0  0  0  0  0  0
   10.2381    0.7668  -14.2950 H   0  0  0  0  0  0  0  0  0  0  0  0
    8.6643    1.5256  -14.4048 H   0  0  0  0  0  0  0  0  0  0  0  0
    8.7457   -0.6257  -15.6540 H   0  0  0  0  0  0  0  0  0  0  0  0
    8.3574    0.7144  -16.7159 H   0  0  0  0  0  0  0  0  0  0  0  0
   10.1409    1.5935  -18.1413 H   0  0  0  0  0  0  0  0  0  0  0  0
   11.7605   -1.4139  -18.2145 H   0  0  0  0  0  0  0  0  0  0  0  0
   13.6980   -2.0211  -19.6208 H   0  0  0  0  0  0  0  0  0  0  0  0
   14.5551    2.1618  -20.2438 H   0  0  0  0  0  0  0  0  0  0  0  0
   12.6245    2.7714  -18.8391 H   0  0  0  0  0  0  0  0  0  0  0  0
   11.7349    2.9831  -16.8137 H   0  0  0  0  0  0  0  0  0  0  0  0
   12.0835    1.6198  -15.7784 H   0  0  0  0  0  0  0  0  0  0  0  0
    7.6869    5.8520   -9.2309 H   0  0  0  0  0  0  0  0  0  0  0  0
    9.0380    4.9870   -8.4812 H   0  0  0  0  0  0  0  0  0  0  0  0
    8.3547    6.4471   -7.7155 H   0  0  0  0  0  0  0  0  0  0  0  0
   11.2860    9.9485   -7.7551 H   0  0  0  0  0  0  0  0  0  0  0  0
   11.9502   10.3006   -5.4208 H   0  0  0  0  0  0  0  0  0  0  0  0
  2  1  1  0
  3  2  2  0
  4  2  1  0
  5  4  1  0
  6  5  2  0
  7  6  1  0
  8  7  1  0
  9  8  2  0
 10  9  1  0
 11 10  2  0
 12 11  1  0
 13 12  1  0
 14 13  1  0
 15 14  1  0
 16 15  1  0
 17 16  1  0
 18 17  1  0
 19 18  1  0
 20 19  1  0
 21 20  1  0
 22 21  1  0
 23 22  2  0
 24 23  1  0
 25 24  1  0
 26 25  1  0
 27 25  1  0
 28 25  1  0
 29 24  2  0
 30 21  2  0
 30 29  1  0
 31 16  1  0
 31 20  1  0
 32  8  1  0
 32 11  1  0
 33 32  1  0
 34  7  2  0
 35  4  2  0
 35 34  1  0
 36  1  1  0
 37  1  1  0
 38  1  1  0
 39  5  1  0
 40  6  1  0
 41 13  1  0
 42 13  1  0
 43 14  1  0
 44 14  1  0
 45 15  1  0
 46 15  1  0
 47 17  1  0
 48 17  1  0
 49 18  1  0
 50 18  1  0
 20 51  1  6
 52 22  1  0
 53 23  1  0
 54 29  1  0
 55 30  1  0
 56 31  1  0
 57 31  1  0
 58 33  1  0
 59 33  1  0
 60 33  1  0
 61 34  1  0
 62 35  1  0
M  END
>  <b_m_subgroup_collapsed>  (651) 
0

>  <r_i_docking_score>  (651) 
-7.5894829284759204

>  <s_m_subgroup_title>  (651) 
glide-dock_SP_D22_pv

>  <s_m_subgroupid>  (651) 
glide-dock_SP_D22_pv

>  <Molecule ChEMBL ID>  (651) 
CHEMBL3765267

>  <Standard Type>  (651) 
Ki

>  <Standard Value>  (651) 
19952.62

>  <label>  (651) 
0

$$$$
CHEMBL5723023
     RDKit          3D

 43 45  0  0  1  0  0  0  0  0999 V2000
    8.8861    6.7539   -7.9374 N   0  0  0  0  0  0  0  0  0  0  0  0
   10.2156    6.7963   -7.8477 C   0  0  0  0  0  0  0  0  0  0  0  0
   10.8836    5.7725   -7.8460 O   0  0  0  0  0  0  0  0  0  0  0  0
   10.8979    8.1694   -7.7681 C   0  0  2  0  0  0  0  0  0  0  0  0
   10.4760    8.9566   -6.4999 C   0  0  0  0  0  0  0  0  0  0  0  0
   11.1374    8.5949   -5.1677 C   0  0  0  0  0  0  0  0  0  0  0  0
   11.4888    9.6415   -4.2889 C   0  0  0  0  0  0  0  0  0  0  0  0
   12.0857    9.3657   -3.0444 C   0  0  0  0  0  0  0  0  0  0  0  0
   12.3237    8.0355   -2.6548 C   0  0  0  0  0  0  0  0  0  0  0  0
   11.9635    6.9812   -3.5130 C   0  0  0  0  0  0  0  0  0  0  0  0
   11.3673    7.2582   -4.7602 C   0  0  0  0  0  0  0  0  0  0  0  0
   10.6255    8.9723   -8.9820 N   0  0  0  0  0  0  0  0  0  0  0  0
   11.5566    8.7283  -10.0898 C   0  0  0  0  0  0  0  0  0  0  0  0
   11.0987    7.7136  -11.1301 C   0  0  0  0  0  0  0  0  0  0  0  0
   11.8722    7.3722  -12.1838 C   0  0  0  0  0  0  0  0  0  0  0  0
   11.4098    6.3838  -13.1845 C   0  0  0  0  0  0  0  0  0  0  0  0
   12.0862    6.1039  -14.1732 O   0  0  0  0  0  0  0  0  0  0  0  0
   10.0839    5.7515  -12.9156 C   0  0  0  0  0  0  0  0  0  0  0  0
    9.5713    4.7439  -13.7616 C   0  0  0  0  0  0  0  0  0  0  0  0
    8.3207    4.1575  -13.4845 C   0  0  0  0  0  0  0  0  0  0  0  0
    7.8341    3.1889  -14.2942 F   0  0  0  0  0  0  0  0  0  0  0  0
    7.5764    4.5724  -12.3634 C   0  0  0  0  0  0  0  0  0  0  0  0
    8.0864    5.5682  -11.5121 C   0  0  0  0  0  0  0  0  0  0  0  0
    9.3309    6.1653  -11.7904 C   0  0  0  0  0  0  0  0  0  0  0  0
    9.8394    7.1644  -10.9578 N   0  0  0  0  0  0  0  0  0  0  0  0
    8.4215    5.8620   -8.0030 H   0  0  0  0  0  0  0  0  0  0  0  0
    8.3213    7.5939   -7.9536 H   0  0  0  0  0  0  0  0  0  0  0  0
   11.9750    8.0141   -7.6825 H   0  0  0  0  0  0  0  0  0  0  0  0
    9.3955    8.9115   -6.3584 H   0  0  0  0  0  0  0  0  0  0  0  0
   10.6908   10.0121   -6.6737 H   0  0  0  0  0  0  0  0  0  0  0  0
   11.2860   10.6669   -4.5624 H   0  0  0  0  0  0  0  0  0  0  0  0
   12.3479   10.1726   -2.3785 H   0  0  0  0  0  0  0  0  0  0  0  0
   12.7709    7.8266   -1.6942 H   0  0  0  0  0  0  0  0  0  0  0  0
   12.1314    5.9579   -3.2132 H   0  0  0  0  0  0  0  0  0  0  0  0
   11.0879    6.4200   -5.3771 H   0  0  0  0  0  0  0  0  0  0  0  0
   10.6589    9.9575   -8.7724 H   0  0  0  0  0  0  0  0  0  0  0  0
   11.6859    9.6707  -10.6233 H   0  0  0  0  0  0  0  0  0  0  0  0
   12.5534    8.4675   -9.7312 H   0  0  0  0  0  0  0  0  0  0  0  0
   12.8505    7.8111  -12.3206 H   0  0  0  0  0  0  0  0  0  0  0  0
   10.1327    4.4131  -14.6225 H   0  0  0  0  0  0  0  0  0  0  0  0
    6.6202    4.1198  -12.1479 H   0  0  0  0  0  0  0  0  0  0  0  0
    7.5153    5.8699  -10.6471 H   0  0  0  0  0  0  0  0  0  0  0  0
    9.2986    7.4511  -10.1500 H   0  0  0  0  0  0  0  0  0  0  0  0
  2  1  1  0
  3  2  2  0
  4  2  1  0
  5  4  1  0
  6  5  1  0
  7  6  2  0
  8  7  1  0
  9  8  2  0
 10  9  1  0
 11  6  1  0
 11 10  2  0
 12  4  1  0
 13 12  1  0
 14 13  1  0
 15 14  2  0
 16 15  1  0
 17 16  2  0
 18 16  1  0
 19 18  2  0
 20 19  1  0
 21 20  1  0
 22 20  2  0
 23 22  1  0
 24 18  1  0
 24 23  2  0
 25 14  1  0
 25 24  1  0
 26  1  1  0
 27  1  1  0
  4 28  1  1
 29  5  1  0
 30  5  1  0
 31  7  1  0
 32  8  1  0
 33  9  1  0
 34 10  1  0
 35 11  1  0
 36 12  1  0
 37 13  1  0
 38 13  1  0
 39 15  1  0
 40 19  1  0
 41 22  1  0
 42 23  1  0
 43 25  1  0
M  END
>  <b_m_subgroup_collapsed>  (652) 
0

>  <r_i_docking_score>  (652) 
-7.5879446198204299

>  <s_m_subgroup_title>  (652) 
glide-dock_SP_D22_pv

>  <s_m_subgroupid>  (652) 
glide-dock_SP_D22_pv

>  <Molecule ChEMBL ID>  (652) 
CHEMBL5723023

>  <Standard Type>  (652) 
Ki

>  <Standard Value>  (652) 
10000.0

>  <label>  (652) 
0

$$$$
CHEMBL3322999
     RDKit          3D

 64 68  0  0  1  0  0  0  0  0999 V2000
    9.2868    8.9724   -8.0759 O   0  0  0  0  0  0  0  0  0  0  0  0
   10.3665    8.4613   -7.7874 C   0  0  0  0  0  0  0  0  0  0  0  0
   11.2244    7.9660   -8.6892 N   0  0  0  0  0  0  0  0  0  0  0  0
   11.0452    8.0479  -10.1329 C   0  0  0  0  0  0  0  0  0  0  0  0
   10.0804    6.9708  -10.6556 C   0  0  0  0  0  0  0  0  0  0  0  0
    9.8085    7.1256  -12.1573 C   0  0  0  0  0  0  0  0  0  0  0  0
    8.9423    5.9903  -12.7310 C   0  0  0  0  0  0  0  0  0  0  0  0
    9.7551    4.9255  -13.3832 N   0  0  0  0  0  0  0  0  0  0  0  0
   10.0785    5.2397  -14.8047 C   0  0  0  0  0  0  0  0  0  0  0  0
   10.8689    4.1164  -15.4965 C   0  0  0  0  0  0  0  0  0  0  0  0
   10.1633    2.8546  -15.3255 N   0  0  0  0  0  0  0  0  0  0  0  0
   10.2401    1.8651  -16.3268 C   0  0  0  0  0  0  0  0  0  0  0  0
   11.4427    1.6806  -17.0463 C   0  0  0  0  0  0  0  0  0  0  0  0
   11.4933    0.7220  -18.0797 C   0  0  0  0  0  0  0  0  0  0  0  0
   12.7367    0.5254  -18.9433 C   0  0  0  0  0  0  0  0  0  0  0  0
   13.2261   -0.7029  -18.7673 F   0  0  0  0  0  0  0  0  0  0  0  0
   12.4163    0.6768  -20.2301 F   0  0  0  0  0  0  0  0  0  0  0  0
   13.6847    1.4156  -18.6543 F   0  0  0  0  0  0  0  0  0  0  0  0
   10.4396   -0.0593  -18.3919 N   0  0  0  0  0  0  0  0  0  0  0  0
    9.2718    0.1146  -17.7407 C   0  0  0  0  0  0  0  0  0  0  0  0
    8.1612   -0.6618  -18.1285 C   0  0  0  0  0  0  0  0  0  0  0  0
    6.9086   -0.5049  -17.5107 C   0  0  0  0  0  0  0  0  0  0  0  0
    6.7498    0.4485  -16.4939 C   0  0  0  0  0  0  0  0  0  0  0  0
    7.8436    1.2387  -16.0952 C   0  0  0  0  0  0  0  0  0  0  0  0
    9.1165    1.0738  -16.6975 C   0  0  0  0  0  0  0  0  0  0  0  0
    9.9239    2.4708  -13.9403 C   0  0  0  0  0  0  0  0  0  0  0  0
    9.1387    3.5837  -13.2147 C   0  0  0  0  0  0  0  0  0  0  0  0
   10.8689    8.3789   -6.3956 C   0  0  0  0  0  0  0  0  0  0  0  0
   11.2694    7.2311   -5.7675 C   0  0  0  0  0  0  0  0  0  0  0  0
   11.6527    7.5975   -4.4929 N   0  0  0  0  0  0  0  0  0  0  0  0
   12.0860    6.8469   -3.4452 C   0  0  0  0  0  0  0  0  0  0  0  0
   12.4429    7.4656   -2.2742 C   0  0  0  0  0  0  0  0  0  0  0  0
   12.3249    8.8675   -2.1426 C   0  0  0  0  0  0  0  0  0  0  0  0
   11.8330    9.6229   -3.1804 C   0  0  0  0  0  0  0  0  0  0  0  0
   11.4905    9.0031   -4.4098 C   0  0  0  0  0  0  0  0  0  0  0  0
   10.9985    9.4785   -5.5509 N   0  0  0  0  0  0  0  0  0  0  0  0
   12.0957    7.5946   -8.3414 H   0  0  0  0  0  0  0  0  0  0  0  0
   12.0212    7.9418  -10.6089 H   0  0  0  0  0  0  0  0  0  0  0  0
   10.6800    9.0411  -10.4001 H   0  0  0  0  0  0  0  0  0  0  0  0
    9.1320    7.0331  -10.1190 H   0  0  0  0  0  0  0  0  0  0  0  0
   10.4821    5.9812  -10.4399 H   0  0  0  0  0  0  0  0  0  0  0  0
   10.7446    7.2235  -12.7053 H   0  0  0  0  0  0  0  0  0  0  0  0
    9.2788    8.0691  -12.2948 H   0  0  0  0  0  0  0  0  0  0  0  0
    8.2232    6.3905  -13.4481 H   0  0  0  0  0  0  0  0  0  0  0  0
    8.3315    5.5738  -11.9255 H   0  0  0  0  0  0  0  0  0  0  0  0
   10.6394    6.1721  -14.8711 H   0  0  0  0  0  0  0  0  0  0  0  0
    9.1464    5.3782  -15.3535 H   0  0  0  0  0  0  0  0  0  0  0  0
   11.8706    4.0336  -15.0707 H   0  0  0  0  0  0  0  0  0  0  0  0
   10.9867    4.3475  -16.5567 H   0  0  0  0  0  0  0  0  0  0  0  0
   12.3189    2.2700  -16.8206 H   0  0  0  0  0  0  0  0  0  0  0  0
    8.2763   -1.3928  -18.9149 H   0  0  0  0  0  0  0  0  0  0  0  0
    6.0712   -1.1172  -17.8154 H   0  0  0  0  0  0  0  0  0  0  0  0
    5.7862    0.5728  -16.0201 H   0  0  0  0  0  0  0  0  0  0  0  0
    7.6789    1.9757  -15.3255 H   0  0  0  0  0  0  0  0  0  0  0  0
    9.3918    1.5209  -13.8727 H   0  0  0  0  0  0  0  0  0  0  0  0
   10.8859    2.3124  -13.4511 H   0  0  0  0  0  0  0  0  0  0  0  0
    9.0827    3.3720  -12.1486 H   0  0  0  0  0  0  0  0  0  0  0  0
    8.1142    3.6113  -13.5923 H   0  0  0  0  0  0  0  0  0  0  0  0
   11.2951    6.1960   -6.0766 H   0  0  0  0  0  0  0  0  0  0  0  0
   12.1404    5.7724   -3.5916 H   0  0  0  0  0  0  0  0  0  0  0  0
   12.8126    6.8656   -1.4514 H   0  0  0  0  0  0  0  0  0  0  0  0
   12.5953    9.3544   -1.2111 H   0  0  0  0  0  0  0  0  0  0  0  0
   11.6906   10.6910   -3.0598 H   0  0  0  0  0  0  0  0  0  0  0  0
   10.6355    4.8797  -12.8911 H   0  0  0  0  0  0  0  0  0  0  0  0
  2  1  2  0
  3  2  1  0
  4  3  1  0
  5  4  1  0
  6  5  1  0
  7  6  1  0
  8  7  1  0
  9  8  1  0
 10  9  1  0
 11 10  1  0
 12 11  1  0
 13 12  2  0
 14 13  1  0
 15 14  1  0
 16 15  1  0
 17 15  1  0
 18 15  1  0
 19 14  2  0
 20 19  1  0
 21 20  2  0
 22 21  1  0
 23 22  2  0
 24 23  1  0
 25 12  1  0
 25 20  1  0
 25 24  2  0
 26 11  1  0
 27  8  1  0
 27 26  1  0
 28  2  1  0
 29 28  2  0
 30 29  1  0
 31 30  1  0
 32 31  2  0
 33 32  1  0
 34 33  2  0
 35 30  1  0
 35 34  1  0
 36 28  1  0
 36 35  2  0
 37  3  1  0
 38  4  1  0
 39  4  1  0
 40  5  1  0
 41  5  1  0
 42  6  1  0
 43  6  1  0
 44  7  1  0
 45  7  1  0
 46  9  1  0
 47  9  1  0
 48 10  1  0
 49 10  1  0
 50 13  1  0
 51 21  1  0
 52 22  1  0
 53 23  1  0
 54 24  1  0
 55 26  1  0
 56 26  1  0
 57 27  1  0
 58 27  1  0
 59 29  1  0
 60 31  1  0
 61 32  1  0
 62 33  1  0
 63 34  1  0
 64  8  1  0
M  CHG  1   8   1
M  END
>  <b_m_subgroup_collapsed>  (653) 
0

>  <r_i_docking_score>  (653) 
-7.5835751901839803

>  <s_m_subgroup_title>  (653) 
glide-dock_SP_D22_pv

>  <s_m_subgroupid>  (653) 
glide-dock_SP_D22_pv

>  <Molecule ChEMBL ID>  (653) 
CHEMBL3322999

>  <Standard Type>  (653) 
Ki

>  <Standard Value>  (653) 
13567.0

>  <label>  (653) 
0

$$$$
CHEMBL4169834
     RDKit          3D

 47 49  0  0  1  0  0  0  0  0999 V2000
    5.8552    3.9917  -13.7209 C   0  0  0  0  0  0  0  0  0  0  0  0
    6.9706    4.1814  -12.7717 N   0  0  0  0  0  0  0  0  0  0  0  0
    6.7579    5.3271  -11.8610 C   0  0  0  0  0  0  0  0  0  0  0  0
    7.8159    5.2992  -10.7488 C   0  0  0  0  0  0  0  0  0  0  0  0
    9.1607    5.2603  -11.3060 N   0  0  0  0  0  0  0  0  0  0  0  0
   10.0841    6.3001  -11.0438 C   0  0  0  0  0  0  0  0  0  0  0  0
   10.8559    6.7888  -12.1275 C   0  0  0  0  0  0  0  0  0  0  0  0
   11.9092    7.6885  -11.9180 C   0  0  0  0  0  0  0  0  0  0  0  0
   12.1273    8.2225  -10.6468 C   0  0  0  0  0  0  0  0  0  0  0  0
   11.3408    7.8048   -9.5707 C   0  0  0  0  0  0  0  0  0  0  0  0
   10.3426    6.8127   -9.7303 C   0  0  0  0  0  0  0  0  0  0  0  0
    9.6255    6.2912   -8.4758 C   0  0  0  0  0  0  0  0  0  0  0  0
   10.3016    6.5811   -7.2127 N   0  0  0  0  0  0  0  0  0  0  0  0
   10.1077    7.6978   -6.4890 C   0  0  0  0  0  0  0  0  0  0  0  0
    9.2949    8.5682   -6.7999 O   0  0  0  0  0  0  0  0  0  0  0  0
   11.0064    7.8572   -5.2917 C   0  0  0  0  0  0  0  0  0  0  0  0
   11.2861    6.7329   -4.4825 C   0  0  0  0  0  0  0  0  0  0  0  0
   12.0171    6.8501   -3.2873 C   0  0  0  0  0  0  0  0  0  0  0  0
   12.4860    8.1082   -2.8845 C   0  0  0  0  0  0  0  0  0  0  0  0
   12.2500    9.2289   -3.6960 C   0  0  0  0  0  0  0  0  0  0  0  0
   11.5184    9.1218   -4.8969 C   0  0  0  0  0  0  0  0  0  0  0  0
   11.2901   10.5525   -5.8467 Cl  0  0  0  0  0  0  0  0  0  0  0  0
    9.4184    4.2500  -12.3353 C   0  0  0  0  0  0  0  0  0  0  0  0
    8.3105    4.2436  -13.4081 C   0  0  0  0  0  0  0  0  0  0  0  0
    5.6265    4.9146  -14.2470 H   0  0  0  0  0  0  0  0  0  0  0  0
    6.0859    3.2168  -14.4520 H   0  0  0  0  0  0  0  0  0  0  0  0
    4.9522    3.6875  -13.1878 H   0  0  0  0  0  0  0  0  0  0  0  0
    5.7511    5.2917  -11.4460 H   0  0  0  0  0  0  0  0  0  0  0  0
    6.8253    6.2645  -12.4159 H   0  0  0  0  0  0  0  0  0  0  0  0
    7.6861    4.4246  -10.1111 H   0  0  0  0  0  0  0  0  0  0  0  0
    7.6843    6.1724  -10.1284 H   0  0  0  0  0  0  0  0  0  0  0  0
   10.6884    6.4414  -13.1353 H   0  0  0  0  0  0  0  0  0  0  0  0
   12.5183    8.0105  -12.7505 H   0  0  0  0  0  0  0  0  0  0  0  0
   12.8869    8.9700  -10.5001 H   0  0  0  0  0  0  0  0  0  0  0  0
   11.5589    8.2505   -8.6145 H   0  0  0  0  0  0  0  0  0  0  0  0
    9.5194    5.2096   -8.5449 H   0  0  0  0  0  0  0  0  0  0  0  0
    8.6215    6.7102   -8.4215 H   0  0  0  0  0  0  0  0  0  0  0  0
   10.9878    5.9164   -6.8898 H   0  0  0  0  0  0  0  0  0  0  0  0
   10.8882    5.7722   -4.7473 H   0  0  0  0  0  0  0  0  0  0  0  0
   12.1945    5.9795   -2.6715 H   0  0  0  0  0  0  0  0  0  0  0  0
   13.0362    8.2179   -1.9626 H   0  0  0  0  0  0  0  0  0  0  0  0
   12.6494   10.1733   -3.3786 H   0  0  0  0  0  0  0  0  0  0  0  0
   10.3980    4.3601  -12.7990 H   0  0  0  0  0  0  0  0  0  0  0  0
    9.4532    3.2779  -11.8468 H   0  0  0  0  0  0  0  0  0  0  0  0
    8.4505    3.3904  -14.0725 H   0  0  0  0  0  0  0  0  0  0  0  0
    8.3783    5.1402  -14.0262 H   0  0  0  0  0  0  0  0  0  0  0  0
    6.9837    3.3613  -12.1824 H   0  0  0  0  0  0  0  0  0  0  0  0
  2  1  1  0
  3  2  1  0
  4  3  1  0
  5  4  1  0
  6  5  1  0
  7  6  2  0
  8  7  1  0
  9  8  2  0
 10  9  1  0
 11  6  1  0
 11 10  2  0
 12 11  1  0
 13 12  1  0
 14 13  1  0
 15 14  2  0
 16 14  1  0
 17 16  2  0
 18 17  1  0
 19 18  2  0
 20 19  1  0
 21 16  1  0
 21 20  2  0
 22 21  1  0
 23  5  1  0
 24  2  1  0
 24 23  1  0
 25  1  1  0
 26  1  1  0
 27  1  1  0
 28  3  1  0
 29  3  1  0
 30  4  1  0
 31  4  1  0
 32  7  1  0
 33  8  1  0
 34  9  1  0
 35 10  1  0
 36 12  1  0
 37 12  1  0
 38 13  1  0
 39 17  1  0
 40 18  1  0
 41 19  1  0
 42 20  1  0
 43 23  1  0
 44 23  1  0
 45 24  1  0
 46 24  1  0
 47  2  1  0
M  CHG  1   2   1
M  END
>  <b_m_subgroup_collapsed>  (654) 
0

>  <r_i_docking_score>  (654) 
-7.5819444436936099

>  <s_m_subgroup_title>  (654) 
glide-dock_SP_D22_pv

>  <s_m_subgroupid>  (654) 
glide-dock_SP_D22_pv

>  <Molecule ChEMBL ID>  (654) 
CHEMBL4169834

>  <Standard Type>  (654) 
Ki

>  <Standard Value>  (654) 
10000.0

>  <label>  (654) 
0

$$$$
CHEMBL1632158
     RDKit          3D

 68 71  0  0  1  0  0  0  0  0999 V2000
   12.8852    8.7358   -1.5275 C   0  0  0  0  0  0  0  0  0  0  0  0
   12.4860    7.7373   -2.4453 O   0  0  0  0  0  0  0  0  0  0  0  0
   11.9202    8.0960   -3.6004 C   0  0  0  0  0  0  0  0  0  0  0  0
   11.6918    9.2534   -3.9466 O   0  0  0  0  0  0  0  0  0  0  0  0
   11.5864    6.8714   -4.4616 C   0  0  0  0  0  0  0  0  0  0  0  0
   10.4577    6.9748   -5.5055 C   0  0  0  0  0  0  0  0  0  0  0  0
   10.4334    8.1890   -6.4518 C   0  0  0  0  0  0  0  0  0  0  0  0
    9.3474    8.0756   -7.5359 C   0  0  0  0  0  0  0  0  0  0  0  0
    9.4947    6.7819   -8.3630 C   0  0  0  0  0  0  0  0  0  0  0  0
    8.8860    6.8423   -9.7105 N   0  0  2  0  0  0  0  0  0  0  0  0
    8.6778    5.4792  -10.2640 C   0  0  0  0  0  0  0  0  0  0  0  0
    7.9711    5.5330  -11.6279 C   0  0  0  0  0  0  0  0  0  0  0  0
    8.7349    6.4155  -12.6367 C   0  0  2  0  0  0  0  0  0  0  0  0
   10.0400    5.7580  -13.1418 C   0  0  0  0  0  0  0  0  0  0  0  0
    9.7577    4.5871  -13.9584 N   0  0  0  0  0  0  0  0  0  0  0  0
   10.6900    3.7292  -14.3923 C   0  0  0  0  0  0  0  0  0  0  0  0
   11.8886    3.8806  -14.1642 O   0  0  0  0  0  0  0  0  0  0  0  0
   10.1773    2.6168  -15.2406 C   0  0  0  0  0  0  0  0  0  0  0  0
   10.8414    1.9741  -16.2516 C   0  0  0  0  0  0  0  0  0  0  0  0
   10.0238    0.9617  -16.7567 N   0  0  0  0  0  0  0  0  0  0  0  0
    8.8097    0.9678  -16.0837 C   0  0  0  0  0  0  0  0  0  0  0  0
    7.6575    0.1723  -16.2370 C   0  0  0  0  0  0  0  0  0  0  0  0
    6.5605    0.3551  -15.3772 C   0  0  0  0  0  0  0  0  0  0  0  0
    6.6140    1.3426  -14.3790 C   0  0  0  0  0  0  0  0  0  0  0  0
    7.7594    2.1523  -14.2475 C   0  0  0  0  0  0  0  0  0  0  0  0
    8.8867    1.9931  -15.0940 C   0  0  0  0  0  0  0  0  0  0  0  0
   10.3929    0.0593  -17.8340 C   0  0  0  0  0  0  0  0  0  0  0  0
   11.8759    0.2093  -18.1944 C   0  0  0  0  0  0  0  0  0  0  0  0
   12.3038    1.6778  -18.0853 C   0  0  0  0  0  0  0  0  0  0  0  0
   12.0864    2.1605  -16.7632 O   0  0  0  0  0  0  0  0  0  0  0  0
    8.9756    7.7996  -12.0031 C   0  0  0  0  0  0  0  0  0  0  0  0
    9.6658    7.6967  -10.6406 C   0  0  0  0  0  0  0  0  0  0  0  0
   13.3091    8.2604   -0.6471 H   0  0  0  0  0  0  0  0  0  0  0  0
   13.6531    9.3719   -1.9662 H   0  0  0  0  0  0  0  0  0  0  0  0
   12.0430    9.3575   -1.2175 H   0  0  0  0  0  0  0  0  0  0  0  0
   11.3593    6.0425   -3.7916 H   0  0  0  0  0  0  0  0  0  0  0  0
   12.4862    6.5752   -4.9857 H   0  0  0  0  0  0  0  0  0  0  0  0
    9.4850    6.8540   -5.0468 H   0  0  0  0  0  0  0  0  0  0  0  0
   10.5740    6.0798   -6.1085 H   0  0  0  0  0  0  0  0  0  0  0  0
   11.4095    8.3091   -6.9230 H   0  0  0  0  0  0  0  0  0  0  0  0
   10.2431    9.1059   -5.8948 H   0  0  0  0  0  0  0  0  0  0  0  0
    9.4045    8.9675   -8.1565 H   0  0  0  0  0  0  0  0  0  0  0  0
    8.3562    8.1017   -7.0782 H   0  0  0  0  0  0  0  0  0  0  0  0
    9.0313    5.9709   -7.7974 H   0  0  0  0  0  0  0  0  0  0  0  0
   10.5489    6.5166   -8.4751 H   0  0  0  0  0  0  0  0  0  0  0  0
    8.0840    4.8856   -9.5696 H   0  0  0  0  0  0  0  0  0  0  0  0
    9.6362    4.9643  -10.3494 H   0  0  0  0  0  0  0  0  0  0  0  0
    6.9637    5.9291  -11.4902 H   0  0  0  0  0  0  0  0  0  0  0  0
    7.8371    4.5233  -12.0082 H   0  0  0  0  0  0  0  0  0  0  0  0
    8.0861    6.5646  -13.5002 H   0  0  0  0  0  0  0  0  0  0  0  0
   10.6687    5.4688  -12.3031 H   0  0  0  0  0  0  0  0  0  0  0  0
   10.6409    6.4549  -13.7278 H   0  0  0  0  0  0  0  0  0  0  0  0
    8.7998    4.4254  -14.2318 H   0  0  0  0  0  0  0  0  0  0  0  0
    7.6250   -0.6015  -16.9887 H   0  0  0  0  0  0  0  0  0  0  0  0
    5.6832   -0.2706  -15.4797 H   0  0  0  0  0  0  0  0  0  0  0  0
    5.7769    1.4789  -13.7110 H   0  0  0  0  0  0  0  0  0  0  0  0
    7.7736    2.8888  -13.4592 H   0  0  0  0  0  0  0  0  0  0  0  0
   10.1656   -0.9669  -17.5417 H   0  0  0  0  0  0  0  0  0  0  0  0
    9.7711    0.3024  -18.6962 H   0  0  0  0  0  0  0  0  0  0  0  0
   12.4823   -0.3802  -17.5088 H   0  0  0  0  0  0  0  0  0  0  0  0
   12.0665   -0.1805  -19.1956 H   0  0  0  0  0  0  0  0  0  0  0  0
   13.3615    1.7796  -18.3237 H   0  0  0  0  0  0  0  0  0  0  0  0
   11.7540    2.2947  -18.7975 H   0  0  0  0  0  0  0  0  0  0  0  0
    9.5792    8.4346  -12.6465 H   0  0  0  0  0  0  0  0  0  0  0  0
    8.0216    8.3161  -11.8826 H   0  0  0  0  0  0  0  0  0  0  0  0
    9.7771    8.7048  -10.2454 H   0  0  0  0  0  0  0  0  0  0  0  0
   10.6753    7.2998  -10.7536 H   0  0  0  0  0  0  0  0  0  0  0  0
    7.9506    7.2530   -9.6435 H   0  0  0  0  0  0  0  0  0  0  0  0
  2  1  1  0
  3  2  1  0
  4  3  2  0
  5  3  1  0
  6  5  1  0
  7  6  1  0
  8  7  1  0
  9  8  1  0
 10  9  1  0
 11 10  1  0
 12 11  1  0
 13 12  1  0
 14 13  1  0
 15 14  1  0
 16 15  1  0
 17 16  2  0
 18 16  1  0
 19 18  2  0
 20 19  1  0
 21 20  1  0
 22 21  2  0
 23 22  1  0
 24 23  2  0
 25 24  1  0
 26 18  1  0
 26 21  1  0
 26 25  2  0
 27 20  1  0
 28 27  1  0
 29 28  1  0
 30 19  1  0
 30 29  1  0
 31 13  1  0
 32 10  1  0
 32 31  1  0
 33  1  1  0
 34  1  1  0
 35  1  1  0
 36  5  1  0
 37  5  1  0
 38  6  1  0
 39  6  1  0
 40  7  1  0
 41  7  1  0
 42  8  1  0
 43  8  1  0
 44  9  1  0
 45  9  1  0
 46 11  1  0
 47 11  1  0
 48 12  1  0
 49 12  1  0
 13 50  1  6
 51 14  1  0
 52 14  1  0
 53 15  1  0
 54 22  1  0
 55 23  1  0
 56 24  1  0
 57 25  1  0
 58 27  1  0
 59 27  1  0
 60 28  1  0
 61 28  1  0
 62 29  1  0
 63 29  1  0
 64 31  1  0
 65 31  1  0
 66 32  1  0
 67 32  1  0
 10 68  1  1
M  CHG  1  10   1
M  END
>  <b_m_subgroup_collapsed>  (655) 
0

>  <r_i_docking_score>  (655) 
-7.5813587980140298

>  <s_m_subgroup_title>  (655) 
glide-dock_SP_D22_pv

>  <s_m_subgroupid>  (655) 
glide-dock_SP_D22_pv

>  <Molecule ChEMBL ID>  (655) 
CHEMBL1632158

>  <Standard Type>  (655) 
Ki

>  <Standard Value>  (655) 
10000.0

>  <label>  (655) 
0

$$$$
CHEMBL1076586
     RDKit          3D

 54 58  0  0  1  0  0  0  0  0999 V2000
   11.6972    7.2748  -13.0004 O   0  0  0  0  0  0  0  0  0  0  0  0
   10.7497    6.5723  -12.6464 C   0  0  0  0  0  0  0  0  0  0  0  0
   10.4566    5.3309  -13.4456 C   0  0  0  0  0  0  0  0  0  0  0  0
    9.1530    5.0076  -13.8805 C   0  0  0  0  0  0  0  0  0  0  0  0
    8.9233    3.8522  -14.6494 C   0  0  0  0  0  0  0  0  0  0  0  0
    9.9884    3.0218  -15.0638 C   0  0  0  0  0  0  0  0  0  0  0  0
    9.7562    1.8484  -15.9359 C   0  0  0  0  0  0  0  0  0  0  0  0
    8.5270    1.1490  -15.9060 C   0  0  0  0  0  0  0  0  0  0  0  0
    8.2902    0.0607  -16.7653 C   0  0  0  0  0  0  0  0  0  0  0  0
    9.2891   -0.3673  -17.6578 C   0  0  0  0  0  0  0  0  0  0  0  0
   10.5234    0.3037  -17.6922 C   0  0  0  0  0  0  0  0  0  0  0  0
   10.7489    1.4037  -16.8435 C   0  0  0  0  0  0  0  0  0  0  0  0
   11.2894    3.3709  -14.6436 C   0  0  0  0  0  0  0  0  0  0  0  0
   11.5258    4.5067  -13.8480 C   0  0  0  0  0  0  0  0  0  0  0  0
   10.0074    6.8599  -11.5445 N   0  0  0  0  0  0  0  0  0  0  0  0
   10.3030    8.0227  -10.6945 C   0  0  0  0  0  0  0  0  0  0  0  0
   10.9916    7.5226   -9.4152 C   0  0  0  0  0  0  0  0  0  0  0  0
   10.0554    6.6389   -8.7109 N   0  0  0  0  0  0  0  0  0  0  0  0
    9.6117    6.7855   -7.4450 C   0  0  0  0  0  0  0  0  0  0  0  0
    8.6357    6.1724   -7.0247 O   0  0  0  0  0  0  0  0  0  0  0  0
   10.4086    7.6030   -6.4674 C   0  0  0  0  0  0  0  0  0  0  0  0
   10.3983    9.0128   -6.5005 C   0  0  0  0  0  0  0  0  0  0  0  0
   10.9745    9.7598   -5.4499 C   0  0  0  0  0  0  0  0  0  0  0  0
   11.5576    9.1173   -4.3312 C   0  0  0  0  0  0  0  0  0  0  0  0
   12.0873    9.5536   -3.0711 C   0  0  0  0  0  0  0  0  0  0  0  0
   12.4858    8.4339   -2.3901 C   0  0  0  0  0  0  0  0  0  0  0  0
   12.2165    7.3216   -3.1676 N   0  0  0  0  0  0  0  0  0  0  0  0
   11.6229    7.6954   -4.3560 C   0  0  0  0  0  0  0  0  0  0  0  0
   11.0655    6.9488   -5.4056 C   0  0  0  0  0  0  0  0  0  0  0  0
    9.5962    5.5078   -9.5347 C   0  0  0  0  0  0  0  0  0  0  0  0
    9.0258    5.9871  -10.8793 C   0  0  0  0  0  0  0  0  0  0  0  0
    8.3179    5.6438  -13.6241 H   0  0  0  0  0  0  0  0  0  0  0  0
    7.9146    3.6267  -14.9523 H   0  0  0  0  0  0  0  0  0  0  0  0
    7.7469    1.4378  -15.2177 H   0  0  0  0  0  0  0  0  0  0  0  0
    7.3457   -0.4629  -16.7253 H   0  0  0  0  0  0  0  0  0  0  0  0
    9.1092   -1.2104  -18.3085 H   0  0  0  0  0  0  0  0  0  0  0  0
   11.2948   -0.0180  -18.3758 H   0  0  0  0  0  0  0  0  0  0  0  0
   11.6984    1.9131  -16.9121 H   0  0  0  0  0  0  0  0  0  0  0  0
   12.1285    2.7615  -14.9335 H   0  0  0  0  0  0  0  0  0  0  0  0
   12.5375    4.7461  -13.5512 H   0  0  0  0  0  0  0  0  0  0  0  0
   10.9454    8.7528  -11.1794 H   0  0  0  0  0  0  0  0  0  0  0  0
    9.3782    8.5511  -10.4544 H   0  0  0  0  0  0  0  0  0  0  0  0
   11.8971    6.9732   -9.6692 H   0  0  0  0  0  0  0  0  0  0  0  0
   11.3155    8.3770   -8.8262 H   0  0  0  0  0  0  0  0  0  0  0  0
    9.8869    9.5243   -7.3030 H   0  0  0  0  0  0  0  0  0  0  0  0
   10.9124   10.8377   -5.4668 H   0  0  0  0  0  0  0  0  0  0  0  0
   12.1417   10.5728   -2.7224 H   0  0  0  0  0  0  0  0  0  0  0  0
   12.9216    8.3448   -1.4058 H   0  0  0  0  0  0  0  0  0  0  0  0
   12.3799    6.3727   -2.8618 H   0  0  0  0  0  0  0  0  0  0  0  0
   11.0687    5.8700   -5.3507 H   0  0  0  0  0  0  0  0  0  0  0  0
   10.4497    4.8526   -9.6988 H   0  0  0  0  0  0  0  0  0  0  0  0
    8.8461    4.8854   -9.0441 H   0  0  0  0  0  0  0  0  0  0  0  0
    8.0950    6.5367  -10.7252 H   0  0  0  0  0  0  0  0  0  0  0  0
    8.7505    5.0989  -11.4382 H   0  0  0  0  0  0  0  0  0  0  0  0
  2  1  2  0
  3  2  1  0
  4  3  1  0
  5  4  2  0
  6  5  1  0
  7  6  1  0
  8  7  2  0
  9  8  1  0
 10  9  2  0
 11 10  1  0
 12  7  1  0
 12 11  2  0
 13  6  2  0
 14  3  2  0
 14 13  1  0
 15  2  1  0
 16 15  1  0
 17 16  1  0
 18 17  1  0
 19 18  1  0
 20 19  2  0
 21 19  1  0
 22 21  2  0
 23 22  1  0
 24 23  2  0
 25 24  1  0
 26 25  2  0
 27 26  1  0
 28 24  1  0
 28 27  1  0
 29 21  1  0
 29 28  2  0
 30 18  1  0
 31 15  1  0
 31 30  1  0
 32  4  1  0
 33  5  1  0
 34  8  1  0
 35  9  1  0
 36 10  1  0
 37 11  1  0
 38 12  1  0
 39 13  1  0
 40 14  1  0
 41 16  1  0
 42 16  1  0
 43 17  1  0
 44 17  1  0
 45 22  1  0
 46 23  1  0
 47 25  1  0
 48 26  1  0
 49 27  1  0
 50 29  1  0
 51 30  1  0
 52 30  1  0
 53 31  1  0
 54 31  1  0
M  END
>  <b_m_subgroup_collapsed>  (656) 
0

>  <r_i_docking_score>  (656) 
-7.5790903477743701

>  <s_m_subgroup_title>  (656) 
glide-dock_SP_D22_pv

>  <s_m_subgroupid>  (656) 
glide-dock_SP_D22_pv

>  <Molecule ChEMBL ID>  (656) 
CHEMBL1076586

>  <Standard Type>  (656) 
Ki

>  <Standard Value>  (656) 
10000.0

>  <label>  (656) 
0

$$$$
CHEMBL2029920
     RDKit          3D

 57 60  0  0  1  0  0  0  0  0999 V2000
    5.8596    3.1549  -13.4457 O   0  0  0  0  0  0  0  0  0  0  0  0
    6.8844    2.6176  -13.8621 C   0  0  0  0  0  0  0  0  0  0  0  0
    8.1044    3.1949  -13.8958 N   0  0  0  0  0  0  0  0  0  0  0  0
    8.5378    4.4174  -13.3070 C   0  0  0  0  0  0  0  0  0  0  0  0
    9.9286    4.6617  -13.2437 C   0  0  0  0  0  0  0  0  0  0  0  0
   10.4295    5.8555  -12.6792 C   0  0  0  0  0  0  0  0  0  0  0  0
    9.5428    6.8175  -12.1605 C   0  0  0  0  0  0  0  0  0  0  0  0
   10.0486    8.1384  -11.5959 C   0  0  0  0  0  0  0  0  0  0  0  0
    9.5093    8.4750  -10.1937 C   0  0  0  0  0  0  0  0  0  0  0  0
   10.2416    7.8577   -9.0922 N   0  0  0  0  0  0  0  0  0  0  0  0
   11.3174    8.7747   -8.6853 C   0  0  0  0  0  0  0  0  0  0  0  0
   12.0111    8.2820   -7.4062 C   0  0  0  0  0  0  0  0  0  0  0  0
   11.0222    8.1199   -6.3498 N   0  0  0  0  0  0  0  0  0  0  0  0
   11.4751    8.1222   -5.0259 C   0  0  0  0  0  0  0  0  0  0  0  0
   11.6913    9.3612   -4.3910 C   0  0  0  0  0  0  0  0  0  0  0  0
   12.0864    9.4064   -3.0418 C   0  0  0  0  0  0  0  0  0  0  0  0
   12.2866    8.2123   -2.3236 C   0  0  0  0  0  0  0  0  0  0  0  0
   12.0876    6.9686   -2.9541 C   0  0  0  0  0  0  0  0  0  0  0  0
   11.6863    6.9258   -4.3033 C   0  0  0  0  0  0  0  0  0  0  0  0
    9.9788    7.1781   -6.7183 C   0  0  0  0  0  0  0  0  0  0  0  0
    9.2832    7.6973   -7.9857 C   0  0  0  0  0  0  0  0  0  0  0  0
    8.1580    6.5820  -12.2476 C   0  0  0  0  0  0  0  0  0  0  0  0
    7.6545    5.3979  -12.8033 C   0  0  0  0  0  0  0  0  0  0  0  0
    6.9274    1.3706  -14.3666 N   0  0  0  0  0  0  0  0  0  0  0  0
    5.8393    0.4839  -14.5730 C   0  0  0  0  0  0  0  0  0  0  0  0
    6.0168   -0.4381  -15.6270 C   0  0  0  0  0  0  0  0  0  0  0  0
    4.9654   -1.3056  -15.9764 C   0  0  0  0  0  0  0  0  0  0  0  0
    3.7583   -1.2204  -15.2654 C   0  0  0  0  0  0  0  0  0  0  0  0
    3.6747   -0.2998  -14.2081 C   0  0  0  0  0  0  0  0  0  0  0  0
    4.6930    0.5093  -13.8469 N   0  0  0  0  0  0  0  0  0  0  0  0
    8.8502    2.6317  -14.2730 H   0  0  0  0  0  0  0  0  0  0  0  0
   10.6238    3.9309  -13.6288 H   0  0  0  0  0  0  0  0  0  0  0  0
   11.4928    6.0436  -12.6488 H   0  0  0  0  0  0  0  0  0  0  0  0
   11.1376    8.1722  -11.6130 H   0  0  0  0  0  0  0  0  0  0  0  0
    9.6863    8.9057  -12.2827 H   0  0  0  0  0  0  0  0  0  0  0  0
    9.4553    9.5526  -10.0345 H   0  0  0  0  0  0  0  0  0  0  0  0
    8.4861    8.1420  -10.1553 H   0  0  0  0  0  0  0  0  0  0  0  0
   12.0486    8.8687   -9.4891 H   0  0  0  0  0  0  0  0  0  0  0  0
   10.9189    9.7716   -8.4970 H   0  0  0  0  0  0  0  0  0  0  0  0
   12.4862    7.3210   -7.5976 H   0  0  0  0  0  0  0  0  0  0  0  0
   12.7907    8.9808   -7.1023 H   0  0  0  0  0  0  0  0  0  0  0  0
   11.5298   10.2803   -4.9350 H   0  0  0  0  0  0  0  0  0  0  0  0
   12.2279   10.3606   -2.5588 H   0  0  0  0  0  0  0  0  0  0  0  0
   12.5877    8.2549   -1.2881 H   0  0  0  0  0  0  0  0  0  0  0  0
   12.2342    6.0501   -2.4046 H   0  0  0  0  0  0  0  0  0  0  0  0
   11.5271    5.9684   -4.7767 H   0  0  0  0  0  0  0  0  0  0  0  0
   10.4069    6.1903   -6.8952 H   0  0  0  0  0  0  0  0  0  0  0  0
    9.2581    7.0798   -5.9061 H   0  0  0  0  0  0  0  0  0  0  0  0
    8.7911    8.6479   -7.7692 H   0  0  0  0  0  0  0  0  0  0  0  0
    8.4984    6.9974   -8.2796 H   0  0  0  0  0  0  0  0  0  0  0  0
    7.4649    7.3123  -11.8634 H   0  0  0  0  0  0  0  0  0  0  0  0
    6.5833    5.2873  -12.8300 H   0  0  0  0  0  0  0  0  0  0  0  0
    7.8084    1.0566  -14.7379 H   0  0  0  0  0  0  0  0  0  0  0  0
    6.9397   -0.4773  -16.1867 H   0  0  0  0  0  0  0  0  0  0  0  0
    5.0791   -2.0108  -16.7867 H   0  0  0  0  0  0  0  0  0  0  0  0
    2.9256   -1.8621  -15.5156 H   0  0  0  0  0  0  0  0  0  0  0  0
    2.7729   -0.2263  -13.6193 H   0  0  0  0  0  0  0  0  0  0  0  0
  2  1  2  0
  3  2  1  0
  4  3  1  0
  5  4  1  0
  6  5  2  0
  7  6  1  0
  8  7  1  0
  9  8  1  0
 10  9  1  0
 11 10  1  0
 12 11  1  0
 13 12  1  0
 14 13  1  0
 15 14  2  0
 16 15  1  0
 17 16  2  0
 18 17  1  0
 19 14  1  0
 19 18  2  0
 20 13  1  0
 21 10  1  0
 21 20  1  0
 22  7  2  0
 23  4  2  0
 23 22  1  0
 24  2  1  0
 25 24  1  0
 26 25  2  0
 27 26  1  0
 28 27  2  0
 29 28  1  0
 30 25  1  0
 30 29  2  0
 31  3  1  0
 32  5  1  0
 33  6  1  0
 34  8  1  0
 35  8  1  0
 36  9  1  0
 37  9  1  0
 38 11  1  0
 39 11  1  0
 40 12  1  0
 41 12  1  0
 42 15  1  0
 43 16  1  0
 44 17  1  0
 45 18  1  0
 46 19  1  0
 47 20  1  0
 48 20  1  0
 49 21  1  0
 50 21  1  0
 51 22  1  0
 52 23  1  0
 53 24  1  0
 54 26  1  0
 55 27  1  0
 56 28  1  0
 57 29  1  0
M  END
>  <b_m_subgroup_collapsed>  (657) 
0

>  <r_i_docking_score>  (657) 
-7.5768003875948899

>  <s_m_subgroup_title>  (657) 
glide-dock_SP_D22_pv

>  <s_m_subgroupid>  (657) 
glide-dock_SP_D22_pv

>  <Molecule ChEMBL ID>  (657) 
CHEMBL2029920

>  <Standard Type>  (657) 
Ki

>  <Standard Value>  (657) 
14.2

>  <label>  (657) 
1

$$$$
CHEMBL4063235
     RDKit          3D

 58 61  0  0  1  0  0  0  0  0999 V2000
   11.8810   10.6926   -6.2466 C   0  0  0  0  0  0  0  0  0  0  0  0
   10.9616   10.3573   -5.2252 O   0  0  0  0  0  0  0  0  0  0  0  0
   11.2948    9.1888   -4.5940 C   0  0  0  0  0  0  0  0  0  0  0  0
   11.8841    9.2908   -3.3180 C   0  0  0  0  0  0  0  0  0  0  0  0
   12.2752    8.1357   -2.6214 C   0  0  0  0  0  0  0  0  0  0  0  0
   12.0859    6.8717   -3.2044 C   0  0  0  0  0  0  0  0  0  0  0  0
   11.5019    6.7626   -4.4826 C   0  0  0  0  0  0  0  0  0  0  0  0
   11.0824    7.9129   -5.1930 C   0  0  0  0  0  0  0  0  0  0  0  0
   10.4470    7.7906   -6.4469 N   0  0  0  0  0  0  0  0  0  0  0  0
   10.6540    6.6350   -7.3061 C   0  0  0  0  0  0  0  0  0  0  0  0
   10.5013    7.0390   -8.7896 C   0  0  0  0  0  0  0  0  0  0  0  0
    9.2862    7.8621   -9.0697 N   0  0  0  0  0  0  0  0  0  0  0  0
    9.2474    8.3886  -10.4606 C   0  0  0  0  0  0  0  0  0  0  0  0
    8.8985    7.3030  -11.4893 C   0  0  0  0  0  0  0  0  0  0  0  0
   10.1188    6.7394  -12.2309 C   0  0  0  0  0  0  0  0  0  0  0  0
    9.7730    5.4294  -12.9425 C   0  0  0  0  0  0  0  0  0  0  0  0
   10.8708    5.0158  -13.7376 O   0  0  0  0  0  0  0  0  0  0  0  0
   10.7254    3.8693  -14.4882 C   0  0  0  0  0  0  0  0  0  0  0  0
   11.7277    3.6158  -15.4572 C   0  0  0  0  0  0  0  0  0  0  0  0
   11.6859    2.4953  -16.2548 C   0  0  0  0  0  0  0  0  0  0  0  0
   10.6639    1.6140  -16.0972 N   0  0  0  0  0  0  0  0  0  0  0  0
   10.4944    0.4475  -16.8102 N   0  0  0  0  0  0  0  0  0  0  0  0
    9.3765   -0.0584  -16.3356 C   0  0  0  0  0  0  0  0  0  0  0  0
    8.8023    0.7357  -15.3180 C   0  0  0  0  0  0  0  0  0  0  0  0
    7.5977    0.4667  -14.6143 C   0  0  0  0  0  0  0  0  0  0  0  0
    6.6200    0.2564  -14.0321 N   0  0  0  0  0  0  0  0  0  0  0  0
    9.6287    1.8094  -15.1585 C   0  0  0  0  0  0  0  0  0  0  0  0
    9.6772    2.9727  -14.3427 C   0  0  0  0  0  0  0  0  0  0  0  0
    9.0663    8.9501   -8.0842 C   0  0  0  0  0  0  0  0  0  0  0  0
    9.1614    8.4416   -6.6461 C   0  0  0  0  0  0  0  0  0  0  0  0
   11.6798   11.6843   -6.6467 H   0  0  0  0  0  0  0  0  0  0  0  0
   12.8901   10.6913   -5.8476 H   0  0  0  0  0  0  0  0  0  0  0  0
   11.8470    9.9779   -7.0646 H   0  0  0  0  0  0  0  0  0  0  0  0
   12.0394   10.2616   -2.8713 H   0  0  0  0  0  0  0  0  0  0  0  0
   12.7190    8.2228   -1.6389 H   0  0  0  0  0  0  0  0  0  0  0  0
   12.3784    5.9798   -2.6698 H   0  0  0  0  0  0  0  0  0  0  0  0
   11.3443    5.7748   -4.8891 H   0  0  0  0  0  0  0  0  0  0  0  0
    9.9252    5.8678   -7.0474 H   0  0  0  0  0  0  0  0  0  0  0  0
   11.6435    6.2064   -7.1434 H   0  0  0  0  0  0  0  0  0  0  0  0
   10.4838    6.1340   -9.3959 H   0  0  0  0  0  0  0  0  0  0  0  0
   11.3839    7.6066   -9.0861 H   0  0  0  0  0  0  0  0  0  0  0  0
   10.1768    8.9024  -10.7135 H   0  0  0  0  0  0  0  0  0  0  0  0
    8.4712    9.1507  -10.5164 H   0  0  0  0  0  0  0  0  0  0  0  0
    8.2170    7.7240  -12.2289 H   0  0  0  0  0  0  0  0  0  0  0  0
    8.3366    6.5018  -11.0076 H   0  0  0  0  0  0  0  0  0  0  0  0
   10.9461    6.5727  -11.5448 H   0  0  0  0  0  0  0  0  0  0  0  0
   10.4882    7.4741  -12.9474 H   0  0  0  0  0  0  0  0  0  0  0  0
    8.8923    5.5699  -13.5727 H   0  0  0  0  0  0  0  0  0  0  0  0
    9.5417    4.6716  -12.1905 H   0  0  0  0  0  0  0  0  0  0  0  0
   12.5492    4.3152  -15.5721 H   0  0  0  0  0  0  0  0  0  0  0  0
   12.4385    2.2573  -16.9995 H   0  0  0  0  0  0  0  0  0  0  0  0
    9.0009   -0.9900  -16.7361 H   0  0  0  0  0  0  0  0  0  0  0  0
    8.8868    3.1104  -13.6160 H   0  0  0  0  0  0  0  0  0  0  0  0
    9.8074    9.7277   -8.2432 H   0  0  0  0  0  0  0  0  0  0  0  0
    8.0858    9.3958   -8.2465 H   0  0  0  0  0  0  0  0  0  0  0  0
    8.3631    7.7252   -6.4517 H   0  0  0  0  0  0  0  0  0  0  0  0
    9.0150    9.2596   -5.9492 H   0  0  0  0  0  0  0  0  0  0  0  0
    8.4721    7.2656   -8.9732 H   0  0  0  0  0  0  0  0  0  0  0  0
  2  1  1  0
  3  2  1  0
  4  3  2  0
  5  4  1  0
  6  5  2  0
  7  6  1  0
  8  3  1  0
  8  7  2  0
  9  8  1  0
 10  9  1  0
 11 10  1  0
 12 11  1  0
 13 12  1  0
 14 13  1  0
 15 14  1  0
 16 15  1  0
 17 16  1  0
 18 17  1  0
 19 18  1  0
 20 19  2  0
 21 20  1  0
 22 21  1  0
 23 22  2  0
 24 23  1  0
 25 24  1  0
 26 25  3  0
 27 21  1  0
 27 24  2  0
 28 18  2  0
 28 27  1  0
 29 12  1  0
 30  9  1  0
 30 29  1  0
 31  1  1  0
 32  1  1  0
 33  1  1  0
 34  4  1  0
 35  5  1  0
 36  6  1  0
 37  7  1  0
 38 10  1  0
 39 10  1  0
 40 11  1  0
 41 11  1  0
 42 13  1  0
 43 13  1  0
 44 14  1  0
 45 14  1  0
 46 15  1  0
 47 15  1  0
 48 16  1  0
 49 16  1  0
 50 19  1  0
 51 20  1  0
 52 23  1  0
 53 28  1  0
 54 29  1  0
 55 29  1  0
 56 30  1  0
 57 30  1  0
 58 12  1  0
M  CHG  1  12   1
M  END
>  <b_m_subgroup_collapsed>  (658) 
0

>  <r_i_docking_score>  (658) 
-7.5763085793256604

>  <s_m_subgroup_title>  (658) 
glide-dock_SP_D22_pv

>  <s_m_subgroupid>  (658) 
glide-dock_SP_D22_pv

>  <Molecule ChEMBL ID>  (658) 
CHEMBL4063235

>  <Standard Type>  (658) 
Ki

>  <Standard Value>  (658) 
0.16

>  <label>  (658) 
1

$$$$
CHEMBL219261
     RDKit          3D

 47 49  0  0  1  0  0  0  0  0999 V2000
    5.8654    5.4772  -12.6375 C   0  0  0  0  0  0  0  0  0  0  0  0
    7.0487    4.6174  -13.0428 C   0  0  0  0  0  0  0  0  0  0  0  0
    6.8200    3.4778  -13.8450 C   0  0  0  0  0  0  0  0  0  0  0  0
    7.8926    2.6629  -14.2479 C   0  0  0  0  0  0  0  0  0  0  0  0
    7.6629    1.5739  -15.0191 F   0  0  0  0  0  0  0  0  0  0  0  0
    9.2021    2.9787  -13.8469 C   0  0  0  0  0  0  0  0  0  0  0  0
    9.4356    4.1055  -13.0358 C   0  0  0  0  0  0  0  0  0  0  0  0
    8.3656    4.9489  -12.6397 C   0  0  0  0  0  0  0  0  0  0  0  0
    8.5641    6.1050  -11.8268 N   0  0  0  0  0  0  0  0  0  0  0  0
    9.6704    6.8656  -11.7381 C   0  0  0  0  0  0  0  0  0  0  0  0
   10.7146    6.6578  -12.3561 O   0  0  0  0  0  0  0  0  0  0  0  0
    9.6039    8.0869  -10.8227 C   0  0  0  0  0  0  0  0  0  0  0  0
   10.2875    7.8804   -9.5261 N   0  0  0  0  0  0  0  0  0  0  0  0
   10.6356    9.1852   -8.9645 C   0  0  0  0  0  0  0  0  0  0  0  0
   11.4027    9.0174   -7.6456 C   0  0  0  0  0  0  0  0  0  0  0  0
   10.5250    8.2922   -6.6147 C   0  0  0  0  0  0  0  0  0  0  0  0
   11.1783    8.2243   -5.2283 C   0  0  0  0  0  0  0  0  0  0  0  0
   11.5907    7.0003   -4.6468 C   0  0  0  0  0  0  0  0  0  0  0  0
   12.1169    6.9720   -3.3459 C   0  0  0  0  0  0  0  0  0  0  0  0
   12.2601    8.1769   -2.6462 C   0  0  0  0  0  0  0  0  0  0  0  0
   11.8495    9.3740   -3.2566 C   0  0  0  0  0  0  0  0  0  0  0  0
   11.3004    9.3966   -4.5083 N   0  0  0  0  0  0  0  0  0  0  0  0
   10.8859   10.5210   -4.9800 O   0  0  0  0  0  0  0  0  0  0  0  0
   10.1236    6.9344   -7.2321 C   0  0  0  0  0  0  0  0  0  0  0  0
    9.4303    7.1292   -8.5950 C   0  0  0  0  0  0  0  0  0  0  0  0
    4.9697    5.1603  -13.1731 H   0  0  0  0  0  0  0  0  0  0  0  0
    5.6805    5.3946  -11.5663 H   0  0  0  0  0  0  0  0  0  0  0  0
    6.0425    6.5262  -12.8756 H   0  0  0  0  0  0  0  0  0  0  0  0
    5.8192    3.2233  -14.1586 H   0  0  0  0  0  0  0  0  0  0  0  0
   10.0252    2.3454  -14.1435 H   0  0  0  0  0  0  0  0  0  0  0  0
   10.4494    4.2956  -12.7205 H   0  0  0  0  0  0  0  0  0  0  0  0
    7.7542    6.4437  -11.3168 H   0  0  0  0  0  0  0  0  0  0  0  0
    8.5725    8.4126  -10.6755 H   0  0  0  0  0  0  0  0  0  0  0  0
   10.0865    8.8929  -11.3754 H   0  0  0  0  0  0  0  0  0  0  0  0
    9.7235    9.7617   -8.8104 H   0  0  0  0  0  0  0  0  0  0  0  0
   11.2612    9.7432   -9.6646 H   0  0  0  0  0  0  0  0  0  0  0  0
   11.6856   10.0033   -7.2792 H   0  0  0  0  0  0  0  0  0  0  0  0
   12.3325    8.4716   -7.8133 H   0  0  0  0  0  0  0  0  0  0  0  0
    9.6057    8.8672   -6.4836 H   0  0  0  0  0  0  0  0  0  0  0  0
   11.4904    6.0653   -5.1771 H   0  0  0  0  0  0  0  0  0  0  0  0
   12.4144    6.0346   -2.8958 H   0  0  0  0  0  0  0  0  0  0  0  0
   12.6728    8.1898   -1.6485 H   0  0  0  0  0  0  0  0  0  0  0  0
   11.9133   10.3420   -2.7762 H   0  0  0  0  0  0  0  0  0  0  0  0
   11.0007    6.2996   -7.3702 H   0  0  0  0  0  0  0  0  0  0  0  0
    9.4491    6.4037   -6.5590 H   0  0  0  0  0  0  0  0  0  0  0  0
    8.4860    7.6569   -8.4467 H   0  0  0  0  0  0  0  0  0  0  0  0
    9.1813    6.1522   -9.0112 H   0  0  0  0  0  0  0  0  0  0  0  0
  2  1  1  0
  3  2  1  0
  4  3  2  0
  5  4  1  0
  6  4  1  0
  7  6  2  0
  8  2  2  0
  8  7  1  0
  9  8  1  0
 10  9  1  0
 11 10  2  0
 12 10  1  0
 13 12  1  0
 14 13  1  0
 15 14  1  0
 16 15  1  0
 17 16  1  0
 18 17  2  0
 19 18  1  0
 20 19  2  0
 21 20  1  0
 22 17  1  0
 22 21  2  0
 23 22  1  0
 24 16  1  0
 25 13  1  0
 25 24  1  0
 26  1  1  0
 27  1  1  0
 28  1  1  0
 29  3  1  0
 30  6  1  0
 31  7  1  0
 32  9  1  0
 33 12  1  0
 34 12  1  0
 35 14  1  0
 36 14  1  0
 37 15  1  0
 38 15  1  0
 39 16  1  0
 40 18  1  0
 41 19  1  0
 42 20  1  0
 43 21  1  0
 44 24  1  0
 45 24  1  0
 46 25  1  0
 47 25  1  0
M  CHG  2  22   1  23  -1
M  END
>  <b_m_subgroup_collapsed>  (659) 
0

>  <r_i_docking_score>  (659) 
-7.5759284219677401

>  <s_m_subgroup_title>  (659) 
glide-dock_SP_D22_pv

>  <s_m_subgroupid>  (659) 
glide-dock_SP_D22_pv

>  <Molecule ChEMBL ID>  (659) 
CHEMBL219261

>  <Standard Type>  (659) 
Ki

>  <Standard Value>  (659) 
10000.0

>  <label>  (659) 
0

$$$$
CHEMBL271989
     RDKit          3D

 60 63  0  0  1  0  0  0  0  0999 V2000
    9.6772    0.5434  -14.9574 C   0  0  0  0  0  0  0  0  0  0  0  0
    8.7474    1.4699  -14.4201 O   0  0  0  0  0  0  0  0  0  0  0  0
    7.4271    1.1002  -14.2469 C   0  0  0  0  0  0  0  0  0  0  0  0
    6.9940   -0.2277  -14.4756 C   0  0  0  0  0  0  0  0  0  0  0  0
    5.6679   -0.6234  -14.2446 C   0  0  0  0  0  0  0  0  0  0  0  0
    4.7569    0.2992  -13.7158 C   0  0  0  0  0  0  0  0  0  0  0  0
    5.1761    1.6138  -13.4469 C   0  0  0  0  0  0  0  0  0  0  0  0
    6.4853    2.0576  -13.7624 C   0  0  0  0  0  0  0  0  0  0  0  0
    6.8166    3.4171  -13.5316 N   0  0  0  0  0  0  0  0  0  0  0  0
    6.2184    4.1713  -12.4291 C   0  0  0  0  0  0  0  0  0  0  0  0
    7.3018    4.6544  -11.4473 C   0  0  0  0  0  0  0  0  0  0  0  0
    8.4287    5.3220  -12.1327 N   0  0  0  0  0  0  0  0  0  0  0  0
    9.4317    5.8295  -11.1729 C   0  0  0  0  0  0  0  0  0  0  0  0
    9.7254    7.3159  -11.4109 C   0  0  0  0  0  0  0  0  0  0  0  0
   10.3582    7.9893  -10.1870 C   0  0  0  0  0  0  0  0  0  0  0  0
    9.3344    8.1978   -9.0583 C   0  0  0  0  0  0  0  0  0  0  0  0
    9.8905    8.9725   -7.9674 N   0  0  0  0  0  0  0  0  0  0  0  0
   10.5127    8.4051   -6.8580 C   0  0  0  0  0  0  0  0  0  0  0  0
   10.8428    7.0389   -6.7772 C   0  0  0  0  0  0  0  0  0  0  0  0
   11.4320    6.5724   -5.5917 C   0  0  0  0  0  0  0  0  0  0  0  0
   11.6822    7.4729   -4.5419 C   0  0  0  0  0  0  0  0  0  0  0  0
   12.2342    7.0196   -3.3271 C   0  0  0  0  0  0  0  0  0  0  0  0
   12.4594    7.9320   -2.2826 C   0  0  0  0  0  0  0  0  0  0  0  0
   12.1272    9.2855   -2.4547 C   0  0  0  0  0  0  0  0  0  0  0  0
   11.5672    9.7288   -3.6670 C   0  0  0  0  0  0  0  0  0  0  0  0
   11.3325    8.8351   -4.7255 C   0  0  0  0  0  0  0  0  0  0  0  0
   10.7639    9.2793   -5.8647 N   0  0  0  0  0  0  0  0  0  0  0  0
    9.0095    4.4900  -13.2170 C   0  0  0  0  0  0  0  0  0  0  0  0
    7.9149    4.0928  -14.2144 C   0  0  0  0  0  0  0  0  0  0  0  0
   10.6188    1.0561  -15.1475 H   0  0  0  0  0  0  0  0  0  0  0  0
    9.8822   -0.2529  -14.2459 H   0  0  0  0  0  0  0  0  0  0  0  0
    9.3379    0.1216  -15.9054 H   0  0  0  0  0  0  0  0  0  0  0  0
    7.6738   -0.9857  -14.8183 H   0  0  0  0  0  0  0  0  0  0  0  0
    5.3654   -1.6420  -14.4418 H   0  0  0  0  0  0  0  0  0  0  0  0
    3.7366    0.0075  -13.5236 H   0  0  0  0  0  0  0  0  0  0  0  0
    4.4348    2.2945  -13.0579 H   0  0  0  0  0  0  0  0  0  0  0  0
    5.6833    5.0257  -12.8473 H   0  0  0  0  0  0  0  0  0  0  0  0
    5.4923    3.5955  -11.8577 H   0  0  0  0  0  0  0  0  0  0  0  0
    6.8862    5.3716  -10.7429 H   0  0  0  0  0  0  0  0  0  0  0  0
    7.6810    3.8107  -10.8719 H   0  0  0  0  0  0  0  0  0  0  0  0
    9.0723    5.6796  -10.1549 H   0  0  0  0  0  0  0  0  0  0  0  0
   10.3428    5.2428  -11.2394 H   0  0  0  0  0  0  0  0  0  0  0  0
   10.3823    7.4203  -12.2757 H   0  0  0  0  0  0  0  0  0  0  0  0
    8.8053    7.8469  -11.6645 H   0  0  0  0  0  0  0  0  0  0  0  0
   11.2097    7.4063   -9.8337 H   0  0  0  0  0  0  0  0  0  0  0  0
   10.7556    8.9600  -10.4882 H   0  0  0  0  0  0  0  0  0  0  0  0
    8.4862    8.7610   -9.4487 H   0  0  0  0  0  0  0  0  0  0  0  0
    8.9215    7.2606   -8.6862 H   0  0  0  0  0  0  0  0  0  0  0  0
    9.5957    9.9331   -7.8803 H   0  0  0  0  0  0  0  0  0  0  0  0
   10.6481    6.3533   -7.5879 H   0  0  0  0  0  0  0  0  0  0  0  0
   11.7062    5.5386   -5.4966 H   0  0  0  0  0  0  0  0  0  0  0  0
   12.4772    5.9766   -3.1863 H   0  0  0  0  0  0  0  0  0  0  0  0
   12.8858    7.5999   -1.3492 H   0  0  0  0  0  0  0  0  0  0  0  0
   12.2996    9.9839   -1.6504 H   0  0  0  0  0  0  0  0  0  0  0  0
   11.2861   10.7628   -3.7805 H   0  0  0  0  0  0  0  0  0  0  0  0
    9.7919    5.0499  -13.7309 H   0  0  0  0  0  0  0  0  0  0  0  0
    9.4737    3.5956  -12.7939 H   0  0  0  0  0  0  0  0  0  0  0  0
    8.3121    3.5458  -15.0640 H   0  0  0  0  0  0  0  0  0  0  0  0
    7.5066    4.9936  -14.6468 H   0  0  0  0  0  0  0  0  0  0  0  0
    8.0201    6.1340  -12.5723 H   0  0  0  0  0  0  0  0  0  0  0  0
  2  1  1  0
  3  2  1  0
  4  3  2  0
  5  4  1  0
  6  5  2  0
  7  6  1  0
  8  3  1  0
  8  7  2  0
  9  8  1  0
 10  9  1  0
 11 10  1  0
 12 11  1  0
 13 12  1  0
 14 13  1  0
 15 14  1  0
 16 15  1  0
 17 16  1  0
 18 17  1  0
 19 18  1  0
 20 19  2  0
 21 20  1  0
 22 21  2  0
 23 22  1  0
 24 23  2  0
 25 24  1  0
 26 21  1  0
 26 25  2  0
 27 18  2  0
 27 26  1  0
 28 12  1  0
 29  9  1  0
 29 28  1  0
 30  1  1  0
 31  1  1  0
 32  1  1  0
 33  4  1  0
 34  5  1  0
 35  6  1  0
 36  7  1  0
 37 10  1  0
 38 10  1  0
 39 11  1  0
 40 11  1  0
 41 13  1  0
 42 13  1  0
 43 14  1  0
 44 14  1  0
 45 15  1  0
 46 15  1  0
 47 16  1  0
 48 16  1  0
 49 17  1  0
 50 19  1  0
 51 20  1  0
 52 22  1  0
 53 23  1  0
 54 24  1  0
 55 25  1  0
 56 28  1  0
 57 28  1  0
 58 29  1  0
 59 29  1  0
 60 12  1  0
M  CHG  1  12   1
M  END
>  <b_m_subgroup_collapsed>  (660) 
0

>  <r_i_docking_score>  (660) 
-7.5731331293892099

>  <s_m_subgroup_title>  (660) 
glide-dock_SP_D22_pv

>  <s_m_subgroupid>  (660) 
glide-dock_SP_D22_pv

>  <Molecule ChEMBL ID>  (660) 
CHEMBL271989

>  <Standard Type>  (660) 
Ki

>  <Standard Value>  (660) 
5.6

>  <label>  (660) 
1

$$$$
CHEMBL541826
     RDKit          3D

 60 63  0  0  1  0  0  0  0  0999 V2000
   12.4043    8.1533   -3.0388 C   0  0  0  0  0  0  0  0  0  0  0  0
   12.0299    9.3740   -3.6225 C   0  0  0  0  0  0  0  0  0  0  0  0
   11.2863    9.3919   -4.8201 C   0  0  0  0  0  0  0  0  0  0  0  0
   10.8844    8.1835   -5.4402 C   0  0  0  0  0  0  0  0  0  0  0  0
   10.0440    8.1943   -6.5747 N   0  0  0  0  0  0  0  0  0  0  0  0
   10.1578    9.2120   -7.6019 C   0  0  0  0  0  0  0  0  0  0  0  0
   10.4374    8.5577   -8.9578 C   0  0  0  0  0  0  0  0  0  0  0  0
    9.5230    7.4231   -9.2932 N   0  0  0  0  0  0  0  0  0  0  0  0
   10.0244    6.7773  -10.5312 C   0  0  0  0  0  0  0  0  0  0  0  0
    9.0655    5.8529  -11.2874 C   0  0  0  0  0  0  0  0  0  0  0  0
    9.7129    5.4994  -12.6486 C   0  0  0  0  0  0  0  0  0  0  0  0
    9.5331    4.0528  -13.1107 C   0  0  0  0  0  0  0  0  0  0  0  0
    8.1160    3.7763  -13.6017 C   0  0  0  0  0  0  0  0  0  0  0  0
    8.0499    2.4602  -14.2475 N   0  0  0  0  0  0  0  0  0  0  0  0
    7.0150    1.6048  -14.1863 C   0  0  0  0  0  0  0  0  0  0  0  0
    7.0756    0.4824  -14.9198 N   0  0  0  0  0  0  0  0  0  0  0  0
    5.8500   -0.1885  -15.1723 C   0  0  0  0  0  0  0  0  0  0  0  0
    5.7085   -0.9844  -16.3230 C   0  0  0  0  0  0  0  0  0  0  0  0
    4.4757   -1.6103  -16.5673 C   0  0  0  0  0  0  0  0  0  0  0  0
    3.4149   -1.4275  -15.6636 C   0  0  0  0  0  0  0  0  0  0  0  0
    3.5629   -0.6329  -14.5133 C   0  0  0  0  0  0  0  0  0  0  0  0
    4.7876    0.0103  -14.2700 C   0  0  0  0  0  0  0  0  0  0  0  0
    4.9142    0.8263  -13.1800 O   0  0  0  0  0  0  0  0  0  0  0  0
    5.7896    1.9289  -13.3677 C   0  0  0  0  0  0  0  0  0  0  0  0
    9.3549    6.4530   -8.1716 C   0  0  0  0  0  0  0  0  0  0  0  0
    9.0608    7.1501   -6.8322 C   0  0  0  0  0  0  0  0  0  0  0  0
   11.2866    6.9623   -4.8507 C   0  0  0  0  0  0  0  0  0  0  0  0
   12.0409    6.9468   -3.6598 C   0  0  0  0  0  0  0  0  0  0  0  0
   12.9615    8.1468   -2.1145 H   0  0  0  0  0  0  0  0  0  0  0  0
   12.2960   10.2958   -3.1277 H   0  0  0  0  0  0  0  0  0  0  0  0
   10.9792   10.3462   -5.2217 H   0  0  0  0  0  0  0  0  0  0  0  0
    9.2258    9.7706   -7.6576 H   0  0  0  0  0  0  0  0  0  0  0  0
   10.9552    9.9210   -7.3774 H   0  0  0  0  0  0  0  0  0  0  0  0
   10.3888    9.3171   -9.7393 H   0  0  0  0  0  0  0  0  0  0  0  0
   11.4646    8.1895   -8.9473 H   0  0  0  0  0  0  0  0  0  0  0  0
   10.3542    7.5560  -11.2210 H   0  0  0  0  0  0  0  0  0  0  0  0
   10.8906    6.1788  -10.2626 H   0  0  0  0  0  0  0  0  0  0  0  0
    8.8912    4.9525  -10.6989 H   0  0  0  0  0  0  0  0  0  0  0  0
    8.0957    6.3293  -11.4391 H   0  0  0  0  0  0  0  0  0  0  0  0
    9.3405    6.1730  -13.4203 H   0  0  0  0  0  0  0  0  0  0  0  0
   10.7900    5.6785  -12.6136 H   0  0  0  0  0  0  0  0  0  0  0  0
   10.2389    3.8575  -13.9207 H   0  0  0  0  0  0  0  0  0  0  0  0
    9.7993    3.3657  -12.3030 H   0  0  0  0  0  0  0  0  0  0  0  0
    7.4287    3.8535  -12.7622 H   0  0  0  0  0  0  0  0  0  0  0  0
    7.8093    4.5299  -14.3277 H   0  0  0  0  0  0  0  0  0  0  0  0
    8.8415    2.2231  -14.8267 H   0  0  0  0  0  0  0  0  0  0  0  0
    6.5304   -1.1277  -17.0094 H   0  0  0  0  0  0  0  0  0  0  0  0
    4.3405   -2.2421  -17.4343 H   0  0  0  0  0  0  0  0  0  0  0  0
    2.4861   -1.9291  -15.8487 H   0  0  0  0  0  0  0  0  0  0  0  0
    2.7298   -0.5014  -13.8379 H   0  0  0  0  0  0  0  0  0  0  0  0
    6.0822    2.2576  -12.3712 H   0  0  0  0  0  0  0  0  0  0  0  0
    5.2577    2.7544  -13.8401 H   0  0  0  0  0  0  0  0  0  0  0  0
    8.5457    5.7631   -8.4101 H   0  0  0  0  0  0  0  0  0  0  0  0
   10.2633    5.8582   -8.0601 H   0  0  0  0  0  0  0  0  0  0  0  0
    9.0017    6.4266   -6.0212 H   0  0  0  0  0  0  0  0  0  0  0  0
    8.0839    7.6309   -6.8730 H   0  0  0  0  0  0  0  0  0  0  0  0
   11.0129    6.0191   -5.2951 H   0  0  0  0  0  0  0  0  0  0  0  0
   12.3262    6.0047   -3.2142 H   0  0  0  0  0  0  0  0  0  0  0  0
    7.8987    0.2733  -15.4640 H   0  0  0  0  0  0  0  0  0  0  0  0
    8.6014    7.8032   -9.4835 H   0  0  0  0  0  0  0  0  0  0  0  0
  2  1  2  0
  3  2  1  0
  4  3  2  0
  5  4  1  0
  6  5  1  0
  7  6  1  0
  8  7  1  0
  9  8  1  0
 10  9  1  0
 11 10  1  0
 12 11  1  0
 13 12  1  0
 14 13  1  0
 15 14  1  0
 16 15  2  0
 17 16  1  0
 18 17  2  0
 19 18  1  0
 20 19  2  0
 21 20  1  0
 22 17  1  0
 22 21  2  0
 23 22  1  0
 24 15  1  0
 24 23  1  0
 25  8  1  0
 26  5  1  0
 26 25  1  0
 27  4  1  0
 28  1  1  0
 28 27  2  0
 29  1  1  0
 30  2  1  0
 31  3  1  0
 32  6  1  0
 33  6  1  0
 34  7  1  0
 35  7  1  0
 36  9  1  0
 37  9  1  0
 38 10  1  0
 39 10  1  0
 40 11  1  0
 41 11  1  0
 42 12  1  0
 43 12  1  0
 44 13  1  0
 45 13  1  0
 46 14  1  0
 47 18  1  0
 48 19  1  0
 49 20  1  0
 50 21  1  0
 51 24  1  0
 52 24  1  0
 53 25  1  0
 54 25  1  0
 55 26  1  0
 56 26  1  0
 57 27  1  0
 58 28  1  0
 59 16  1  0
 60  8  1  0
M  CHG  2   8   1  16   1
M  END
>  <b_m_subgroup_collapsed>  (661) 
0

>  <r_i_docking_score>  (661) 
-7.57256025527081

>  <s_m_subgroup_title>  (661) 
glide-dock_SP_D22_pv

>  <s_m_subgroupid>  (661) 
glide-dock_SP_D22_pv

>  <Molecule ChEMBL ID>  (661) 
CHEMBL541826

>  <Standard Type>  (661) 
Ki

>  <Standard Value>  (661) 
94.0

>  <label>  (661) 
1

$$$$
CHEMBL5761193
     RDKit          3D

 56 60  0  0  1  0  0  0  0  0999 V2000
   10.1859   -0.2568  -16.3345 C   0  0  0  0  0  0  0  0  0  0  0  0
   10.2644    1.1167  -15.8775 N   0  0  0  0  0  0  0  0  0  0  0  0
   11.2861    1.8930  -16.3088 N   0  0  0  0  0  0  0  0  0  0  0  0
   11.0815    3.0772  -15.7539 C   0  0  0  0  0  0  0  0  0  0  0  0
    9.9210    3.0655  -14.9372 C   0  0  0  0  0  0  0  0  0  0  0  0
    9.3969    1.8076  -15.0474 C   0  0  0  0  0  0  0  0  0  0  0  0
    8.1471    1.2110  -14.4770 C   0  0  0  0  0  0  0  0  0  0  0  0
    6.9667    2.1939  -14.5372 C   0  0  0  0  0  0  0  0  0  0  0  0
    7.0097    3.3686  -13.5330 C   0  0  0  0  0  0  0  0  0  0  0  0
    8.3983    3.8443  -13.0387 C   0  0  2  0  0  0  0  0  0  0  0  0
    8.2533    4.9354  -11.9443 C   0  0  0  0  0  0  0  0  0  0  0  0
    9.5390    5.1235  -11.1231 C   0  0  0  0  0  0  0  0  0  0  0  0
    9.2822    5.7327   -9.8172 N   0  0  0  0  0  0  0  0  0  0  0  0
    9.2757    7.1981   -9.9089 C   0  0  0  0  0  0  0  0  0  0  0  0
    9.0555    7.8260   -8.5107 C   0  0  0  0  0  0  0  0  0  0  0  0
   10.0731    7.3765   -7.5578 N   0  0  0  0  0  0  0  0  0  0  0  0
   10.7343    8.2489   -6.6581 C   0  0  0  0  0  0  0  0  0  0  0  0
   10.9057    9.4952   -7.0355 N   0  0  0  0  0  0  0  0  0  0  0  0
   11.6779   10.3711   -5.8485 S   0  0  0  0  0  0  0  0  0  0  0  0
   11.8263    9.0502   -4.7293 C   0  0  0  0  0  0  0  0  0  0  0  0
   12.3933    9.0464   -3.4432 C   0  0  0  0  0  0  0  0  0  0  0  0
   12.4172    7.8589   -2.6981 C   0  0  0  0  0  0  0  0  0  0  0  0
   11.8615    6.6924   -3.2493 C   0  0  0  0  0  0  0  0  0  0  0  0
   11.2862    6.7143   -4.5376 C   0  0  0  0  0  0  0  0  0  0  0  0
   11.2516    7.8894   -5.3328 C   0  0  0  0  0  0  0  0  0  0  0  0
   10.1984    5.9344   -7.5167 C   0  0  0  0  0  0  0  0  0  0  0  0
   10.3771    5.3722   -8.9281 C   0  0  0  0  0  0  0  0  0  0  0  0
    9.3750    4.2078  -14.1694 C   0  0  0  0  0  0  0  0  0  0  0  0
    9.7234    5.3715  -14.3561 O   0  0  0  0  0  0  0  0  0  0  0  0
   10.2368   -0.9299  -15.4784 H   0  0  0  0  0  0  0  0  0  0  0  0
    9.2452   -0.4171  -16.8592 H   0  0  0  0  0  0  0  0  0  0  0  0
   11.0041   -0.4823  -17.0181 H   0  0  0  0  0  0  0  0  0  0  0  0
   11.7708    3.8860  -15.9502 H   0  0  0  0  0  0  0  0  0  0  0  0
    7.8740    0.3188  -15.0399 H   0  0  0  0  0  0  0  0  0  0  0  0
    8.3247    0.8678  -13.4567 H   0  0  0  0  0  0  0  0  0  0  0  0
    6.0446    1.6390  -14.3624 H   0  0  0  0  0  0  0  0  0  0  0  0
    6.8823    2.5726  -15.5560 H   0  0  0  0  0  0  0  0  0  0  0  0
    6.4428    3.0578  -12.6549 H   0  0  0  0  0  0  0  0  0  0  0  0
    6.4546    4.2128  -13.9442 H   0  0  0  0  0  0  0  0  0  0  0  0
    8.8863    2.9946  -12.5652 H   0  0  0  0  0  0  0  0  0  0  0  0
    7.9298    5.8840  -12.3751 H   0  0  0  0  0  0  0  0  0  0  0  0
    7.4570    4.6366  -11.2601 H   0  0  0  0  0  0  0  0  0  0  0  0
    9.9607    4.1302  -10.9647 H   0  0  0  0  0  0  0  0  0  0  0  0
   10.2863    5.6883  -11.6833 H   0  0  0  0  0  0  0  0  0  0  0  0
   10.2138    7.5596  -10.3326 H   0  0  0  0  0  0  0  0  0  0  0  0
    8.4861    7.5160  -10.5896 H   0  0  0  0  0  0  0  0  0  0  0  0
    9.0288    8.9118   -8.5976 H   0  0  0  0  0  0  0  0  0  0  0  0
    8.0864    7.5258   -8.1187 H   0  0  0  0  0  0  0  0  0  0  0  0
   12.8138    9.9540   -3.0355 H   0  0  0  0  0  0  0  0  0  0  0  0
   12.8580    7.8458   -1.7125 H   0  0  0  0  0  0  0  0  0  0  0  0
   11.8671    5.7736   -2.6798 H   0  0  0  0  0  0  0  0  0  0  0  0
   10.8478    5.8014   -4.8995 H   0  0  0  0  0  0  0  0  0  0  0  0
   11.0831    5.6594   -6.9500 H   0  0  0  0  0  0  0  0  0  0  0  0
    9.3165    5.5025   -7.0466 H   0  0  0  0  0  0  0  0  0  0  0  0
   10.4830    4.2882   -8.8765 H   0  0  0  0  0  0  0  0  0  0  0  0
   11.2860    5.7790   -9.3538 H   0  0  0  0  0  0  0  0  0  0  0  0
  2  1  1  0
  3  2  1  0
  4  3  2  0
  5  4  1  0
  6  2  1  0
  6  5  2  0
  7  6  1  0
  8  7  1  0
  9  8  1  0
 10  9  1  0
 11 10  1  0
 12 11  1  0
 13 12  1  0
 14 13  1  0
 15 14  1  0
 16 15  1  0
 17 16  1  0
 18 17  2  0
 19 18  1  0
 20 19  1  0
 21 20  2  0
 22 21  1  0
 23 22  2  0
 24 23  1  0
 25 17  1  0
 25 20  1  0
 25 24  2  0
 26 16  1  0
 27 13  1  0
 27 26  1  0
 28  5  1  0
 28 10  1  0
 29 28  2  0
 30  1  1  0
 31  1  1  0
 32  1  1  0
 33  4  1  0
 34  7  1  0
 35  7  1  0
 36  8  1  0
 37  8  1  0
 38  9  1  0
 39  9  1  0
 10 40  1  1
 41 11  1  0
 42 11  1  0
 43 12  1  0
 44 12  1  0
 45 14  1  0
 46 14  1  0
 47 15  1  0
 48 15  1  0
 49 21  1  0
 50 22  1  0
 51 23  1  0
 52 24  1  0
 53 26  1  0
 54 26  1  0
 55 27  1  0
 56 27  1  0
M  END
>  <b_m_subgroup_collapsed>  (662) 
0

>  <r_i_docking_score>  (662) 
-7.5716563205079801

>  <s_m_subgroup_title>  (662) 
glide-dock_SP_D22_pv

>  <s_m_subgroupid>  (662) 
glide-dock_SP_D22_pv

>  <Molecule ChEMBL ID>  (662) 
CHEMBL5761193

>  <Standard Type>  (662) 
Ki

>  <Standard Value>  (662) 
99.0

>  <label>  (662) 
1

$$$$
CHEMBL166252
     RDKit          3D

 55 58  0  0  1  0  0  0  0  0999 V2000
    5.2569   -0.9531  -17.0624 C   0  0  0  0  0  0  0  0  0  0  0  0
    5.8000    0.0028  -17.9412 C   0  0  0  0  0  0  0  0  0  0  0  0
    6.6067    0.9932  -17.5097 N   0  0  0  0  0  0  0  0  0  0  0  0
    6.8697    1.0206  -16.2035 C   0  0  0  0  0  0  0  0  0  0  0  0
    7.6432    2.0832  -15.7949 N   0  0  0  0  0  0  0  0  0  0  0  0
    7.7378    2.5631  -14.4244 C   0  0  1  0  0  0  0  0  0  0  0  0
    8.9250    3.5289  -14.2877 C   0  0  0  0  0  0  0  0  0  0  0  0
    9.0506    4.0594  -12.8565 C   0  0  0  0  0  0  0  0  0  0  0  0
    7.7600    4.7702  -12.3926 C   0  0  2  0  0  0  0  0  0  0  0  0
    7.8641    5.2865  -10.9473 C   0  0  0  0  0  0  0  0  0  0  0  0
    9.0003    6.2976  -10.7080 C   0  0  0  0  0  0  0  0  0  0  0  0
    8.8861    6.9782   -9.3945 N   0  0  0  0  0  0  0  0  0  0  0  0
    9.7339    8.1929   -9.3225 C   0  0  0  0  0  0  0  0  0  0  0  0
    9.6227    8.8892   -7.9575 C   0  0  0  0  0  0  0  0  0  0  0  0
    9.9474    7.9783   -6.8596 N   0  0  0  0  0  0  0  0  0  0  0  0
   10.8853    8.1970   -5.8480 C   0  0  0  0  0  0  0  0  0  0  0  0
   11.2689    7.2745   -4.9592 N   0  0  0  0  0  0  0  0  0  0  0  0
   12.0865    7.7996   -3.9564 C   0  0  0  0  0  0  0  0  0  0  0  0
   12.3719    9.1313   -4.1290 C   0  0  0  0  0  0  0  0  0  0  0  0
   11.6163    9.7735   -5.5609 S   0  0  0  0  0  0  0  0  0  0  0  0
    9.0232    6.8485   -6.9016 C   0  0  0  0  0  0  0  0  0  0  0  0
    9.1062    6.0790   -8.2301 C   0  0  0  0  0  0  0  0  0  0  0  0
    6.5195    3.8597  -12.5550 C   0  0  0  0  0  0  0  0  0  0  0  0
    6.4263    3.2397  -13.9583 C   0  0  0  0  0  0  0  0  0  0  0  0
    6.4131    0.1725  -15.2794 N   0  0  0  0  0  0  0  0  0  0  0  0
    5.6133   -0.8243  -15.7069 C   0  0  0  0  0  0  0  0  0  0  0  0
    4.6065   -1.7457  -17.4042 H   0  0  0  0  0  0  0  0  0  0  0  0
    5.5799   -0.0258  -18.9999 H   0  0  0  0  0  0  0  0  0  0  0  0
    7.9636    2.6906  -16.5314 H   0  0  0  0  0  0  0  0  0  0  0  0
    7.9335    1.6912  -13.7996 H   0  0  0  0  0  0  0  0  0  0  0  0
    8.8091    4.3683  -14.9772 H   0  0  0  0  0  0  0  0  0  0  0  0
    9.8481    3.0212  -14.5688 H   0  0  0  0  0  0  0  0  0  0  0  0
    9.8969    4.7444  -12.8200 H   0  0  0  0  0  0  0  0  0  0  0  0
    9.3023    3.2392  -12.1843 H   0  0  0  0  0  0  0  0  0  0  0  0
    7.6135    5.6344  -13.0422 H   0  0  0  0  0  0  0  0  0  0  0  0
    7.9660    4.4374  -10.2694 H   0  0  0  0  0  0  0  0  0  0  0  0
    6.9198    5.7714  -10.7024 H   0  0  0  0  0  0  0  0  0  0  0  0
    8.9572    7.0524  -11.4926 H   0  0  0  0  0  0  0  0  0  0  0  0
    9.9765    5.8155  -10.7807 H   0  0  0  0  0  0  0  0  0  0  0  0
    9.4370    8.8894  -10.1068 H   0  0  0  0  0  0  0  0  0  0  0  0
   10.7757    7.9235   -9.5136 H   0  0  0  0  0  0  0  0  0  0  0  0
    8.6131    9.2812   -7.8150 H   0  0  0  0  0  0  0  0  0  0  0  0
   10.2934    9.7432   -7.9413 H   0  0  0  0  0  0  0  0  0  0  0  0
   12.4315    7.1516   -3.1645 H   0  0  0  0  0  0  0  0  0  0  0  0
   12.9820    9.7707   -3.5061 H   0  0  0  0  0  0  0  0  0  0  0  0
    9.2244    6.1723   -6.0715 H   0  0  0  0  0  0  0  0  0  0  0  0
    8.0106    7.2198   -6.7385 H   0  0  0  0  0  0  0  0  0  0  0  0
    8.3619    5.2834   -8.2182 H   0  0  0  0  0  0  0  0  0  0  0  0
   10.0846    5.6025   -8.3165 H   0  0  0  0  0  0  0  0  0  0  0  0
    6.4895    3.0720  -11.8034 H   0  0  0  0  0  0  0  0  0  0  0  0
    5.6199    4.4477  -12.3683 H   0  0  0  0  0  0  0  0  0  0  0  0
    6.1409    4.0317  -14.6462 H   0  0  0  0  0  0  0  0  0  0  0  0
    5.6079    2.5185  -13.9693 H   0  0  0  0  0  0  0  0  0  0  0  0
    5.2439   -1.5167  -14.9639 H   0  0  0  0  0  0  0  0  0  0  0  0
    7.9203    7.3062   -9.3497 H   0  0  0  0  0  0  0  0  0  0  0  0
  2  1  2  0
  3  2  1  0
  4  3  2  0
  5  4  1  0
  6  5  1  0
  7  6  1  0
  8  7  1  0
  9  8  1  0
 10  9  1  0
 11 10  1  0
 12 11  1  0
 13 12  1  0
 14 13  1  0
 15 14  1  0
 16 15  1  0
 17 16  2  0
 18 17  1  0
 19 18  2  0
 20 16  1  0
 20 19  1  0
 21 15  1  0
 22 12  1  0
 22 21  1  0
 23  9  1  0
 24  6  1  0
 24 23  1  0
 25  4  1  0
 26  1  1  0
 26 25  2  0
 27  1  1  0
 28  2  1  0
 29  5  1  0
  6 30  1  1
 31  7  1  0
 32  7  1  0
 33  8  1  0
 34  8  1  0
  9 35  1  6
 36 10  1  0
 37 10  1  0
 38 11  1  0
 39 11  1  0
 40 13  1  0
 41 13  1  0
 42 14  1  0
 43 14  1  0
 44 18  1  0
 45 19  1  0
 46 21  1  0
 47 21  1  0
 48 22  1  0
 49 22  1  0
 50 23  1  0
 51 23  1  0
 52 24  1  0
 53 24  1  0
 54 26  1  0
 55 12  1  0
M  CHG  1  12   1
M  END
>  <b_m_subgroup_collapsed>  (663) 
0

>  <r_i_docking_score>  (663) 
-7.5701492926915703

>  <s_m_subgroup_title>  (663) 
glide-dock_SP_D22_pv

>  <s_m_subgroupid>  (663) 
glide-dock_SP_D22_pv

>  <Molecule ChEMBL ID>  (663) 
CHEMBL166252

>  <Standard Type>  (663) 
Ki

>  <Standard Value>  (663) 
46.0

>  <label>  (663) 
1

$$$$
CHEMBL1082210
     RDKit          3D

 57 61  0  0  1  0  0  0  0  0999 V2000
   10.1368    4.5432  -17.7640 C   0  0  0  0  0  0  0  0  0  0  0  0
   11.2333    3.5940  -17.2377 C   0  0  1  0  0  0  0  0  0  0  0  0
   12.3206    4.3136  -16.4089 C   0  0  0  0  0  0  0  0  0  0  0  0
   11.7931    4.7696  -15.1108 N   0  0  0  0  0  0  0  0  0  0  0  0
   11.8802    6.0764  -14.7329 C   0  0  0  0  0  0  0  0  0  0  0  0
   12.3353    6.9424  -15.4829 O   0  0  0  0  0  0  0  0  0  0  0  0
   11.4965    6.5080  -13.3383 C   0  0  0  0  0  0  0  0  0  0  0  0
   12.3589    7.3714  -12.6281 C   0  0  0  0  0  0  0  0  0  0  0  0
   12.0608    7.7723  -11.3118 C   0  0  0  0  0  0  0  0  0  0  0  0
   10.8561    7.3719  -10.6835 C   0  0  0  0  0  0  0  0  0  0  0  0
   10.5858    7.6826   -9.2589 C   0  0  0  0  0  0  0  0  0  0  0  0
    9.6851    6.8972   -8.4947 C   0  0  0  0  0  0  0  0  0  0  0  0
    9.4661    7.1522   -7.1288 C   0  0  0  0  0  0  0  0  0  0  0  0
   10.1544    8.1992   -6.4948 C   0  0  0  0  0  0  0  0  0  0  0  0
   11.0411    8.9984   -7.2303 C   0  0  0  0  0  0  0  0  0  0  0  0
   11.6866   10.0216   -6.6224 F   0  0  0  0  0  0  0  0  0  0  0  0
   11.2526    8.7415   -8.5977 C   0  0  0  0  0  0  0  0  0  0  0  0
    9.9412    6.6088  -11.4499 C   0  0  0  0  0  0  0  0  0  0  0  0
   10.2566    6.1722  -12.7507 C   0  0  0  0  0  0  0  0  0  0  0  0
   11.2845    3.6193  -14.3432 C   0  0  0  0  0  0  0  0  0  0  0  0
   10.1643    2.9135  -15.1322 C   0  0  0  0  0  0  0  0  0  0  0  0
   10.6637    2.4753  -16.4534 N   0  0  0  0  0  0  0  0  0  0  0  0
   10.7515    1.1536  -16.7785 C   0  0  0  0  0  0  0  0  0  0  0  0
   10.4854    0.2526  -15.9802 O   0  0  0  0  0  0  0  0  0  0  0  0
   11.2055    0.7523  -18.1615 C   0  0  0  0  0  0  0  0  0  0  0  0
   10.5533    1.2263  -19.3223 C   0  0  0  0  0  0  0  0  0  0  0  0
   10.9866    0.8285  -20.6056 C   0  0  0  0  0  0  0  0  0  0  0  0
   12.0669   -0.0702  -20.7729 C   0  0  0  0  0  0  0  0  0  0  0  0
   12.7404   -0.6503  -21.9039 C   0  0  0  0  0  0  0  0  0  0  0  0
   13.7243   -1.4664  -21.4059 C   0  0  0  0  0  0  0  0  0  0  0  0
   13.6860   -1.4257  -20.0228 N   0  0  0  0  0  0  0  0  0  0  0  0
   12.6884   -0.5673  -19.5913 C   0  0  0  0  0  0  0  0  0  0  0  0
   12.2599   -0.1743  -18.3126 C   0  0  0  0  0  0  0  0  0  0  0  0
   10.5648    5.2958  -18.4266 H   0  0  0  0  0  0  0  0  0  0  0  0
    9.3754    4.0060  -18.3289 H   0  0  0  0  0  0  0  0  0  0  0  0
    9.6321    5.0775  -16.9586 H   0  0  0  0  0  0  0  0  0  0  0  0
   11.7598    3.2222  -18.1151 H   0  0  0  0  0  0  0  0  0  0  0  0
   12.7481    5.1188  -17.0073 H   0  0  0  0  0  0  0  0  0  0  0  0
   13.1520    3.6300  -16.2220 H   0  0  0  0  0  0  0  0  0  0  0  0
   13.2891    7.6901  -13.0743 H   0  0  0  0  0  0  0  0  0  0  0  0
   12.7952    8.3689  -10.7901 H   0  0  0  0  0  0  0  0  0  0  0  0
    9.1519    6.0698   -8.9373 H   0  0  0  0  0  0  0  0  0  0  0  0
    8.7714    6.5416   -6.5698 H   0  0  0  0  0  0  0  0  0  0  0  0
   10.0055    8.3947   -5.4468 H   0  0  0  0  0  0  0  0  0  0  0  0
   11.9457    9.3720   -9.1308 H   0  0  0  0  0  0  0  0  0  0  0  0
    8.9806    6.3268  -11.0443 H   0  0  0  0  0  0  0  0  0  0  0  0
    9.5274    5.5927  -13.2987 H   0  0  0  0  0  0  0  0  0  0  0  0
   12.0860    2.9050  -14.1869 H   0  0  0  0  0  0  0  0  0  0  0  0
   10.9441    3.8550  -13.3410 H   0  0  0  0  0  0  0  0  0  0  0  0
    9.7797    2.0847  -14.5350 H   0  0  0  0  0  0  0  0  0  0  0  0
    9.3161    3.5838  -15.2642 H   0  0  0  0  0  0  0  0  0  0  0  0
    9.7156    1.9030  -19.2365 H   0  0  0  0  0  0  0  0  0  0  0  0
   10.4831    1.2146  -21.4784 H   0  0  0  0  0  0  0  0  0  0  0  0
   12.5072   -0.4688  -22.9427 H   0  0  0  0  0  0  0  0  0  0  0  0
   14.4472   -2.0798  -21.9244 H   0  0  0  0  0  0  0  0  0  0  0  0
   14.3253   -1.9608  -19.4469 H   0  0  0  0  0  0  0  0  0  0  0  0
   12.7602   -0.5777  -17.4511 H   0  0  0  0  0  0  0  0  0  0  0  0
  2  1  1  0
  3  2  1  0
  4  3  1  0
  5  4  1  0
  6  5  2  0
  7  5  1  0
  8  7  1  0
  9  8  2  0
 10  9  1  0
 11 10  1  0
 12 11  2  0
 13 12  1  0
 14 13  2  0
 15 14  1  0
 16 15  1  0
 17 11  1  0
 17 15  2  0
 18 10  2  0
 19  7  2  0
 19 18  1  0
 20  4  1  0
 21 20  1  0
 22  2  1  0
 22 21  1  0
 23 22  1  0
 24 23  2  0
 25 23  1  0
 26 25  2  0
 27 26  1  0
 28 27  2  0
 29 28  1  0
 30 29  2  0
 31 30  1  0
 32 28  1  0
 32 31  1  0
 33 25  1  0
 33 32  2  0
 34  1  1  0
 35  1  1  0
 36  1  1  0
  2 37  1  6
 38  3  1  0
 39  3  1  0
 40  8  1  0
 41  9  1  0
 42 12  1  0
 43 13  1  0
 44 14  1  0
 45 17  1  0
 46 18  1  0
 47 19  1  0
 48 20  1  0
 49 20  1  0
 50 21  1  0
 51 21  1  0
 52 26  1  0
 53 27  1  0
 54 29  1  0
 55 30  1  0
 56 31  1  0
 57 33  1  0
M  END
>  <b_m_subgroup_collapsed>  (664) 
0

>  <r_i_docking_score>  (664) 
-7.5663978408637798

>  <s_m_subgroup_title>  (664) 
glide-dock_SP_D22_pv

>  <s_m_subgroupid>  (664) 
glide-dock_SP_D22_pv

>  <Molecule ChEMBL ID>  (664) 
CHEMBL1082210

>  <Standard Type>  (664) 
Ki

>  <Standard Value>  (664) 
10000.0

>  <label>  (664) 
0

$$$$
CHEMBL4093971
     RDKit          3D

 66 70  0  0  1  0  0  0  0  0999 V2000
    9.4688    4.1507  -17.5461 O   0  0  0  0  0  0  0  0  0  0  0  0
    9.2827    2.8378  -16.9116 S   0  0  0  0  0  0  0  0  0  0  0  0
    7.9702    2.1771  -17.0066 O   0  0  0  0  0  0  0  0  0  0  0  0
   10.5038    1.6558  -17.5116 C   0  0  0  0  0  0  0  0  0  0  0  0
   10.1417    0.2956  -17.4139 C   0  0  0  0  0  0  0  0  0  0  0  0
   10.8861   -0.7167  -17.9004 N   0  0  0  0  0  0  0  0  0  0  0  0
   12.0365   -0.4038  -18.5249 C   0  0  0  0  0  0  0  0  0  0  0  0
   12.5117    0.9141  -18.6616 C   0  0  0  0  0  0  0  0  0  0  0  0
   13.7345    1.1529  -19.3234 C   0  0  0  0  0  0  0  0  0  0  0  0
   14.2201    2.4661  -19.4473 C   0  0  0  0  0  0  0  0  0  0  0  0
   13.4858    3.5351  -18.9056 C   0  0  0  0  0  0  0  0  0  0  0  0
   12.2594    3.2973  -18.2547 C   0  0  0  0  0  0  0  0  0  0  0  0
   11.7428    1.9841  -18.1297 C   0  0  0  0  0  0  0  0  0  0  0  0
    9.6806    2.9951  -15.2275 N   0  0  0  0  0  0  0  0  0  0  0  0
   10.7256    3.9351  -14.7854 C   0  0  0  0  0  0  0  0  0  0  0  0
   10.1049    5.1585  -14.0800 C   0  0  0  0  0  0  0  0  0  0  0  0
    9.1885    4.7237  -12.9157 C   0  0  0  0  0  0  0  0  0  0  0  0
    8.6029    5.8953  -12.0862 C   0  0  0  0  0  0  0  0  0  0  0  0
    9.7141    6.7726  -11.4629 C   0  0  0  0  0  0  0  0  0  0  0  0
    9.4074    7.4703  -10.1823 N   0  0  0  0  0  0  0  0  0  0  0  0
    9.0370    6.5497   -9.0664 C   0  0  0  0  0  0  0  0  0  0  0  0
    8.8951    7.2912   -7.7243 C   0  0  0  0  0  0  0  0  0  0  0  0
   10.0680    8.0978   -7.4449 N   0  0  0  0  0  0  0  0  0  0  0  0
   10.7792    7.9034   -6.2466 C   0  0  0  0  0  0  0  0  0  0  0  0
   11.0792    6.5860   -5.8806 C   0  0  0  0  0  0  0  0  0  0  0  0
   11.6860    6.3315   -4.6467 C   0  0  0  0  0  0  0  0  0  0  0  0
   12.0155    7.3244   -3.7455 C   0  0  0  0  0  0  0  0  0  0  0  0
   11.7366    8.6304   -4.0981 C   0  0  0  0  0  0  0  0  0  0  0  0
   12.0860    9.7834   -2.8999 Cl  0  0  0  0  0  0  0  0  0  0  0  0
   11.1607    8.9379   -5.3517 C   0  0  0  0  0  0  0  0  0  0  0  0
   10.8861   10.5723   -5.7276 Cl  0  0  0  0  0  0  0  0  0  0  0  0
   10.4279    9.0503   -8.4731 C   0  0  0  0  0  0  0  0  0  0  0  0
   10.5714    8.3417   -9.8281 C   0  0  0  0  0  0  0  0  0  0  0  0
    8.1019    3.7968  -13.4900 C   0  0  0  0  0  0  0  0  0  0  0  0
    8.7371    2.5704  -14.1766 C   0  0  0  0  0  0  0  0  0  0  0  0
    9.2151   -0.0006  -16.9447 H   0  0  0  0  0  0  0  0  0  0  0  0
   12.6030   -1.2367  -18.9152 H   0  0  0  0  0  0  0  0  0  0  0  0
   14.3059    0.3320  -19.7326 H   0  0  0  0  0  0  0  0  0  0  0  0
   15.1541    2.6542  -19.9571 H   0  0  0  0  0  0  0  0  0  0  0  0
   13.8604    4.5445  -18.9952 H   0  0  0  0  0  0  0  0  0  0  0  0
   11.7455    4.1545  -17.8600 H   0  0  0  0  0  0  0  0  0  0  0  0
   11.3962    3.4122  -14.1024 H   0  0  0  0  0  0  0  0  0  0  0  0
   11.3335    4.2498  -15.6314 H   0  0  0  0  0  0  0  0  0  0  0  0
   10.9129    5.7952  -13.7212 H   0  0  0  0  0  0  0  0  0  0  0  0
    9.5418    5.7569  -14.7976 H   0  0  0  0  0  0  0  0  0  0  0  0
    9.7891    4.1237  -12.2289 H   0  0  0  0  0  0  0  0  0  0  0  0
    7.9471    6.5139  -12.7007 H   0  0  0  0  0  0  0  0  0  0  0  0
    7.9610    5.4628  -11.3213 H   0  0  0  0  0  0  0  0  0  0  0  0
   10.6013    6.1721  -11.2883 H   0  0  0  0  0  0  0  0  0  0  0  0
   10.0081    7.5152  -12.2065 H   0  0  0  0  0  0  0  0  0  0  0  0
    8.0868    6.0595   -9.2743 H   0  0  0  0  0  0  0  0  0  0  0  0
    9.7908    5.7663   -8.9733 H   0  0  0  0  0  0  0  0  0  0  0  0
    8.0860    8.0082   -7.7777 H   0  0  0  0  0  0  0  0  0  0  0  0
    8.6518    6.6031   -6.9135 H   0  0  0  0  0  0  0  0  0  0  0  0
   10.8478    5.7724   -6.5479 H   0  0  0  0  0  0  0  0  0  0  0  0
   11.9845    5.3723   -4.3479 H   0  0  0  0  0  0  0  0  0  0  0  0
   12.4734    7.0837   -2.7970 H   0  0  0  0  0  0  0  0  0  0  0  0
    9.6167    9.7723   -8.5342 H   0  0  0  0  0  0  0  0  0  0  0  0
   11.3450    9.5830   -8.2242 H   0  0  0  0  0  0  0  0  0  0  0  0
   11.4753    7.7300   -9.7942 H   0  0  0  0  0  0  0  0  0  0  0  0
   10.7321    9.0822  -10.6112 H   0  0  0  0  0  0  0  0  0  0  0  0
    7.4298    3.4672  -12.6977 H   0  0  0  0  0  0  0  0  0  0  0  0
    7.4846    4.3412  -14.2062 H   0  0  0  0  0  0  0  0  0  0  0  0
    7.9686    1.9134  -14.5811 H   0  0  0  0  0  0  0  0  0  0  0  0
    9.2859    1.9757  -13.4469 H   0  0  0  0  0  0  0  0  0  0  0  0
    8.5921    8.0565  -10.3259 H   0  0  0  0  0  0  0  0  0  0  0  0
  2  1  2  0
  3  2  2  0
  4  2  1  0
  5  4  1  0
  6  5  2  0
  7  6  1  0
  8  7  2  0
  9  8  1  0
 10  9  2  0
 11 10  1  0
 12 11  2  0
 13  4  2  0
 13  8  1  0
 13 12  1  0
 14  2  1  0
 15 14  1  0
 16 15  1  0
 17 16  1  0
 18 17  1  0
 19 18  1  0
 20 19  1  0
 21 20  1  0
 22 21  1  0
 23 22  1  0
 24 23  1  0
 25 24  2  0
 26 25  1  0
 27 26  2  0
 28 27  1  0
 29 28  1  0
 30 24  1  0
 30 28  2  0
 31 30  1  0
 32 23  1  0
 33 20  1  0
 33 32  1  0
 34 17  1  0
 35 14  1  0
 35 34  1  0
 36  5  1  0
 37  7  1  0
 38  9  1  0
 39 10  1  0
 40 11  1  0
 41 12  1  0
 42 15  1  0
 43 15  1  0
 44 16  1  0
 45 16  1  0
 46 17  1  0
 47 18  1  0
 48 18  1  0
 49 19  1  0
 50 19  1  0
 51 21  1  0
 52 21  1  0
 53 22  1  0
 54 22  1  0
 55 25  1  0
 56 26  1  0
 57 27  1  0
 58 32  1  0
 59 32  1  0
 60 33  1  0
 61 33  1  0
 62 34  1  0
 63 34  1  0
 64 35  1  0
 65 35  1  0
 66 20  1  0
M  CHG  1  20   1
M  END
>  <b_m_subgroup_collapsed>  (665) 
0

>  <r_i_docking_score>  (665) 
-7.5635763969147902

>  <s_m_subgroup_title>  (665) 
glide-dock_SP_D22_pv

>  <s_m_subgroupid>  (665) 
glide-dock_SP_D22_pv

>  <Molecule ChEMBL ID>  (665) 
CHEMBL4093971

>  <Standard Type>  (665) 
Ki

>  <Standard Value>  (665) 
30.0

>  <label>  (665) 
1

$$$$
CHEMBL7617
     RDKit          3D

 45 48  0  0  1  0  0  0  0  0999 V2000
    8.9671    7.5996   -6.9634 C   0  0  0  0  0  0  0  0  0  0  0  0
    8.8866    7.2919   -8.4098 N   0  0  0  0  0  0  0  0  0  0  0  0
    9.3248    5.9128   -8.7232 C   0  0  0  0  0  0  0  0  0  0  0  0
    9.1046    5.6151  -10.2093 C   0  0  0  0  0  0  0  0  0  0  0  0
    9.7733    6.5838  -11.0883 N   0  0  0  0  0  0  0  0  0  0  0  0
   10.2810    6.2502  -12.3543 C   0  0  0  0  0  0  0  0  0  0  0  0
   11.3715    6.8837  -12.8541 C   0  0  0  0  0  0  0  0  0  0  0  0
   12.0667    6.6548  -14.1391 C   0  0  0  0  0  0  0  0  0  0  0  0
   12.5890    7.7724  -14.8199 C   0  0  0  0  0  0  0  0  0  0  0  0
   13.1986    7.6353  -16.0814 C   0  0  0  0  0  0  0  0  0  0  0  0
   13.3073    6.3647  -16.6746 C   0  0  0  0  0  0  0  0  0  0  0  0
   12.8057    5.2372  -16.0011 C   0  0  0  0  0  0  0  0  0  0  0  0
   12.1857    5.3804  -14.7413 C   0  0  0  0  0  0  0  0  0  0  0  0
   11.7144    4.1542  -14.0033 C   0  0  0  0  0  0  0  0  0  0  0  0
   10.2121    4.1412  -13.8095 C   0  0  0  0  0  0  0  0  0  0  0  0
    9.4697    3.0861  -14.3853 C   0  0  0  0  0  0  0  0  0  0  0  0
    8.0710    3.0351  -14.2471 C   0  0  0  0  0  0  0  0  0  0  0  0
    7.4041    4.0683  -13.5686 C   0  0  0  0  0  0  0  0  0  0  0  0
    5.6901    4.0288  -13.3918 Cl  0  0  0  0  0  0  0  0  0  0  0  0
    8.1383    5.1344  -13.0225 C   0  0  0  0  0  0  0  0  0  0  0  0
    9.5541    5.1599  -13.0705 C   0  0  0  0  0  0  0  0  0  0  0  0
    9.4840    7.9785  -10.7473 C   0  0  0  0  0  0  0  0  0  0  0  0
    9.6108    8.2841   -9.2421 C   0  0  0  0  0  0  0  0  0  0  0  0
   10.0037    7.6560   -6.6280 H   0  0  0  0  0  0  0  0  0  0  0  0
    8.4847    8.5544   -6.7491 H   0  0  0  0  0  0  0  0  0  0  0  0
    8.4687    6.8323   -6.3731 H   0  0  0  0  0  0  0  0  0  0  0  0
    8.7577    5.1984   -8.1244 H   0  0  0  0  0  0  0  0  0  0  0  0
   10.3756    5.7874   -8.4608 H   0  0  0  0  0  0  0  0  0  0  0  0
    8.0325    5.6258  -10.4069 H   0  0  0  0  0  0  0  0  0  0  0  0
    9.4580    4.6068  -10.4280 H   0  0  0  0  0  0  0  0  0  0  0  0
   11.8389    7.6364  -12.2380 H   0  0  0  0  0  0  0  0  0  0  0  0
   12.5056    8.7548  -14.3818 H   0  0  0  0  0  0  0  0  0  0  0  0
   13.5816    8.5055  -16.5947 H   0  0  0  0  0  0  0  0  0  0  0  0
   13.7791    6.2566  -17.6408 H   0  0  0  0  0  0  0  0  0  0  0  0
   12.9077    4.2617  -16.4535 H   0  0  0  0  0  0  0  0  0  0  0  0
   12.2205    4.1649  -13.0468 H   0  0  0  0  0  0  0  0  0  0  0  0
   12.0460    3.2506  -14.5161 H   0  0  0  0  0  0  0  0  0  0  0  0
    9.9731    2.2999  -14.9302 H   0  0  0  0  0  0  0  0  0  0  0  0
    7.5113    2.2167  -14.6755 H   0  0  0  0  0  0  0  0  0  0  0  0
    7.5980    5.9245  -12.5217 H   0  0  0  0  0  0  0  0  0  0  0  0
   10.1382    8.6530  -11.2966 H   0  0  0  0  0  0  0  0  0  0  0  0
    8.4840    8.2076  -11.0960 H   0  0  0  0  0  0  0  0  0  0  0  0
    9.2240    9.2840   -9.0402 H   0  0  0  0  0  0  0  0  0  0  0  0
   10.6638    8.2870   -8.9588 H   0  0  0  0  0  0  0  0  0  0  0  0
    7.9012    7.3523   -8.6630 H   0  0  0  0  0  0  0  0  0  0  0  0
  2  1  1  0
  3  2  1  0
  4  3  1  0
  5  4  1  0
  6  5  1  0
  7  6  2  0
  8  7  1  0
  9  8  2  0
 10  9  1  0
 11 10  2  0
 12 11  1  0
 13  8  1  0
 13 12  2  0
 14 13  1  0
 15 14  1  0
 16 15  1  0
 17 16  2  0
 18 17  1  0
 19 18  1  0
 20 18  2  0
 21  6  1  0
 21 15  2  0
 21 20  1  0
 22  5  1  0
 23  2  1  0
 23 22  1  0
 24  1  1  0
 25  1  1  0
 26  1  1  0
 27  3  1  0
 28  3  1  0
 29  4  1  0
 30  4  1  0
 31  7  1  0
 32  9  1  0
 33 10  1  0
 34 11  1  0
 35 12  1  0
 36 14  1  0
 37 14  1  0
 38 16  1  0
 39 17  1  0
 40 20  1  0
 41 22  1  0
 42 22  1  0
 43 23  1  0
 44 23  1  0
 45  2  1  0
M  CHG  1   2   1
M  END
>  <b_m_subgroup_collapsed>  (666) 
0

>  <r_i_docking_score>  (666) 
-7.5626969885186597

>  <s_m_subgroup_title>  (666) 
glide-dock_SP_D22_pv

>  <s_m_subgroupid>  (666) 
glide-dock_SP_D22_pv

>  <Molecule ChEMBL ID>  (666) 
CHEMBL7617

>  <Standard Type>  (666) 
Ki

>  <Standard Value>  (666) 
1.0

>  <label>  (666) 
1

$$$$
CHEMBL3298828
     RDKit          3D

 71 74  0  0  1  0  0  0  0  0999 V2000
    2.1590   -5.1077  -19.1880 C   0  0  0  0  0  0  0  0  0  0  0  0
    2.7816   -4.6605  -20.3862 O   0  0  0  0  0  0  0  0  0  0  0  0
    3.7365   -3.6658  -20.2995 C   0  0  0  0  0  0  0  0  0  0  0  0
    3.9721   -3.1100  -19.0879 N   0  0  0  0  0  0  0  0  0  0  0  0
    4.9093   -2.1246  -19.0576 C   0  0  0  0  0  0  0  0  0  0  0  0
    5.3062   -1.2957  -17.5626 S   0  0  0  0  0  0  0  0  0  0  0  0
    6.4846   -0.3101  -18.3847 C   0  0  0  0  0  0  0  0  0  0  0  0
    7.1614    0.7188  -17.5659 C   0  0  0  0  0  0  0  0  0  0  0  0
    7.4307    1.8146  -18.0605 O   0  0  0  0  0  0  0  0  0  0  0  0
    7.4835    0.3971  -16.3017 N   0  0  0  0  0  0  0  0  0  0  0  0
    8.0709    1.3309  -15.3419 C   0  0  0  0  0  0  0  0  0  0  0  0
    6.9970    2.2815  -14.7901 C   0  0  0  0  0  0  0  0  0  0  0  0
    7.5349    3.3929  -13.8775 C   0  0  0  0  0  0  0  0  0  0  0  0
    6.4041    4.2097  -13.2253 C   0  0  0  0  0  0  0  0  0  0  0  0
    6.8302    4.9150  -11.9329 C   0  0  0  0  0  0  0  0  0  0  0  0
    8.0022    5.9050  -12.1062 C   0  0  0  0  0  0  0  0  0  0  0  0
    8.4860    6.4347  -10.8087 N   0  0  2  0  0  0  0  0  0  0  0  0
    9.2913    7.6724  -10.9546 C   0  0  0  0  0  0  0  0  0  0  0  0
    9.6860    8.2619   -9.5870 C   0  0  0  0  0  0  0  0  0  0  0  0
   10.4609    7.2426   -8.7143 C   0  0  1  0  0  0  0  0  0  0  0  0
   10.8787    7.7889   -7.3371 C   0  0  0  0  0  0  0  0  0  0  0  0
   11.3023    9.1269   -7.1831 C   0  0  0  0  0  0  0  0  0  0  0  0
   11.6861    9.6314   -5.9221 C   0  0  0  0  0  0  0  0  0  0  0  0
   11.6716    8.7896   -4.7962 C   0  0  0  0  0  0  0  0  0  0  0  0
   12.0911    9.3738   -3.2314 Cl  0  0  0  0  0  0  0  0  0  0  0  0
   11.2860    7.4500   -4.9377 C   0  0  0  0  0  0  0  0  0  0  0  0
   10.8851    6.9620   -6.1905 C   0  0  0  0  0  0  0  0  0  0  0  0
    9.6148    5.9557   -8.6273 C   0  0  0  0  0  0  0  0  0  0  0  0
    9.2033    5.4176   -9.9970 C   0  0  0  0  0  0  0  0  0  0  0  0
    6.5748   -0.5657  -19.7383 C   0  0  0  0  0  0  0  0  0  0  0  0
    7.4278    0.0976  -20.6367 N   0  0  0  0  0  0  0  0  0  0  0  0
    5.6664   -1.6224  -20.1644 C   0  0  0  0  0  0  0  0  0  0  0  0
    5.3777   -2.2446  -21.4156 C   0  0  0  0  0  0  0  0  0  0  0  0
    6.1086   -1.7864  -22.6707 C   0  0  0  0  0  0  0  0  0  0  0  0
    4.4034   -3.2731  -21.4779 C   0  0  0  0  0  0  0  0  0  0  0  0
    3.9904   -4.0551  -22.9674 Cl  0  0  0  0  0  0  0  0  0  0  0  0
    1.3850   -5.8364  -19.4279 H   0  0  0  0  0  0  0  0  0  0  0  0
    2.8873   -5.5890  -18.5340 H   0  0  0  0  0  0  0  0  0  0  0  0
    1.6860   -4.2851  -18.6507 H   0  0  0  0  0  0  0  0  0  0  0  0
    7.2776   -0.5376  -15.9772 H   0  0  0  0  0  0  0  0  0  0  0  0
    8.8750    1.8963  -15.8189 H   0  0  0  0  0  0  0  0  0  0  0  0
    8.5260    0.7645  -14.5284 H   0  0  0  0  0  0  0  0  0  0  0  0
    6.2459    1.6935  -14.2579 H   0  0  0  0  0  0  0  0  0  0  0  0
    6.4860    2.7518  -15.6256 H   0  0  0  0  0  0  0  0  0  0  0  0
    8.1815    4.0552  -14.4551 H   0  0  0  0  0  0  0  0  0  0  0  0
    8.1807    2.9724  -13.1065 H   0  0  0  0  0  0  0  0  0  0  0  0
    5.5746    3.5452  -12.9717 H   0  0  0  0  0  0  0  0  0  0  0  0
    5.9920    4.9307  -13.9289 H   0  0  0  0  0  0  0  0  0  0  0  0
    7.0747    4.1315  -11.2184 H   0  0  0  0  0  0  0  0  0  0  0  0
    5.9764    5.4443  -11.5120 H   0  0  0  0  0  0  0  0  0  0  0  0
    7.6600    6.7329  -12.7299 H   0  0  0  0  0  0  0  0  0  0  0  0
    8.8442    5.4446  -12.6261 H   0  0  0  0  0  0  0  0  0  0  0  0
    8.7128    8.4158  -11.5069 H   0  0  0  0  0  0  0  0  0  0  0  0
   10.1823    7.4609  -11.5473 H   0  0  0  0  0  0  0  0  0  0  0  0
    8.7929    8.5952   -9.0550 H   0  0  0  0  0  0  0  0  0  0  0  0
   10.2875    9.1498   -9.7762 H   0  0  0  0  0  0  0  0  0  0  0  0
   11.3895    7.0029   -9.2346 H   0  0  0  0  0  0  0  0  0  0  0  0
   11.3434    9.7798   -8.0366 H   0  0  0  0  0  0  0  0  0  0  0  0
   11.9966   10.6624   -5.8266 H   0  0  0  0  0  0  0  0  0  0  0  0
   11.2828    6.7932   -4.0807 H   0  0  0  0  0  0  0  0  0  0  0  0
   10.5926    5.9274   -6.2332 H   0  0  0  0  0  0  0  0  0  0  0  0
   10.1750    5.1583   -8.1434 H   0  0  0  0  0  0  0  0  0  0  0  0
    8.7201    6.1371   -8.0271 H   0  0  0  0  0  0  0  0  0  0  0  0
    8.5860    4.5400   -9.8252 H   0  0  0  0  0  0  0  0  0  0  0  0
   10.0857    5.0744  -10.5428 H   0  0  0  0  0  0  0  0  0  0  0  0
    7.3221   -0.0200  -21.6341 H   0  0  0  0  0  0  0  0  0  0  0  0
    7.9248    0.9284  -20.3430 H   0  0  0  0  0  0  0  0  0  0  0  0
    5.8774   -0.7396  -22.8760 H   0  0  0  0  0  0  0  0  0  0  0  0
    7.1861   -1.8849  -22.5341 H   0  0  0  0  0  0  0  0  0  0  0  0
    5.8491   -2.3530  -23.5630 H   0  0  0  0  0  0  0  0  0  0  0  0
    7.6434    6.7479  -10.3110 H   0  0  0  0  0  0  0  0  0  0  0  0
  2  1  1  0
  3  2  1  0
  4  3  2  0
  5  4  1  0
  6  5  1  0
  7  6  1  0
  8  7  1  0
  9  8  2  0
 10  8  1  0
 11 10  1  0
 12 11  1  0
 13 12  1  0
 14 13  1  0
 15 14  1  0
 16 15  1  0
 17 16  1  0
 18 17  1  0
 19 18  1  0
 20 19  1  0
 21 20  1  0
 22 21  2  0
 23 22  1  0
 24 23  2  0
 25 24  1  0
 26 24  1  0
 27 21  1  0
 27 26  2  0
 28 20  1  0
 29 17  1  0
 29 28  1  0
 30  7  2  0
 31 30  1  0
 32  5  2  0
 32 30  1  0
 33 32  1  0
 34 33  1  0
 35  3  1  0
 35 33  2  0
 36 35  1  0
 37  1  1  0
 38  1  1  0
 39  1  1  0
 40 10  1  0
 41 11  1  0
 42 11  1  0
 43 12  1  0
 44 12  1  0
 45 13  1  0
 46 13  1  0
 47 14  1  0
 48 14  1  0
 49 15  1  0
 50 15  1  0
 51 16  1  0
 52 16  1  0
 53 18  1  0
 54 18  1  0
 55 19  1  0
 56 19  1  0
 20 57  1  6
 58 22  1  0
 59 23  1  0
 60 26  1  0
 61 27  1  0
 62 28  1  0
 63 28  1  0
 64 29  1  0
 65 29  1  0
 66 31  1  0
 67 31  1  0
 68 34  1  0
 69 34  1  0
 70 34  1  0
 17 71  1  1
M  CHG  1  17   1
M  END
>  <b_m_subgroup_collapsed>  (667) 
0

>  <r_i_docking_score>  (667) 
-7.5624692779202798

>  <s_m_subgroup_title>  (667) 
glide-dock_SP_D22_pv

>  <s_m_subgroupid>  (667) 
glide-dock_SP_D22_pv

>  <Molecule ChEMBL ID>  (667) 
CHEMBL3298828

>  <Standard Type>  (667) 
Ki

>  <Standard Value>  (667) 
0.6166

>  <label>  (667) 
1

$$$$
CHEMBL592377
     RDKit          3D

 42 44  0  0  1  0  0  0  0  0999 V2000
   10.2927    2.5798  -13.8468 O   0  0  0  0  0  0  0  0  0  0  0  0
   10.4778    3.8885  -13.4934 C   0  0  0  0  0  0  0  0  0  0  0  0
   11.5303    4.6128  -14.0803 C   0  0  0  0  0  0  0  0  0  0  0  0
   11.7546    5.9495  -13.7078 C   0  0  0  0  0  0  0  0  0  0  0  0
   10.9271    6.5686  -12.7519 C   0  0  0  0  0  0  0  0  0  0  0  0
    9.8529    5.8621  -12.1551 C   0  0  0  0  0  0  0  0  0  0  0  0
    8.8909    6.5461  -11.1650 C   0  0  1  0  0  0  0  0  0  0  0  0
    8.5466    5.7141   -9.9086 C   0  0  0  0  0  0  0  0  0  0  0  0
    9.6644    5.6871   -8.8593 C   0  0  0  0  0  0  0  0  0  0  0  0
   10.1290    7.0493   -8.4642 N   0  0  1  0  0  0  0  0  0  0  0  0
   11.2519    6.9742   -7.4826 C   0  0  0  0  0  0  0  0  0  0  0  0
   11.2331    7.9575   -6.3184 C   0  0  0  0  0  0  0  0  0  0  0  0
   11.4800    7.4738   -5.0126 C   0  0  0  0  0  0  0  0  0  0  0  0
   11.6851    8.3678   -3.9427 C   0  0  0  0  0  0  0  0  0  0  0  0
   11.5612    9.7528   -4.1542 C   0  0  0  0  0  0  0  0  0  0  0  0
   11.2860   10.2411   -5.4451 C   0  0  0  0  0  0  0  0  0  0  0  0
   11.1338    9.3513   -6.5241 C   0  0  0  0  0  0  0  0  0  0  0  0
   10.4844    7.8621   -9.6634 C   0  0  0  0  0  0  0  0  0  0  0  0
    9.3250    7.9456  -10.6708 C   0  0  0  0  0  0  0  0  0  0  0  0
    9.6404    4.5137  -12.5429 C   0  0  0  0  0  0  0  0  0  0  0  0
   10.0119    2.0242  -13.1288 H   0  0  0  0  0  0  0  0  0  0  0  0
   12.1735    4.1413  -14.8093 H   0  0  0  0  0  0  0  0  0  0  0  0
   12.5679    6.5023  -14.1568 H   0  0  0  0  0  0  0  0  0  0  0  0
   11.1388    7.5986  -12.5154 H   0  0  0  0  0  0  0  0  0  0  0  0
    7.9685    6.6747  -11.7323 H   0  0  0  0  0  0  0  0  0  0  0  0
    7.6863    6.1709   -9.4272 H   0  0  0  0  0  0  0  0  0  0  0  0
    8.2262    4.7039  -10.1601 H   0  0  0  0  0  0  0  0  0  0  0  0
   10.4872    5.1002   -9.2558 H   0  0  0  0  0  0  0  0  0  0  0  0
    9.3053    5.1605   -7.9736 H   0  0  0  0  0  0  0  0  0  0  0  0
   11.2999    5.9690   -7.0610 H   0  0  0  0  0  0  0  0  0  0  0  0
   12.2030    7.1137   -7.9910 H   0  0  0  0  0  0  0  0  0  0  0  0
   11.5834    6.4128   -4.8325 H   0  0  0  0  0  0  0  0  0  0  0  0
   11.9045    7.9892   -2.9544 H   0  0  0  0  0  0  0  0  0  0  0  0
   11.6858   10.4384   -3.3274 H   0  0  0  0  0  0  0  0  0  0  0  0
   11.2227   11.3075   -5.6086 H   0  0  0  0  0  0  0  0  0  0  0  0
   10.9757    9.7688   -7.5026 H   0  0  0  0  0  0  0  0  0  0  0  0
   11.3633    7.4308  -10.1413 H   0  0  0  0  0  0  0  0  0  0  0  0
   10.7650    8.8724   -9.3791 H   0  0  0  0  0  0  0  0  0  0  0  0
    9.5597    8.6092  -11.5022 H   0  0  0  0  0  0  0  0  0  0  0  0
    8.4867    8.4303  -10.1715 H   0  0  0  0  0  0  0  0  0  0  0  0
    8.8193    3.9493  -12.1262 H   0  0  0  0  0  0  0  0  0  0  0  0
    9.3455    7.4950   -8.0054 H   0  0  0  0  0  0  0  0  0  0  0  0
  2  1  1  0
  3  2  1  0
  4  3  2  0
  5  4  1  0
  6  5  2  0
  7  6  1  0
  8  7  1  0
  9  8  1  0
 10  9  1  0
 11 10  1  0
 12 11  1  0
 13 12  2  0
 14 13  1  0
 15 14  2  0
 16 15  1  0
 17 12  1  0
 17 16  2  0
 18 10  1  0
 19  7  1  0
 19 18  1  0
 20  2  2  0
 20  6  1  0
 21  1  1  0
 22  3  1  0
 23  4  1  0
 24  5  1  0
  7 25  1  6
 26  8  1  0
 27  8  1  0
 28  9  1  0
 29  9  1  0
 30 11  1  0
 31 11  1  0
 32 13  1  0
 33 14  1  0
 34 15  1  0
 35 16  1  0
 36 17  1  0
 37 18  1  0
 38 18  1  0
 39 19  1  0
 40 19  1  0
 41 20  1  0
 10 42  1  1
M  CHG  1  10   1
M  END
>  <b_m_subgroup_collapsed>  (668) 
0

>  <r_i_docking_score>  (668) 
-7.5623741167618501

>  <s_m_subgroup_title>  (668) 
glide-dock_SP_D22_pv

>  <s_m_subgroupid>  (668) 
glide-dock_SP_D22_pv

>  <Molecule ChEMBL ID>  (668) 
CHEMBL592377

>  <Standard Type>  (668) 
Ki

>  <Standard Value>  (668) 
35.0

>  <label>  (668) 
1

$$$$
CHEMBL1215038
     RDKit          3D

 56 59  0  0  1  0  0  0  0  0999 V2000
    3.2862   -0.8700  -13.5162 F   0  0  0  0  0  0  0  0  0  0  0  0
    4.3739   -0.7196  -14.2697 C   0  0  0  0  0  0  0  0  0  0  0  0
    5.1844    0.4833  -13.7704 C   0  0  0  0  0  0  0  0  0  0  0  0
    6.4970    0.6561  -14.5447 C   0  0  0  0  0  0  0  0  0  0  0  0
    7.0566    1.9209  -14.2173 O   0  0  0  0  0  0  0  0  0  0  0  0
    8.3710    2.1754  -14.5466 C   0  0  0  0  0  0  0  0  0  0  0  0
    9.1919    1.2544  -15.2454 C   0  0  0  0  0  0  0  0  0  0  0  0
   10.5306    1.5708  -15.5386 C   0  0  0  0  0  0  0  0  0  0  0  0
   11.0634    2.8139  -15.1528 C   0  0  0  0  0  0  0  0  0  0  0  0
   10.2559    3.7401  -14.4708 C   0  0  0  0  0  0  0  0  0  0  0  0
    8.9113    3.4267  -14.1540 C   0  0  0  0  0  0  0  0  0  0  0  0
    8.0126    4.4516  -13.4636 C   0  0  0  0  0  0  0  0  0  0  0  0
    8.6987    5.5543  -12.7884 N   0  0  0  0  0  0  0  0  0  0  0  0
    9.2526    5.1225  -11.5014 C   0  0  0  0  0  0  0  0  0  0  0  0
   10.0268    6.2929  -10.8517 C   0  0  0  0  0  0  0  0  0  0  0  0
    9.1395    7.4705  -10.6596 N   0  0  0  0  0  0  0  0  0  0  0  0
    9.7740    8.6299   -9.9912 C   0  0  0  0  0  0  0  0  0  0  0  0
   10.2080    8.3827   -8.5786 C   0  0  0  0  0  0  0  0  0  0  0  0
    9.9397    7.3778   -7.6773 C   0  0  0  0  0  0  0  0  0  0  0  0
   10.6720    7.7061   -6.4875 C   0  0  0  0  0  0  0  0  0  0  0  0
   10.8922    7.1298   -5.2136 C   0  0  0  0  0  0  0  0  0  0  0  0
   11.6862    7.7879   -4.2484 C   0  0  0  0  0  0  0  0  0  0  0  0
   12.2734    9.0393   -4.5316 C   0  0  0  0  0  0  0  0  0  0  0  0
   12.0856    9.6260   -5.7968 C   0  0  0  0  0  0  0  0  0  0  0  0
   11.2996    8.9503   -6.7440 C   0  0  0  0  0  0  0  0  0  0  0  0
   11.0166    9.3470   -8.0324 O   0  0  0  0  0  0  0  0  0  0  0  0
    8.5161    7.8398  -11.9503 C   0  0  0  0  0  0  0  0  0  0  0  0
    7.7517    6.6366  -12.5195 C   0  0  0  0  0  0  0  0  0  0  0  0
    4.0420   -0.5790  -15.2995 H   0  0  0  0  0  0  0  0  0  0  0  0
    4.9500   -1.6445  -14.2255 H   0  0  0  0  0  0  0  0  0  0  0  0
    5.4111    0.3662  -12.7085 H   0  0  0  0  0  0  0  0  0  0  0  0
    4.5737    1.3838  -13.8468 H   0  0  0  0  0  0  0  0  0  0  0  0
    6.3194    0.6048  -15.6204 H   0  0  0  0  0  0  0  0  0  0  0  0
    7.1639   -0.1640  -14.2704 H   0  0  0  0  0  0  0  0  0  0  0  0
    8.8174    0.2943  -15.5732 H   0  0  0  0  0  0  0  0  0  0  0  0
   11.1499    0.8613  -16.0700 H   0  0  0  0  0  0  0  0  0  0  0  0
   12.0929    3.0546  -15.3856 H   0  0  0  0  0  0  0  0  0  0  0  0
   10.6809    4.6947  -14.2038 H   0  0  0  0  0  0  0  0  0  0  0  0
    7.3720    4.8608  -14.2453 H   0  0  0  0  0  0  0  0  0  0  0  0
    7.3471    3.9525  -12.7590 H   0  0  0  0  0  0  0  0  0  0  0  0
    8.4575    4.7749  -10.8380 H   0  0  0  0  0  0  0  0  0  0  0  0
    9.9235    4.2748  -11.6495 H   0  0  0  0  0  0  0  0  0  0  0  0
   10.4429    5.9513   -9.9034 H   0  0  0  0  0  0  0  0  0  0  0  0
   10.8678    6.5753  -11.4869 H   0  0  0  0  0  0  0  0  0  0  0  0
   10.6261    8.9713  -10.5840 H   0  0  0  0  0  0  0  0  0  0  0  0
    9.0586    9.4543   -9.9846 H   0  0  0  0  0  0  0  0  0  0  0  0
    9.3146    6.5064   -7.8098 H   0  0  0  0  0  0  0  0  0  0  0  0
   10.4436    6.1731   -4.9825 H   0  0  0  0  0  0  0  0  0  0  0  0
   11.8370    7.3254   -3.2823 H   0  0  0  0  0  0  0  0  0  0  0  0
   12.8794    9.5316   -3.7860 H   0  0  0  0  0  0  0  0  0  0  0  0
   12.5493   10.5705   -6.0446 H   0  0  0  0  0  0  0  0  0  0  0  0
    7.8279    8.6802  -11.8439 H   0  0  0  0  0  0  0  0  0  0  0  0
    9.2837    8.1770  -12.6460 H   0  0  0  0  0  0  0  0  0  0  0  0
    7.2824    6.9471  -13.4443 H   0  0  0  0  0  0  0  0  0  0  0  0
    6.9560    6.3095  -11.8469 H   0  0  0  0  0  0  0  0  0  0  0  0
    8.3475    7.2017  -10.0835 H   0  0  0  0  0  0  0  0  0  0  0  0
  2  1  1  0
  3  2  1  0
  4  3  1  0
  5  4  1  0
  6  5  1  0
  7  6  2  0
  8  7  1  0
  9  8  2  0
 10  9  1  0
 11  6  1  0
 11 10  2  0
 12 11  1  0
 13 12  1  0
 14 13  1  0
 15 14  1  0
 16 15  1  0
 17 16  1  0
 18 17  1  0
 19 18  2  0
 20 19  1  0
 21 20  2  0
 22 21  1  0
 23 22  2  0
 24 23  1  0
 25 20  1  0
 25 24  2  0
 26 18  1  0
 26 25  1  0
 27 16  1  0
 28 13  1  0
 28 27  1  0
 29  2  1  0
 30  2  1  0
 31  3  1  0
 32  3  1  0
 33  4  1  0
 34  4  1  0
 35  7  1  0
 36  8  1  0
 37  9  1  0
 38 10  1  0
 39 12  1  0
 40 12  1  0
 41 14  1  0
 42 14  1  0
 43 15  1  0
 44 15  1  0
 45 17  1  0
 46 17  1  0
 47 19  1  0
 48 21  1  0
 49 22  1  0
 50 23  1  0
 51 24  1  0
 52 27  1  0
 53 27  1  0
 54 28  1  0
 55 28  1  0
 56 16  1  0
M  CHG  1  16   1
M  END
>  <b_m_subgroup_collapsed>  (669) 
0

>  <r_i_docking_score>  (669) 
-7.5604452792245196

>  <s_m_subgroup_title>  (669) 
glide-dock_SP_D22_pv

>  <s_m_subgroupid>  (669) 
glide-dock_SP_D22_pv

>  <Molecule ChEMBL ID>  (669) 
CHEMBL1215038

>  <Standard Type>  (669) 
Ki

>  <Standard Value>  (669) 
10000.0

>  <label>  (669) 
0

$$$$
CHEMBL3698026
     RDKit          3D

 70 74  0  0  1  0  0  0  0  0999 V2000
    9.7587   -0.2278  -15.4780 O   0  0  0  0  0  0  0  0  0  0  0  0
    8.3457    0.1724  -15.5784 S   0  0  0  0  0  0  0  0  0  0  0  0
    7.3565   -0.2267  -14.5641 O   0  0  0  0  0  0  0  0  0  0  0  0
    8.3090    1.8723  -15.7109 N   0  0  0  0  0  0  0  0  0  0  0  0
    8.4270    2.6435  -14.4867 C   0  0  1  0  0  0  0  0  0  0  0  0
    9.3228    3.8568  -14.7566 C   0  0  0  0  0  0  0  0  0  0  0  0
    9.4568    4.7012  -13.4916 C   0  0  0  0  0  0  0  0  0  0  0  0
    8.0716    5.1865  -13.0285 C   0  0  2  0  0  0  0  0  0  0  0  0
    8.1211    6.1024  -11.7999 C   0  0  0  0  0  0  0  0  0  0  0  0
    9.0331    5.5961  -10.6659 C   0  0  0  0  0  0  0  0  0  0  0  0
    8.8857    6.3402   -9.3961 N   0  0  0  0  0  0  0  0  0  0  0  0
    9.3858    7.7399   -9.4527 C   0  0  0  0  0  0  0  0  0  0  0  0
    9.1482    8.4355   -8.1061 C   0  0  0  0  0  0  0  0  0  0  0  0
    9.8193    7.6868   -7.0469 N   0  0  0  0  0  0  0  0  0  0  0  0
   10.8456    8.2426   -6.2471 C   0  0  0  0  0  0  0  0  0  0  0  0
   11.4865    9.4367   -6.6627 C   0  0  0  0  0  0  0  0  0  0  0  0
   12.4340   10.0802   -5.8524 C   0  0  0  0  0  0  0  0  0  0  0  0
   12.8076    9.5495   -4.6088 C   0  0  0  0  0  0  0  0  0  0  0  0
   12.2057    8.3590   -4.2075 C   0  0  0  0  0  0  0  0  0  0  0  0
   11.2856    7.7026   -5.0057 C   0  0  0  0  0  0  0  0  0  0  0  0
   10.9113    6.5724   -4.3503 O   0  0  0  0  0  0  0  0  0  0  0  0
   11.6115    6.5573   -3.1321 C   0  0  0  0  0  0  0  0  0  0  0  0
   12.4131    7.6904   -3.0496 O   0  0  0  0  0  0  0  0  0  0  0  0
    9.3809    6.3098   -6.9261 C   0  0  0  0  0  0  0  0  0  0  0  0
    9.4779    5.5729   -8.2685 C   0  0  0  0  0  0  0  0  0  0  0  0
    7.0795    4.0219  -12.8118 C   0  0  0  0  0  0  0  0  0  0  0  0
    7.0236    3.0462  -13.9950 C   0  0  0  0  0  0  0  0  0  0  0  0
    7.7471   -0.2274  -17.1524 N   0  0  0  0  0  0  0  0  0  0  0  0
    6.3160   -0.0321  -17.4371 C   0  0  0  0  0  0  0  0  0  0  0  0
    6.0741    1.3283  -18.1182 C   0  0  0  0  0  0  0  0  0  0  0  0
    6.8854    1.4346  -19.2814 O   0  0  0  0  0  0  0  0  0  0  0  0
    8.2724    1.3625  -18.9862 C   0  0  0  0  0  0  0  0  0  0  0  0
    8.6065    0.0106  -18.3249 C   0  0  0  0  0  0  0  0  0  0  0  0
    9.0051    2.1800  -16.3879 H   0  0  0  0  0  0  0  0  0  0  0  0
    8.9080    2.0265  -13.7252 H   0  0  0  0  0  0  0  0  0  0  0  0
    8.8980    4.4639  -15.5577 H   0  0  0  0  0  0  0  0  0  0  0  0
   10.3117    3.5329  -15.0857 H   0  0  0  0  0  0  0  0  0  0  0  0
   10.1112    5.5520  -13.6843 H   0  0  0  0  0  0  0  0  0  0  0  0
    9.9412    4.0978  -12.7209 H   0  0  0  0  0  0  0  0  0  0  0  0
    7.6821    5.7823  -13.8455 H   0  0  0  0  0  0  0  0  0  0  0  0
    7.0969    6.1739  -11.4407 H   0  0  0  0  0  0  0  0  0  0  0  0
    8.4228    7.1032  -12.1097 H   0  0  0  0  0  0  0  0  0  0  0  0
   10.0810    5.6263  -10.9691 H   0  0  0  0  0  0  0  0  0  0  0  0
    8.7947    4.5487  -10.4765 H   0  0  0  0  0  0  0  0  0  0  0  0
    8.8821    8.3013  -10.2368 H   0  0  0  0  0  0  0  0  0  0  0  0
   10.4499    7.7435   -9.6970 H   0  0  0  0  0  0  0  0  0  0  0  0
    8.0863    8.4360   -7.8754 H   0  0  0  0  0  0  0  0  0  0  0  0
    9.4086    9.4870   -8.1612 H   0  0  0  0  0  0  0  0  0  0  0  0
   11.2834    9.8929   -7.6145 H   0  0  0  0  0  0  0  0  0  0  0  0
   12.8835   10.9885   -6.2158 H   0  0  0  0  0  0  0  0  0  0  0  0
   13.5330   10.0457   -3.9834 H   0  0  0  0  0  0  0  0  0  0  0  0
   10.9118    6.5266   -2.2955 H   0  0  0  0  0  0  0  0  0  0  0  0
   12.2641    5.6913   -3.0874 H   0  0  0  0  0  0  0  0  0  0  0  0
    9.9946    5.7724   -6.2206 H   0  0  0  0  0  0  0  0  0  0  0  0
    8.3563    6.2937   -6.5536 H   0  0  0  0  0  0  0  0  0  0  0  0
    8.9898    4.6025   -8.1829 H   0  0  0  0  0  0  0  0  0  0  0  0
   10.5273    5.3802   -8.4895 H   0  0  0  0  0  0  0  0  0  0  0  0
    7.3294    3.4831  -11.9049 H   0  0  0  0  0  0  0  0  0  0  0  0
    6.0770    4.4177  -12.6367 H   0  0  0  0  0  0  0  0  0  0  0  0
    6.4544    3.5002  -14.8027 H   0  0  0  0  0  0  0  0  0  0  0  0
    6.4568    2.1597  -13.7086 H   0  0  0  0  0  0  0  0  0  0  0  0
    5.9785   -0.8326  -18.0981 H   0  0  0  0  0  0  0  0  0  0  0  0
    5.7286   -0.1178  -16.5221 H   0  0  0  0  0  0  0  0  0  0  0  0
    5.0269    1.4142  -18.4103 H   0  0  0  0  0  0  0  0  0  0  0  0
    6.2747    2.1668  -17.4463 H   0  0  0  0  0  0  0  0  0  0  0  0
    8.8325    1.4680  -19.9157 H   0  0  0  0  0  0  0  0  0  0  0  0
    8.5615    2.2021  -18.3545 H   0  0  0  0  0  0  0  0  0  0  0  0
    9.6583   -0.0303  -18.0407 H   0  0  0  0  0  0  0  0  0  0  0  0
    8.4458   -0.7926  -19.0445 H   0  0  0  0  0  0  0  0  0  0  0  0
    7.8909    6.4288   -9.2152 H   0  0  0  0  0  0  0  0  0  0  0  0
  2  1  2  0
  3  2  2  0
  4  2  1  0
  5  4  1  0
  6  5  1  0
  7  6  1  0
  8  7  1  0
  9  8  1  0
 10  9  1  0
 11 10  1  0
 12 11  1  0
 13 12  1  0
 14 13  1  0
 15 14  1  0
 16 15  2  0
 17 16  1  0
 18 17  2  0
 19 18  1  0
 20 15  1  0
 20 19  2  0
 21 20  1  0
 22 21  1  0
 23 19  1  0
 23 22  1  0
 24 14  1  0
 25 11  1  0
 25 24  1  0
 26  8  1  0
 27  5  1  0
 27 26  1  0
 28  2  1  0
 29 28  1  0
 30 29  1  0
 31 30  1  0
 32 31  1  0
 33 28  1  0
 33 32  1  0
 34  4  1  0
  5 35  1  1
 36  6  1  0
 37  6  1  0
 38  7  1  0
 39  7  1  0
  8 40  1  6
 41  9  1  0
 42  9  1  0
 43 10  1  0
 44 10  1  0
 45 12  1  0
 46 12  1  0
 47 13  1  0
 48 13  1  0
 49 16  1  0
 50 17  1  0
 51 18  1  0
 52 22  1  0
 53 22  1  0
 54 24  1  0
 55 24  1  0
 56 25  1  0
 57 25  1  0
 58 26  1  0
 59 26  1  0
 60 27  1  0
 61 27  1  0
 62 29  1  0
 63 29  1  0
 64 30  1  0
 65 30  1  0
 66 32  1  0
 67 32  1  0
 68 33  1  0
 69 33  1  0
 70 11  1  0
M  CHG  1  11   1
M  END
>  <b_m_subgroup_collapsed>  (670) 
0

>  <r_i_docking_score>  (670) 
-7.5601367116161002

>  <s_m_subgroup_title>  (670) 
glide-dock_SP_D22_pv

>  <s_m_subgroupid>  (670) 
glide-dock_SP_D22_pv

>  <Molecule ChEMBL ID>  (670) 
CHEMBL3698026

>  <Standard Type>  (670) 
Ki

>  <Standard Value>  (670) 
62.99

>  <label>  (670) 
1

$$$$
CHEMBL4079642
     RDKit          3D

 61 65  0  0  1  0  0  0  0  0999 V2000
    6.4976    1.1423  -19.0068 C   0  0  0  0  0  0  0  0  0  0  0  0
    7.2862    1.7245  -17.9760 O   0  0  0  0  0  0  0  0  0  0  0  0
    7.1904    1.2121  -16.6953 C   0  0  0  0  0  0  0  0  0  0  0  0
    6.1454    0.3163  -16.3402 C   0  0  0  0  0  0  0  0  0  0  0  0
    6.0524   -0.2178  -15.0468 C   0  0  0  0  0  0  0  0  0  0  0  0
    7.0252    0.1168  -14.0996 C   0  0  0  0  0  0  0  0  0  0  0  0
    8.0675    0.9903  -14.4528 C   0  0  0  0  0  0  0  0  0  0  0  0
    8.1774    1.5937  -15.7304 C   0  0  0  0  0  0  0  0  0  0  0  0
    9.3131    2.4390  -15.9773 N   0  0  0  0  0  0  0  0  0  0  0  0
    9.4100    3.2585  -17.1771 C   0  0  0  0  0  0  0  0  0  0  0  0
   10.3400    4.1480  -16.3531 C   0  0  0  0  0  0  0  0  0  0  0  0
    9.6987    3.5452  -15.0958 C   0  0  2  0  0  0  0  0  0  0  0  0
   10.5009    3.3399  -13.8192 C   0  0  0  0  0  0  0  0  0  0  0  0
    9.3270    3.7681  -13.0510 N   0  0  1  0  0  0  0  0  0  0  0  0
    9.6528    4.6460  -11.9028 C   0  0  0  0  0  0  0  0  0  0  0  0
    8.4587    5.3486  -11.2423 C   0  0  0  0  0  0  0  0  0  0  0  0
    8.9268    6.1885  -10.0375 C   0  0  0  0  0  0  0  0  0  0  0  0
    9.6858    7.7650  -10.5423 S   0  0  0  0  0  0  0  0  0  0  0  0
   10.6224    8.1337   -9.0933 C   0  0  0  0  0  0  0  0  0  0  0  0
   11.9323    8.3615   -9.1632 N   0  0  0  0  0  0  0  0  0  0  0  0
   12.3405    8.5706   -7.8706 N   0  0  0  0  0  0  0  0  0  0  0  0
   11.2522    8.4207   -7.1137 C   0  0  0  0  0  0  0  0  0  0  0  0
   11.3385    8.4304   -5.6634 C   0  0  0  0  0  0  0  0  0  0  0  0
   11.4535    9.6456   -4.9582 C   0  0  0  0  0  0  0  0  0  0  0  0
   11.6857    9.6276   -3.5693 C   0  0  0  0  0  0  0  0  0  0  0  0
   11.8215    8.4020   -2.8879 C   0  0  0  0  0  0  0  0  0  0  0  0
   11.6861    7.1875   -3.5879 C   0  0  0  0  0  0  0  0  0  0  0  0
   11.4286    7.2026   -4.9726 C   0  0  0  0  0  0  0  0  0  0  0  0
   10.1329    8.2062   -7.8329 N   0  0  0  0  0  0  0  0  0  0  0  0
    8.7752    8.0799   -7.3387 C   0  0  0  0  0  0  0  0  0  0  0  0
    8.7411    4.3853  -14.2422 C   0  0  0  0  0  0  0  0  0  0  0  0
    6.8013    1.5581  -19.9675 H   0  0  0  0  0  0  0  0  0  0  0  0
    6.6374    0.0616  -19.0622 H   0  0  0  0  0  0  0  0  0  0  0  0
    5.4373    1.3654  -18.8731 H   0  0  0  0  0  0  0  0  0  0  0  0
    5.3823    0.0224  -17.0447 H   0  0  0  0  0  0  0  0  0  0  0  0
    5.2514   -0.8988  -14.7955 H   0  0  0  0  0  0  0  0  0  0  0  0
    6.9878   -0.3159  -13.1101 H   0  0  0  0  0  0  0  0  0  0  0  0
    8.8270    1.1680  -13.7119 H   0  0  0  0  0  0  0  0  0  0  0  0
    9.8854    2.7609  -18.0233 H   0  0  0  0  0  0  0  0  0  0  0  0
    8.4858    3.7679  -17.4491 H   0  0  0  0  0  0  0  0  0  0  0  0
   10.1678    5.2169  -16.4877 H   0  0  0  0  0  0  0  0  0  0  0  0
   11.3953    3.8918  -16.4673 H   0  0  0  0  0  0  0  0  0  0  0  0
   11.3515    4.0209  -13.7529 H   0  0  0  0  0  0  0  0  0  0  0  0
   10.8032    2.3098  -13.6259 H   0  0  0  0  0  0  0  0  0  0  0  0
   10.3983    5.3861  -12.1980 H   0  0  0  0  0  0  0  0  0  0  0  0
   10.0938    4.0003  -11.1472 H   0  0  0  0  0  0  0  0  0  0  0  0
    7.7451    4.5995  -10.8964 H   0  0  0  0  0  0  0  0  0  0  0  0
    7.9252    5.9836  -11.9511 H   0  0  0  0  0  0  0  0  0  0  0  0
    9.6301    5.6197   -9.4271 H   0  0  0  0  0  0  0  0  0  0  0  0
    8.0857    6.4142   -9.3926 H   0  0  0  0  0  0  0  0  0  0  0  0
   11.3963   10.5879   -5.4842 H   0  0  0  0  0  0  0  0  0  0  0  0
   11.7805   10.5567   -3.0262 H   0  0  0  0  0  0  0  0  0  0  0  0
   12.0123    8.3960   -1.8250 H   0  0  0  0  0  0  0  0  0  0  0  0
   11.7800    6.2456   -3.0660 H   0  0  0  0  0  0  0  0  0  0  0  0
   11.3498    6.2678   -5.5102 H   0  0  0  0  0  0  0  0  0  0  0  0
    8.0864    8.5630   -8.0290 H   0  0  0  0  0  0  0  0  0  0  0  0
    8.5085    7.0297   -7.2219 H   0  0  0  0  0  0  0  0  0  0  0  0
    8.6751    8.5720   -6.3719 H   0  0  0  0  0  0  0  0  0  0  0  0
    7.6828    4.1533  -14.3651 H   0  0  0  0  0  0  0  0  0  0  0  0
    8.9331    5.4580  -14.3087 H   0  0  0  0  0  0  0  0  0  0  0  0
    8.7857    2.9620  -12.7716 H   0  0  0  0  0  0  0  0  0  0  0  0
  2  1  1  0
  3  2  1  0
  4  3  2  0
  5  4  1  0
  6  5  2  0
  7  6  1  0
  8  3  1  0
  8  7  2  0
  9  8  1  0
 10  9  1  0
 11 10  1  0
 12  9  1  6
 12 11  1  0
 13 12  1  0
 14 13  1  0
 15 14  1  0
 16 15  1  0
 17 16  1  0
 18 17  1  0
 19 18  1  0
 20 19  2  0
 21 20  1  0
 22 21  2  0
 23 22  1  0
 24 23  2  0
 25 24  1  0
 26 25  2  0
 27 26  1  0
 28 23  1  0
 28 27  2  0
 29 19  1  0
 29 22  1  0
 30 29  1  0
 31 12  1  0
 31 14  1  0
 32  1  1  0
 33  1  1  0
 34  1  1  0
 35  4  1  0
 36  5  1  0
 37  6  1  0
 38  7  1  0
 39 10  1  0
 40 10  1  0
 41 11  1  0
 42 11  1  0
 43 13  1  0
 44 13  1  0
 45 15  1  0
 46 15  1  0
 47 16  1  0
 48 16  1  0
 49 17  1  0
 50 17  1  0
 51 24  1  0
 52 25  1  0
 53 26  1  0
 54 27  1  0
 55 28  1  0
 56 30  1  0
 57 30  1  0
 58 30  1  0
 59 31  1  0
 60 31  1  0
 14 61  1  1
M  CHG  1  14   1
M  END
>  <b_m_subgroup_collapsed>  (671) 
0

>  <r_i_docking_score>  (671) 
-7.5600954628923898

>  <s_m_subgroup_title>  (671) 
glide-dock_SP_D22_pv

>  <s_m_subgroupid>  (671) 
glide-dock_SP_D22_pv

>  <Molecule ChEMBL ID>  (671) 
CHEMBL4079642

>  <Standard Type>  (671) 
Ki

>  <Standard Value>  (671) 
114945.0

>  <label>  (671) 
0

$$$$
CHEMBL5723012
     RDKit          3D

 42 43  0  0  1  0  0  0  0  0999 V2000
    6.5105    4.0514  -12.4152 C   0  0  0  0  0  0  0  0  0  0  0  0
    7.8291    4.5308  -13.0374 C   0  0  0  0  0  0  0  0  0  0  0  0
    9.1115    4.2092  -12.2333 C   0  0  0  0  0  0  0  0  0  0  0  0
    9.1652    4.7110  -10.7643 C   0  0  0  0  0  0  0  0  0  0  0  0
    8.8758    6.2009  -10.4957 C   0  0  1  0  0  0  0  0  0  0  0  0
    9.2536    6.6262   -9.1193 N   0  0  0  0  0  0  0  0  0  0  0  0
   10.6431    7.0475   -8.9352 C   0  0  0  0  0  0  0  0  0  0  0  0
   10.8689    7.7489   -7.6059 C   0  0  0  0  0  0  0  0  0  0  0  0
   11.1310    9.0702   -7.5317 C   0  0  0  0  0  0  0  0  0  0  0  0
   11.4594    9.7242   -6.2469 C   0  0  0  0  0  0  0  0  0  0  0  0
   11.6860   10.9313   -6.1892 O   0  0  0  0  0  0  0  0  0  0  0  0
   11.5428    8.8259   -5.0598 C   0  0  0  0  0  0  0  0  0  0  0  0
   11.9153    9.3141   -3.7853 C   0  0  0  0  0  0  0  0  0  0  0  0
   12.0898    8.4293   -2.7042 C   0  0  0  0  0  0  0  0  0  0  0  0
   12.4860    8.8991   -1.4981 F   0  0  0  0  0  0  0  0  0  0  0  0
   11.8687    7.0530   -2.8823 C   0  0  0  0  0  0  0  0  0  0  0  0
   11.4569    6.5723   -4.1382 C   0  0  0  0  0  0  0  0  0  0  0  0
   11.2860    7.4434   -5.2262 C   0  0  0  0  0  0  0  0  0  0  0  0
   10.9120    6.9441   -6.4804 N   0  0  0  0  0  0  0  0  0  0  0  0
    9.3286    7.1900  -11.5913 C   0  0  0  0  0  0  0  0  0  0  0  0
    8.4860    8.1873  -11.8469 N   0  0  0  0  0  0  0  0  0  0  0  0
   10.4157    7.0857  -12.1567 O   0  0  0  0  0  0  0  0  0  0  0  0
    5.6694    4.3174  -13.0559 H   0  0  0  0  0  0  0  0  0  0  0  0
    6.4860    2.9723  -12.2820 H   0  0  0  0  0  0  0  0  0  0  0  0
    6.3343    4.5157  -11.4469 H   0  0  0  0  0  0  0  0  0  0  0  0
    7.7571    5.6029  -13.2137 H   0  0  0  0  0  0  0  0  0  0  0  0
    7.9257    4.0855  -14.0280 H   0  0  0  0  0  0  0  0  0  0  0  0
    9.9642    4.6148  -12.7773 H   0  0  0  0  0  0  0  0  0  0  0  0
    9.2860    3.1339  -12.2469 H   0  0  0  0  0  0  0  0  0  0  0  0
   10.1075    4.4230  -10.3179 H   0  0  0  0  0  0  0  0  0  0  0  0
    8.4184    4.1723  -10.1851 H   0  0  0  0  0  0  0  0  0  0  0  0
    7.7861    6.1838  -10.5213 H   0  0  0  0  0  0  0  0  0  0  0  0
    8.6348    7.3723   -8.8265 H   0  0  0  0  0  0  0  0  0  0  0  0
   10.9895    7.7351   -9.7048 H   0  0  0  0  0  0  0  0  0  0  0  0
   11.2856    6.1723   -8.9976 H   0  0  0  0  0  0  0  0  0  0  0  0
   11.1341    9.6817   -8.4221 H   0  0  0  0  0  0  0  0  0  0  0  0
   12.0860   10.3632   -3.6178 H   0  0  0  0  0  0  0  0  0  0  0  0
   12.0023    6.3672   -2.0584 H   0  0  0  0  0  0  0  0  0  0  0  0
   11.2778    5.5228   -4.2693 H   0  0  0  0  0  0  0  0  0  0  0  0
   10.7155    5.9566   -6.5763 H   0  0  0  0  0  0  0  0  0  0  0  0
    7.6033    8.1839  -11.3129 H   0  0  0  0  0  0  0  0  0  0  0  0
    8.6973    8.8929  -12.5334 H   0  0  0  0  0  0  0  0  0  0  0  0
  2  1  1  0
  3  2  1  0
  4  3  1  0
  5  4  1  0
  6  5  1  0
  7  6  1  0
  8  7  1  0
  9  8  2  0
 10  9  1  0
 11 10  2  0
 12 10  1  0
 13 12  2  0
 14 13  1  0
 15 14  1  0
 16 14  2  0
 17 16  1  0
 18 12  1  0
 18 17  2  0
 19  8  1  0
 19 18  1  0
 20  5  1  0
 21 20  1  0
 22 20  2  0
 23  1  1  0
 24  1  1  0
 25  1  1  0
 26  2  1  0
 27  2  1  0
 28  3  1  0
 29  3  1  0
 30  4  1  0
 31  4  1  0
  5 32  1  1
 33  6  1  0
 34  7  1  0
 35  7  1  0
 36  9  1  0
 37 13  1  0
 38 16  1  0
 39 17  1  0
 40 19  1  0
 41 21  1  0
 42 21  1  0
M  END
>  <b_m_subgroup_collapsed>  (672) 
0

>  <r_i_docking_score>  (672) 
-7.5586540074938204

>  <s_m_subgroup_title>  (672) 
glide-dock_SP_D22_pv

>  <s_m_subgroupid>  (672) 
glide-dock_SP_D22_pv

>  <Molecule ChEMBL ID>  (672) 
CHEMBL5723012

>  <Standard Type>  (672) 
Ki

>  <Standard Value>  (672) 
10000.0

>  <label>  (672) 
0

$$$$
CHEMBL543587
     RDKit          3D

 47 48  0  0  1  0  0  0  0  0999 V2000
    6.0251    5.7239  -12.2913 C   0  0  0  0  0  0  0  0  0  0  0  0
    7.4892    6.1904  -12.3559 C   0  0  0  0  0  0  0  0  0  0  0  0
    8.2022    6.1307  -11.0497 N   0  0  0  0  0  0  0  0  0  0  0  0
    8.3162    4.7455  -10.5105 C   0  0  0  0  0  0  0  0  0  0  0  0
    8.6504    4.7107   -9.0101 C   0  0  0  0  0  0  0  0  0  0  0  0
    9.5132    6.8320  -11.1152 C   0  0  0  0  0  0  0  0  0  0  0  0
    9.4223    8.3246  -10.7327 C   0  0  0  0  0  0  0  0  0  0  0  0
    9.5829    8.6633   -9.2300 C   0  0  0  0  0  0  0  0  0  0  0  0
   10.9505    8.3049   -8.5875 C   0  0  2  0  0  0  0  0  0  0  0  0
   12.1586    8.5722   -9.5031 C   0  0  0  0  0  0  0  0  0  0  0  0
   10.9371    6.9230   -8.2603 O   0  0  0  0  0  0  0  0  0  0  0  0
   11.1310    6.7901   -6.9156 C   0  0  0  0  0  0  0  0  0  0  0  0
   11.2809    7.9201   -6.2169 C   0  0  0  0  0  0  0  0  0  0  0  0
   11.5753    8.0352   -4.7710 C   0  0  0  0  0  0  0  0  0  0  0  0
   11.7299    6.8627   -3.9986 C   0  0  0  0  0  0  0  0  0  0  0  0
   12.0864    6.9441   -2.6418 C   0  0  0  0  0  0  0  0  0  0  0  0
   12.2775    8.1995   -2.0398 C   0  0  0  0  0  0  0  0  0  0  0  0
   12.0862    9.3722   -2.7875 C   0  0  0  0  0  0  0  0  0  0  0  0
   11.7355    9.2938   -4.1449 C   0  0  0  0  0  0  0  0  0  0  0  0
   11.1661    8.9619   -7.2198 C   0  0  0  0  0  0  0  0  0  0  0  0
   11.2891   10.1719   -7.0466 O   0  0  0  0  0  0  0  0  0  0  0  0
    5.4907    6.0095  -13.1965 H   0  0  0  0  0  0  0  0  0  0  0  0
    5.9357    4.6413  -12.2069 H   0  0  0  0  0  0  0  0  0  0  0  0
    5.4934    6.1669  -11.4481 H   0  0  0  0  0  0  0  0  0  0  0  0
    7.4907    7.2273  -12.6938 H   0  0  0  0  0  0  0  0  0  0  0  0
    8.0315    5.6161  -13.1094 H   0  0  0  0  0  0  0  0  0  0  0  0
    7.3834    4.2025  -10.6468 H   0  0  0  0  0  0  0  0  0  0  0  0
    9.0584    4.1792  -11.0750 H   0  0  0  0  0  0  0  0  0  0  0  0
    8.4178    3.7366   -8.5847 H   0  0  0  0  0  0  0  0  0  0  0  0
    9.7099    4.8798   -8.8298 H   0  0  0  0  0  0  0  0  0  0  0  0
    8.0831    5.4547   -8.4494 H   0  0  0  0  0  0  0  0  0  0  0  0
    9.9027    6.7501  -12.1321 H   0  0  0  0  0  0  0  0  0  0  0  0
   10.2643    6.3320  -10.5088 H   0  0  0  0  0  0  0  0  0  0  0  0
    8.4862    8.7465  -11.0936 H   0  0  0  0  0  0  0  0  0  0  0  0
   10.1871    8.8653  -11.2902 H   0  0  0  0  0  0  0  0  0  0  0  0
    8.7779    8.1936   -8.6621 H   0  0  0  0  0  0  0  0  0  0  0  0
    9.4211    9.7360   -9.1273 H   0  0  0  0  0  0  0  0  0  0  0  0
   12.0859    9.5590   -9.9583 H   0  0  0  0  0  0  0  0  0  0  0  0
   13.1057    8.5229   -8.9598 H   0  0  0  0  0  0  0  0  0  0  0  0
   12.2165    7.8407  -10.3071 H   0  0  0  0  0  0  0  0  0  0  0  0
   11.1701    5.7720   -6.5726 H   0  0  0  0  0  0  0  0  0  0  0  0
   11.5986    5.8829   -4.4301 H   0  0  0  0  0  0  0  0  0  0  0  0
   12.2139    6.0400   -2.0623 H   0  0  0  0  0  0  0  0  0  0  0  0
   12.5606    8.2693   -1.0028 H   0  0  0  0  0  0  0  0  0  0  0  0
   12.1946   10.3360   -2.3156 H   0  0  0  0  0  0  0  0  0  0  0  0
   11.6040   10.2166   -4.6841 H   0  0  0  0  0  0  0  0  0  0  0  0
    7.6006    6.6754  -10.4242 H   0  0  0  0  0  0  0  0  0  0  0  0
  2  1  1  0
  3  2  1  0
  4  3  1  0
  5  4  1  0
  6  3  1  0
  7  6  1  0
  8  7  1  0
  9  8  1  6
 10  9  1  0
 11  9  1  0
 12 11  1  0
 13 12  2  0
 14 13  1  0
 15 14  2  0
 16 15  1  0
 17 16  2  0
 18 17  1  0
 19 14  1  0
 19 18  2  0
 20  9  1  0
 20 13  1  0
 21 20  2  0
 22  1  1  0
 23  1  1  0
 24  1  1  0
 25  2  1  0
 26  2  1  0
 27  4  1  0
 28  4  1  0
 29  5  1  0
 30  5  1  0
 31  5  1  0
 32  6  1  0
 33  6  1  0
 34  7  1  0
 35  7  1  0
 36  8  1  0
 37  8  1  0
 38 10  1  0
 39 10  1  0
 40 10  1  0
 41 12  1  0
 42 15  1  0
 43 16  1  0
 44 17  1  0
 45 18  1  0
 46 19  1  0
 47  3  1  0
M  CHG  1   3   1
M  END
>  <b_m_subgroup_collapsed>  (673) 
0

>  <r_i_docking_score>  (673) 
-7.5553792096271

>  <s_m_subgroup_title>  (673) 
glide-dock_SP_D22_pv

>  <s_m_subgroupid>  (673) 
glide-dock_SP_D22_pv

>  <Molecule ChEMBL ID>  (673) 
CHEMBL543587

>  <Standard Type>  (673) 
Ki

>  <Standard Value>  (673) 
10000.0

>  <label>  (673) 
0

$$$$
CHEMBL5722979
     RDKit          3D

 44 46  0  0  1  0  0  0  0  0999 V2000
   11.7280    3.9427  -14.5591 O   0  0  0  0  0  0  0  0  0  0  0  0
   10.5241    3.8634  -14.3195 C   0  0  0  0  0  0  0  0  0  0  0  0
    9.7975    4.9723  -13.6705 C   0  0  0  0  0  0  0  0  0  0  0  0
    8.4959    4.8559  -13.3213 C   0  0  0  0  0  0  0  0  0  0  0  0
    7.7031    5.9706  -12.6469 C   0  0  0  0  0  0  0  0  0  0  0  0
    8.0860    6.1723  -11.2319 N   0  0  0  0  0  0  0  0  0  0  0  0
    9.4554    6.7057  -11.0291 C   0  0  0  0  0  0  0  0  0  0  0  0
    9.6176    7.5655   -9.7595 C   0  0  0  0  0  0  0  0  0  0  0  0
    8.8860    8.7645   -9.9817 O   0  0  0  0  0  0  0  0  0  0  0  0
   11.1019    7.9718   -9.5976 C   0  0  0  0  0  0  0  0  0  0  0  0
   11.3767    8.7522   -8.2992 C   0  0  0  0  0  0  0  0  0  0  0  0
   10.8849    7.9887   -7.0611 C   0  0  0  0  0  0  0  0  0  0  0  0
    9.4005    7.6232   -7.1975 C   0  0  0  0  0  0  0  0  0  0  0  0
    9.1455    6.8212   -8.4850 C   0  0  0  0  0  0  0  0  0  0  0  0
    7.7688    3.7161  -13.6323 N   0  0  0  0  0  0  0  0  0  0  0  0
    8.3393    2.6250  -14.3018 C   0  0  0  0  0  0  0  0  0  0  0  0
    7.5589    1.4978  -14.6297 C   0  0  0  0  0  0  0  0  0  0  0  0
    8.1510    0.3994  -15.2829 C   0  0  0  0  0  0  0  0  0  0  0  0
    9.5192    0.4266  -15.6157 C   0  0  0  0  0  0  0  0  0  0  0  0
   10.0860   -0.6276  -16.2468 F   0  0  0  0  0  0  0  0  0  0  0  0
   10.2997    1.5533  -15.3004 C   0  0  0  0  0  0  0  0  0  0  0  0
    9.7137    2.6586  -14.6466 C   0  0  0  0  0  0  0  0  0  0  0  0
   10.3578    5.8730  -13.4766 H   0  0  0  0  0  0  0  0  0  0  0  0
    6.6373    5.7380  -12.6719 H   0  0  0  0  0  0  0  0  0  0  0  0
    7.8240    6.9023  -13.2011 H   0  0  0  0  0  0  0  0  0  0  0  0
    7.9711    5.3123  -10.7149 H   0  0  0  0  0  0  0  0  0  0  0  0
    9.7463    7.3159  -11.8857 H   0  0  0  0  0  0  0  0  0  0  0  0
   10.1374    5.8566  -10.9953 H   0  0  0  0  0  0  0  0  0  0  0  0
    7.9448    8.5723  -10.0763 H   0  0  0  0  0  0  0  0  0  0  0  0
   11.7181    7.0728   -9.5964 H   0  0  0  0  0  0  0  0  0  0  0  0
   11.4323    8.5622  -10.4538 H   0  0  0  0  0  0  0  0  0  0  0  0
   12.4443    8.9570   -8.2096 H   0  0  0  0  0  0  0  0  0  0  0  0
   10.8858    9.7238   -8.3485 H   0  0  0  0  0  0  0  0  0  0  0  0
   11.4755    7.0809   -6.9305 H   0  0  0  0  0  0  0  0  0  0  0  0
   11.0398    8.5909   -6.1652 H   0  0  0  0  0  0  0  0  0  0  0  0
    9.0789    7.0439   -6.3312 H   0  0  0  0  0  0  0  0  0  0  0  0
    8.7916    8.5289   -7.2012 H   0  0  0  0  0  0  0  0  0  0  0  0
    8.0860    6.5726   -8.5479 H   0  0  0  0  0  0  0  0  0  0  0  0
    9.6685    5.8667   -8.4097 H   0  0  0  0  0  0  0  0  0  0  0  0
    6.7877    3.6632  -13.3939 H   0  0  0  0  0  0  0  0  0  0  0  0
    6.5098    1.4640  -14.3748 H   0  0  0  0  0  0  0  0  0  0  0  0
    7.5569   -0.4694  -15.5280 H   0  0  0  0  0  0  0  0  0  0  0  0
   11.3473    1.5621  -15.5661 H   0  0  0  0  0  0  0  0  0  0  0  0
    7.4224    6.8500  -10.8340 H   0  0  0  0  0  0  0  0  0  0  0  0
  2  1  2  0
  3  2  1  0
  4  3  2  0
  5  4  1  0
  6  5  1  0
  7  6  1  0
  8  7  1  0
  9  8  1  0
 10  8  1  0
 11 10  1  0
 12 11  1  0
 13 12  1  0
 14  8  1  0
 14 13  1  0
 15  4  1  0
 16 15  1  0
 17 16  2  0
 18 17  1  0
 19 18  2  0
 20 19  1  0
 21 19  1  0
 22  2  1  0
 22 16  1  0
 22 21  2  0
 23  3  1  0
 24  5  1  0
 25  5  1  0
 26  6  1  0
 27  7  1  0
 28  7  1  0
 29  9  1  0
 30 10  1  0
 31 10  1  0
 32 11  1  0
 33 11  1  0
 34 12  1  0
 35 12  1  0
 36 13  1  0
 37 13  1  0
 38 14  1  0
 39 14  1  0
 40 15  1  0
 41 17  1  0
 42 18  1  0
 43 21  1  0
 44  6  1  0
M  CHG  1   6   1
M  END
>  <b_m_subgroup_collapsed>  (674) 
0

>  <r_i_docking_score>  (674) 
-7.5549282565807498

>  <s_m_subgroup_title>  (674) 
glide-dock_SP_D22_pv

>  <s_m_subgroupid>  (674) 
glide-dock_SP_D22_pv

>  <Molecule ChEMBL ID>  (674) 
CHEMBL5722979

>  <Standard Type>  (674) 
Ki

>  <Standard Value>  (674) 
10000.0

>  <label>  (674) 
0

$$$$
CHEMBL3289952
     RDKit          3D

 55 59  0  0  1  0  0  0  0  0999 V2000
    5.9772    4.5316  -13.4124 O   0  0  0  0  0  0  0  0  0  0  0  0
    7.3229    4.9823  -13.0266 S   0  0  0  0  0  0  0  0  0  0  0  0
    7.6861    6.4067  -13.0469 O   0  0  0  0  0  0  0  0  0  0  0  0
    7.6168    4.4204  -11.4472 N   0  0  0  0  0  0  0  0  0  0  0  0
    8.8159    4.8420  -10.7379 C   0  0  0  0  0  0  0  0  0  0  0  0
    8.5991    6.2025  -10.0980 C   0  0  0  0  0  0  0  0  0  0  0  0
    9.7730    6.4642   -9.2890 N   0  0  0  0  0  0  0  0  0  0  0  0
   10.1771    7.8665   -9.3430 C   0  0  0  0  0  0  0  0  0  0  0  0
   11.5258    7.9774   -8.6163 C   0  0  0  0  0  0  0  0  0  0  0  0
   11.4001    7.5187   -7.2318 N   0  0  0  0  0  0  0  0  0  0  0  0
   11.2821    8.4459   -6.1816 C   0  0  0  0  0  0  0  0  0  0  0  0
   10.8856    9.6730   -6.4422 N   0  0  0  0  0  0  0  0  0  0  0  0
   10.8877   10.5722   -5.0467 S   0  0  0  0  0  0  0  0  0  0  0  0
   11.6107    9.3333   -4.0407 C   0  0  0  0  0  0  0  0  0  0  0  0
   12.0709    9.3839   -2.7128 C   0  0  0  0  0  0  0  0  0  0  0  0
   12.4858    8.2089   -2.0721 C   0  0  0  0  0  0  0  0  0  0  0  0
   12.4759    6.9947   -2.7769 C   0  0  0  0  0  0  0  0  0  0  0  0
   12.0857    6.9706   -4.1277 C   0  0  0  0  0  0  0  0  0  0  0  0
   11.6604    8.1379   -4.8096 C   0  0  0  0  0  0  0  0  0  0  0  0
   10.8038    6.1943   -7.1029 C   0  0  0  0  0  0  0  0  0  0  0  0
    9.4969    6.1050   -7.8994 C   0  0  0  0  0  0  0  0  0  0  0  0
    8.5170    4.0544  -13.9788 C   0  0  0  0  0  0  0  0  0  0  0  0
    9.7474    4.6435  -14.3298 C   0  0  0  0  0  0  0  0  0  0  0  0
   10.6745    3.9136  -15.0990 C   0  0  0  0  0  0  0  0  0  0  0  0
   10.3687    2.6020  -15.5183 C   0  0  0  0  0  0  0  0  0  0  0  0
   11.2844    1.8771  -16.3093 C   0  0  0  0  0  0  0  0  0  0  0  0
   10.9692    0.5722  -16.7350 C   0  0  0  0  0  0  0  0  0  0  0  0
    9.7493   -0.0206  -16.3586 C   0  0  0  0  0  0  0  0  0  0  0  0
    8.8335    0.6959  -15.5652 C   0  0  0  0  0  0  0  0  0  0  0  0
    9.1338    2.0099  -15.1494 C   0  0  0  0  0  0  0  0  0  0  0  0
    8.2086    2.7393  -14.3781 C   0  0  0  0  0  0  0  0  0  0  0  0
    7.3384    3.4562  -11.2878 H   0  0  0  0  0  0  0  0  0  0  0  0
    9.6751    4.8407  -11.4088 H   0  0  0  0  0  0  0  0  0  0  0  0
    9.0306    4.1499   -9.9356 H   0  0  0  0  0  0  0  0  0  0  0  0
    7.6863    6.1723   -9.4985 H   0  0  0  0  0  0  0  0  0  0  0  0
    8.4850    6.9724  -10.8598 H   0  0  0  0  0  0  0  0  0  0  0  0
    9.4207    8.5116   -8.8916 H   0  0  0  0  0  0  0  0  0  0  0  0
   10.2992    8.1823  -10.3795 H   0  0  0  0  0  0  0  0  0  0  0  0
   11.8960    9.0025   -8.6625 H   0  0  0  0  0  0  0  0  0  0  0  0
   12.2754    7.3723   -9.1241 H   0  0  0  0  0  0  0  0  0  0  0  0
   12.0857   10.3211   -2.1801 H   0  0  0  0  0  0  0  0  0  0  0  0
   12.8099    8.2421   -1.0458 H   0  0  0  0  0  0  0  0  0  0  0  0
   12.7892    6.0818   -2.2901 H   0  0  0  0  0  0  0  0  0  0  0  0
   12.1177    6.0290   -4.6514 H   0  0  0  0  0  0  0  0  0  0  0  0
   11.5138    5.4428   -7.4458 H   0  0  0  0  0  0  0  0  0  0  0  0
   10.5723    5.9714   -6.0645 H   0  0  0  0  0  0  0  0  0  0  0  0
    8.7348    6.7643   -7.4774 H   0  0  0  0  0  0  0  0  0  0  0  0
    9.1079    5.0890   -7.8452 H   0  0  0  0  0  0  0  0  0  0  0  0
    9.9785    5.6506  -14.0174 H   0  0  0  0  0  0  0  0  0  0  0  0
   11.6163    4.3685  -15.3730 H   0  0  0  0  0  0  0  0  0  0  0  0
   12.2278    2.3181  -16.5979 H   0  0  0  0  0  0  0  0  0  0  0  0
   11.6728    0.0224  -17.3438 H   0  0  0  0  0  0  0  0  0  0  0  0
    9.5148   -1.0254  -16.6803 H   0  0  0  0  0  0  0  0  0  0  0  0
    7.8987    0.2325  -15.2832 H   0  0  0  0  0  0  0  0  0  0  0  0
    7.2623    2.2993  -14.1003 H   0  0  0  0  0  0  0  0  0  0  0  0
  2  1  2  0
  3  2  2  0
  4  2  1  0
  5  4  1  0
  6  5  1  0
  7  6  1  0
  8  7  1  0
  9  8  1  0
 10  9  1  0
 11 10  1  0
 12 11  2  0
 13 12  1  0
 14 13  1  0
 15 14  2  0
 16 15  1  0
 17 16  2  0
 18 17  1  0
 19 11  1  0
 19 14  1  0
 19 18  2  0
 20 10  1  0
 21  7  1  0
 21 20  1  0
 22  2  1  0
 23 22  1  0
 24 23  2  0
 25 24  1  0
 26 25  2  0
 27 26  1  0
 28 27  2  0
 29 28  1  0
 30 25  1  0
 30 29  2  0
 31 22  2  0
 31 30  1  0
 32  4  1  0
 33  5  1  0
 34  5  1  0
 35  6  1  0
 36  6  1  0
 37  8  1  0
 38  8  1  0
 39  9  1  0
 40  9  1  0
 41 15  1  0
 42 16  1  0
 43 17  1  0
 44 18  1  0
 45 20  1  0
 46 20  1  0
 47 21  1  0
 48 21  1  0
 49 23  1  0
 50 24  1  0
 51 26  1  0
 52 27  1  0
 53 28  1  0
 54 29  1  0
 55 31  1  0
M  END
>  <b_m_subgroup_collapsed>  (675) 
0

>  <r_i_docking_score>  (675) 
-7.5541569474783001

>  <s_m_subgroup_title>  (675) 
glide-dock_SP_D22_pv

>  <s_m_subgroupid>  (675) 
glide-dock_SP_D22_pv

>  <Molecule ChEMBL ID>  (675) 
CHEMBL3289952

>  <Standard Type>  (675) 
Ki

>  <Standard Value>  (675) 
18.0

>  <label>  (675) 
1

$$$$
CHEMBL4876260
     RDKit          3D

 54 57  0  0  1  0  0  0  0  0999 V2000
   11.0919    5.1056  -16.2179 O   0  0  0  0  0  0  0  0  0  0  0  0
   11.0682    3.9358  -15.8362 C   0  0  0  0  0  0  0  0  0  0  0  0
   10.7388    3.5672  -14.5882 N   0  0  0  0  0  0  0  0  0  0  0  0
   10.2698    4.4796  -13.5484 C   0  0  0  0  0  0  0  0  0  0  0  0
    8.7508    4.4969  -13.3372 C   0  0  0  0  0  0  0  0  0  0  0  0
    7.9695    3.4294  -13.8469 C   0  0  0  0  0  0  0  0  0  0  0  0
    6.5809    3.3796  -13.6367 C   0  0  0  0  0  0  0  0  0  0  0  0
    5.9491    4.3997  -12.9105 C   0  0  0  0  0  0  0  0  0  0  0  0
    6.7026    5.4735  -12.4067 C   0  0  0  0  0  0  0  0  0  0  0  0
    8.0997    5.5392  -12.6098 C   0  0  0  0  0  0  0  0  0  0  0  0
    8.8398    6.7533  -12.0388 C   0  0  0  0  0  0  0  0  0  0  0  0
    8.8860    6.8525  -10.5530 N   0  0  1  0  0  0  0  0  0  0  0  0
    9.1009    5.5682   -9.8427 C   0  0  0  0  0  0  0  0  0  0  0  0
    8.9161    5.7463   -8.3325 C   0  0  0  0  0  0  0  0  0  0  0  0
    9.7402    6.8945   -7.7809 C   0  0  0  0  0  0  0  0  0  0  0  0
   10.0804    6.9365   -6.4138 C   0  0  0  0  0  0  0  0  0  0  0  0
   10.8893    7.9653   -5.9049 C   0  0  0  0  0  0  0  0  0  0  0  0
   11.2861    7.9339   -4.5998 O   0  0  0  0  0  0  0  0  0  0  0  0
   11.3193    9.0005   -6.7539 C   0  0  0  0  0  0  0  0  0  0  0  0
   12.0862   10.0114   -6.2471 O   0  0  0  0  0  0  0  0  0  0  0  0
   10.9623    8.9752   -8.1181 C   0  0  0  0  0  0  0  0  0  0  0  0
   10.1708    7.9298   -8.6375 C   0  0  0  0  0  0  0  0  0  0  0  0
    9.8283    7.9234  -10.1217 C   0  0  0  0  0  0  0  0  0  0  0  0
   11.4607    2.8220  -16.7591 C   0  0  0  0  0  0  0  0  0  0  0  0
   12.5153    3.0102  -17.6800 C   0  0  0  0  0  0  0  0  0  0  0  0
   12.8635    1.9887  -18.5854 C   0  0  0  0  0  0  0  0  0  0  0  0
   12.1474    0.7770  -18.5879 C   0  0  0  0  0  0  0  0  0  0  0  0
   11.0852    0.5886  -17.6837 C   0  0  0  0  0  0  0  0  0  0  0  0
   10.0861   -1.0277  -17.7191 Br  0  0  0  0  0  0  0  0  0  0  0  0
   10.7460    1.6022  -16.7672 C   0  0  0  0  0  0  0  0  0  0  0  0
   10.7892    2.5867  -14.3533 H   0  0  0  0  0  0  0  0  0  0  0  0
   10.6442    5.4755  -13.7783 H   0  0  0  0  0  0  0  0  0  0  0  0
   10.7371    4.1758  -12.6123 H   0  0  0  0  0  0  0  0  0  0  0  0
    8.4223    2.6155  -14.3920 H   0  0  0  0  0  0  0  0  0  0  0  0
    6.0037    2.5534  -14.0244 H   0  0  0  0  0  0  0  0  0  0  0  0
    4.8858    4.3563  -12.7390 H   0  0  0  0  0  0  0  0  0  0  0  0
    6.1968    6.2493  -11.8483 H   0  0  0  0  0  0  0  0  0  0  0  0
    8.3435    7.6497  -12.4141 H   0  0  0  0  0  0  0  0  0  0  0  0
    9.8534    6.8134  -12.4212 H   0  0  0  0  0  0  0  0  0  0  0  0
    8.3953    4.8051  -10.1718 H   0  0  0  0  0  0  0  0  0  0  0  0
   10.0962    5.1917  -10.0680 H   0  0  0  0  0  0  0  0  0  0  0  0
    9.2030    4.8164   -7.8464 H   0  0  0  0  0  0  0  0  0  0  0  0
    7.8671    5.9133   -8.0907 H   0  0  0  0  0  0  0  0  0  0  0  0
    9.7282    6.1722   -5.7439 H   0  0  0  0  0  0  0  0  0  0  0  0
   11.0502    7.1325   -4.1590 H   0  0  0  0  0  0  0  0  0  0  0  0
   12.7162   10.3600   -6.8583 H   0  0  0  0  0  0  0  0  0  0  0  0
   11.2898    9.7686   -8.7744 H   0  0  0  0  0  0  0  0  0  0  0  0
    9.4090    8.8920  -10.3973 H   0  0  0  0  0  0  0  0  0  0  0  0
   10.7745    7.8222  -10.6557 H   0  0  0  0  0  0  0  0  0  0  0  0
   13.0640    3.9417  -17.6946 H   0  0  0  0  0  0  0  0  0  0  0  0
   13.6743    2.1389  -19.2827 H   0  0  0  0  0  0  0  0  0  0  0  0
   12.4058   -0.0026  -19.2895 H   0  0  0  0  0  0  0  0  0  0  0  0
    9.9169    1.4428  -16.0932 H   0  0  0  0  0  0  0  0  0  0  0  0
    7.9487    7.1663  -10.2726 H   0  0  0  0  0  0  0  0  0  0  0  0
  2  1  2  0
  3  2  1  0
  4  3  1  0
  5  4  1  0
  6  5  2  0
  7  6  1  0
  8  7  2  0
  9  8  1  0
 10  5  1  0
 10  9  2  0
 11 10  1  0
 12 11  1  0
 13 12  1  0
 14 13  1  0
 15 14  1  0
 16 15  1  0
 17 16  2  0
 18 17  1  0
 19 17  1  0
 20 19  1  0
 21 19  2  0
 22 15  2  0
 22 21  1  0
 23 12  1  0
 23 22  1  0
 24  2  1  0
 25 24  2  0
 26 25  1  0
 27 26  2  0
 28 27  1  0
 29 28  1  0
 30 24  1  0
 30 28  2  0
 31  3  1  0
 32  4  1  0
 33  4  1  0
 34  6  1  0
 35  7  1  0
 36  8  1  0
 37  9  1  0
 38 11  1  0
 39 11  1  0
 40 13  1  0
 41 13  1  0
 42 14  1  0
 43 14  1  0
 44 16  1  0
 45 18  1  0
 46 20  1  0
 47 21  1  0
 48 23  1  0
 49 23  1  0
 50 25  1  0
 51 26  1  0
 52 27  1  0
 53 30  1  0
 12 54  1  1
M  CHG  1  12   1
M  END
>  <b_m_subgroup_collapsed>  (676) 
0

>  <r_i_docking_score>  (676) 
-7.5534291436641503

>  <s_m_subgroup_title>  (676) 
glide-dock_SP_D22_pv

>  <s_m_subgroupid>  (676) 
glide-dock_SP_D22_pv

>  <Molecule ChEMBL ID>  (676) 
CHEMBL4876260

>  <Standard Type>  (676) 
Ki

>  <Standard Value>  (676) 
56.0

>  <label>  (676) 
1

$$$$
CHEMBL5188923
     RDKit          3D

 61 64  0  0  1  0  0  0  0  0999 V2000
   11.6844   10.5051   -6.0683 O   0  0  0  0  0  0  0  0  0  0  0  0
   11.4239    9.3259   -5.8142 C   0  0  0  0  0  0  0  0  0  0  0  0
   11.6893    8.8068   -4.4192 C   0  0  0  0  0  0  0  0  0  0  0  0
   12.0857    7.4672   -4.1637 C   0  0  0  0  0  0  0  0  0  0  0  0
   12.4643    7.0927   -2.8625 C   0  0  0  0  0  0  0  0  0  0  0  0
   12.4860    8.0744   -1.8600 C   0  0  0  0  0  0  0  0  0  0  0  0
   12.0883    9.3727   -2.2037 C   0  0  0  0  0  0  0  0  0  0  0  0
   11.6858    9.7323   -3.4364 N   0  0  0  0  0  0  0  0  0  0  0  0
   10.9631    8.4803   -6.7667 N   0  0  0  0  0  0  0  0  0  0  0  0
   11.2095    8.7506   -8.1909 C   0  0  0  0  0  0  0  0  0  0  0  0
    9.8989    8.7373   -8.9926 C   0  0  0  0  0  0  0  0  0  0  0  0
    9.1789    7.4919   -8.7712 N   0  0  0  0  0  0  0  0  0  0  0  0
    9.7389    6.3350   -9.4517 C   0  0  0  0  0  0  0  0  0  0  0  0
    8.8714    6.0371  -10.6772 C   0  0  0  0  0  0  0  0  0  0  0  0
    9.4780    4.8975  -11.4980 C   0  0  0  0  0  0  0  0  0  0  0  0
    8.7033    4.4922  -12.6951 N   0  0  0  0  0  0  0  0  0  0  0  0
    9.4383    3.4047  -13.4005 C   0  0  0  0  0  0  0  0  0  0  0  0
    8.7042    2.8906  -14.6397 C   0  0  0  0  0  0  0  0  0  0  0  0
    7.3274    2.5686  -14.3057 N   0  0  0  0  0  0  0  0  0  0  0  0
    6.7138    1.3846  -14.7653 C   0  0  0  0  0  0  0  0  0  0  0  0
    5.9083    0.6639  -13.8532 C   0  0  0  0  0  0  0  0  0  0  0  0
    5.2209   -0.4932  -14.2587 C   0  0  0  0  0  0  0  0  0  0  0  0
    5.3374   -0.9604  -15.5770 C   0  0  0  0  0  0  0  0  0  0  0  0
    6.1398   -0.2635  -16.4979 C   0  0  0  0  0  0  0  0  0  0  0  0
    6.2403   -0.8508  -18.1199 Cl  0  0  0  0  0  0  0  0  0  0  0  0
    6.8325    0.9070  -16.1049 C   0  0  0  0  0  0  0  0  0  0  0  0
    7.7213    1.7722  -17.3146 Cl  0  0  0  0  0  0  0  0  0  0  0  0
    6.5346    3.5985  -13.6420 C   0  0  0  0  0  0  0  0  0  0  0  0
    7.2705    4.1726  -12.4160 C   0  0  0  0  0  0  0  0  0  0  0  0
    8.8858    7.2822   -7.3597 C   0  0  0  0  0  0  0  0  0  0  0  0
   10.1779    7.2575   -6.5322 C   0  0  0  0  0  0  0  0  0  0  0  0
   12.1399    6.7259   -4.9454 H   0  0  0  0  0  0  0  0  0  0  0  0
   12.7849    6.0826   -2.6528 H   0  0  0  0  0  0  0  0  0  0  0  0
   12.8722    7.8550   -0.8770 H   0  0  0  0  0  0  0  0  0  0  0  0
   12.1264   10.1637   -1.4717 H   0  0  0  0  0  0  0  0  0  0  0  0
   11.6864    9.7124   -8.3649 H   0  0  0  0  0  0  0  0  0  0  0  0
   11.9117    8.0072   -8.5704 H   0  0  0  0  0  0  0  0  0  0  0  0
    9.2610    9.5619   -8.6747 H   0  0  0  0  0  0  0  0  0  0  0  0
   10.0899    8.8804  -10.0566 H   0  0  0  0  0  0  0  0  0  0  0  0
   10.7742    6.5059   -9.7440 H   0  0  0  0  0  0  0  0  0  0  0  0
    9.7400    5.4625   -8.7958 H   0  0  0  0  0  0  0  0  0  0  0  0
    7.8725    5.7746  -10.3214 H   0  0  0  0  0  0  0  0  0  0  0  0
    8.7634    6.9293  -11.2966 H   0  0  0  0  0  0  0  0  0  0  0  0
   10.4544    5.2248  -11.8469 H   0  0  0  0  0  0  0  0  0  0  0  0
    9.6466    4.0314  -10.8580 H   0  0  0  0  0  0  0  0  0  0  0  0
   10.4278    3.7581  -13.6941 H   0  0  0  0  0  0  0  0  0  0  0  0
    9.6043    2.5734  -12.7156 H   0  0  0  0  0  0  0  0  0  0  0  0
    8.7192    3.6468  -15.4261 H   0  0  0  0  0  0  0  0  0  0  0  0
    9.2234    2.0109  -15.0232 H   0  0  0  0  0  0  0  0  0  0  0  0
    5.8018    1.0005  -12.8313 H   0  0  0  0  0  0  0  0  0  0  0  0
    4.5946   -1.0245  -13.5626 H   0  0  0  0  0  0  0  0  0  0  0  0
    4.8083   -1.8518  -15.8846 H   0  0  0  0  0  0  0  0  0  0  0  0
    6.3502    4.3995  -14.3540 H   0  0  0  0  0  0  0  0  0  0  0  0
    5.5527    3.2293  -13.3476 H   0  0  0  0  0  0  0  0  0  0  0  0
    7.1916    3.4796  -11.5805 H   0  0  0  0  0  0  0  0  0  0  0  0
    6.7438    5.0753  -12.1045 H   0  0  0  0  0  0  0  0  0  0  0  0
    8.2412    8.0906   -7.0103 H   0  0  0  0  0  0  0  0  0  0  0  0
    8.3167    6.3610   -7.2238 H   0  0  0  0  0  0  0  0  0  0  0  0
   10.7799    6.3826   -6.7812 H   0  0  0  0  0  0  0  0  0  0  0  0
    9.8711    7.1504   -5.4925 H   0  0  0  0  0  0  0  0  0  0  0  0
    8.6874    5.2821  -13.3230 H   0  0  0  0  0  0  0  0  0  0  0  0
  2  1  2  0
  3  2  1  0
  4  3  2  0
  5  4  1  0
  6  5  2  0
  7  6  1  0
  8  3  1  0
  8  7  2  0
  9  2  1  0
 10  9  1  0
 11 10  1  0
 12 11  1  0
 13 12  1  0
 14 13  1  0
 15 14  1  0
 16 15  1  0
 17 16  1  0
 18 17  1  0
 19 18  1  0
 20 19  1  0
 21 20  2  0
 22 21  1  0
 23 22  2  0
 24 23  1  0
 25 24  1  0
 26 20  1  0
 26 24  2  0
 27 26  1  0
 28 19  1  0
 29 16  1  0
 29 28  1  0
 30 12  1  0
 31  9  1  0
 31 30  1  0
 32  4  1  0
 33  5  1  0
 34  6  1  0
 35  7  1  0
 36 10  1  0
 37 10  1  0
 38 11  1  0
 39 11  1  0
 40 13  1  0
 41 13  1  0
 42 14  1  0
 43 14  1  0
 44 15  1  0
 45 15  1  0
 46 17  1  0
 47 17  1  0
 48 18  1  0
 49 18  1  0
 50 21  1  0
 51 22  1  0
 52 23  1  0
 53 28  1  0
 54 28  1  0
 55 29  1  0
 56 29  1  0
 57 30  1  0
 58 30  1  0
 59 31  1  0
 60 31  1  0
 61 16  1  0
M  CHG  1  16   1
M  END
>  <b_m_subgroup_collapsed>  (677) 
0

>  <r_i_docking_score>  (677) 
-7.5514091287004899

>  <s_m_subgroup_title>  (677) 
glide-dock_SP_D22_pv

>  <s_m_subgroupid>  (677) 
glide-dock_SP_D22_pv

>  <Molecule ChEMBL ID>  (677) 
CHEMBL5188923

>  <Standard Type>  (677) 
Ki

>  <Standard Value>  (677) 
82.0

>  <label>  (677) 
1

$$$$
CHEMBL4442321
     RDKit          3D

 60 63  0  0  1  0  0  0  0  0999 V2000
    9.1437    2.6432  -14.2590 O   0  0  0  0  0  0  0  0  0  0  0  0
    7.9265    2.5679  -14.4257 C   0  0  0  0  0  0  0  0  0  0  0  0
    7.0177    3.3713  -13.8496 N   0  0  0  0  0  0  0  0  0  0  0  0
    7.2435    4.3381  -12.7858 C   0  0  0  0  0  0  0  0  0  0  0  0
    8.3239    5.3998  -13.0914 C   0  0  0  0  0  0  0  0  0  0  0  0
    8.4541    6.4537  -11.9792 C   0  0  0  0  0  0  0  0  0  0  0  0
    8.8436    5.8392  -10.6227 C   0  0  0  0  0  0  0  0  0  0  0  0
    8.8860    6.8092   -9.5031 N   0  0  0  0  0  0  0  0  0  0  0  0
    8.7699    6.0744   -8.2120 C   0  0  0  0  0  0  0  0  0  0  0  0
    8.9201    6.9918   -7.0010 C   0  0  0  0  0  0  0  0  0  0  0  0
   10.1641    7.7311   -7.1231 N   0  0  0  0  0  0  0  0  0  0  0  0
   10.8468    7.9930   -5.9277 C   0  0  0  0  0  0  0  0  0  0  0  0
   11.2811    6.8948   -5.1534 C   0  0  0  0  0  0  0  0  0  0  0  0
   11.8320    7.0877   -3.8788 C   0  0  0  0  0  0  0  0  0  0  0  0
   11.9593    8.3888   -3.3701 C   0  0  0  0  0  0  0  0  0  0  0  0
   12.4951    8.5942   -1.7533 Cl  0  0  0  0  0  0  0  0  0  0  0  0
   11.5889    9.4984   -4.1554 C   0  0  0  0  0  0  0  0  0  0  0  0
   11.0428    9.3047   -5.4422 C   0  0  0  0  0  0  0  0  0  0  0  0
   10.2464    8.5893   -8.2932 C   0  0  0  0  0  0  0  0  0  0  0  0
   10.0652    7.7305   -9.5661 C   0  0  0  0  0  0  0  0  0  0  0  0
    7.3346    1.5420  -15.3367 C   0  0  0  0  0  0  0  0  0  0  0  0
    6.3196    0.6776  -14.8715 C   0  0  0  0  0  0  0  0  0  0  0  0
    5.7061   -0.2283  -15.7535 C   0  0  0  0  0  0  0  0  0  0  0  0
    6.1103   -0.3046  -17.1074 C   0  0  0  0  0  0  0  0  0  0  0  0
    5.4335   -1.2028  -18.0566 C   0  0  0  0  0  0  0  0  0  0  0  0
    4.6655   -2.3313  -17.6221 C   0  0  0  0  0  0  0  0  0  0  0  0
    4.0859   -3.0305  -18.6468 C   0  0  0  0  0  0  0  0  0  0  0  0
    4.4858   -2.3483  -20.1939 S   0  0  0  0  0  0  0  0  0  0  0  0
    5.4239   -1.0961  -19.4279 C   0  0  0  0  0  0  0  0  0  0  0  0
    7.1705    0.5209  -17.5465 C   0  0  0  0  0  0  0  0  0  0  0  0
    7.7836    1.4335  -16.6673 C   0  0  0  0  0  0  0  0  0  0  0  0
    6.0554    3.2196  -14.1160 H   0  0  0  0  0  0  0  0  0  0  0  0
    6.2922    4.8318  -12.5773 H   0  0  0  0  0  0  0  0  0  0  0  0
    7.4976    3.7718  -11.8919 H   0  0  0  0  0  0  0  0  0  0  0  0
    9.2968    4.9288  -13.2305 H   0  0  0  0  0  0  0  0  0  0  0  0
    8.0886    5.8949  -14.0317 H   0  0  0  0  0  0  0  0  0  0  0  0
    9.1923    7.1954  -12.2814 H   0  0  0  0  0  0  0  0  0  0  0  0
    7.5067    6.9800  -11.8862 H   0  0  0  0  0  0  0  0  0  0  0  0
    8.0942    5.0972  -10.3563 H   0  0  0  0  0  0  0  0  0  0  0  0
    9.7906    5.3054  -10.6991 H   0  0  0  0  0  0  0  0  0  0  0  0
    7.8048    5.5680   -8.1570 H   0  0  0  0  0  0  0  0  0  0  0  0
    9.5360    5.3000   -8.1680 H   0  0  0  0  0  0  0  0  0  0  0  0
    8.0871    7.6977   -6.9532 H   0  0  0  0  0  0  0  0  0  0  0  0
    8.8849    6.4030   -6.0840 H   0  0  0  0  0  0  0  0  0  0  0  0
   11.1530    5.8885   -5.5214 H   0  0  0  0  0  0  0  0  0  0  0  0
   12.1163    6.2353   -3.2784 H   0  0  0  0  0  0  0  0  0  0  0  0
   11.6749   10.4926   -3.7465 H   0  0  0  0  0  0  0  0  0  0  0  0
   10.7182   10.1605   -6.0161 H   0  0  0  0  0  0  0  0  0  0  0  0
    9.4681    9.3528   -8.2369 H   0  0  0  0  0  0  0  0  0  0  0  0
   11.2065    9.1075   -8.3223 H   0  0  0  0  0  0  0  0  0  0  0  0
   10.9655    7.1314   -9.7111 H   0  0  0  0  0  0  0  0  0  0  0  0
    9.9792    8.3826  -10.4377 H   0  0  0  0  0  0  0  0  0  0  0  0
    5.9853    0.7283  -13.8466 H   0  0  0  0  0  0  0  0  0  0  0  0
    4.9031   -0.8440  -15.3788 H   0  0  0  0  0  0  0  0  0  0  0  0
    4.5447   -2.6110  -16.5862 H   0  0  0  0  0  0  0  0  0  0  0  0
    3.4552   -3.9062  -18.5630 H   0  0  0  0  0  0  0  0  0  0  0  0
    5.9033   -0.3490  -20.0407 H   0  0  0  0  0  0  0  0  0  0  0  0
    7.5199    0.4674  -18.5664 H   0  0  0  0  0  0  0  0  0  0  0  0
    8.5810    2.0687  -17.0252 H   0  0  0  0  0  0  0  0  0  0  0  0
    8.0321    7.3692   -9.5828 H   0  0  0  0  0  0  0  0  0  0  0  0
  2  1  2  0
  3  2  1  0
  4  3  1  0
  5  4  1  0
  6  5  1  0
  7  6  1  0
  8  7  1  0
  9  8  1  0
 10  9  1  0
 11 10  1  0
 12 11  1  0
 13 12  1  0
 14 13  2  0
 15 14  1  0
 16 15  1  0
 17 15  2  0
 18 12  2  0
 18 17  1  0
 19 11  1  0
 20  8  1  0
 20 19  1  0
 21  2  1  0
 22 21  1  0
 23 22  2  0
 24 23  1  0
 25 24  1  0
 26 25  1  0
 27 26  2  0
 28 27  1  0
 29 25  2  0
 29 28  1  0
 30 24  2  0
 31 21  2  0
 31 30  1  0
 32  3  1  0
 33  4  1  0
 34  4  1  0
 35  5  1  0
 36  5  1  0
 37  6  1  0
 38  6  1  0
 39  7  1  0
 40  7  1  0
 41  9  1  0
 42  9  1  0
 43 10  1  0
 44 10  1  0
 45 13  1  0
 46 14  1  0
 47 17  1  0
 48 18  1  0
 49 19  1  0
 50 19  1  0
 51 20  1  0
 52 20  1  0
 53 22  1  0
 54 23  1  0
 55 26  1  0
 56 27  1  0
 57 29  1  0
 58 30  1  0
 59 31  1  0
 60  8  1  0
M  CHG  1   8   1
M  END
>  <b_m_subgroup_collapsed>  (678) 
0

>  <r_i_docking_score>  (678) 
-7.5511684799480498

>  <s_m_subgroup_title>  (678) 
glide-dock_SP_D22_pv

>  <s_m_subgroupid>  (678) 
glide-dock_SP_D22_pv

>  <Molecule ChEMBL ID>  (678) 
CHEMBL4442321

>  <Standard Type>  (678) 
Ki

>  <Standard Value>  (678) 
27359.0

>  <label>  (678) 
0

$$$$
CHEMBL52096
     RDKit          3D

 54 57  0  0  1  0  0  0  0  0999 V2000
    8.1509    0.0083  -16.6303 C   0  0  0  0  0  0  0  0  0  0  0  0
    7.3383    0.6090  -15.4935 C   0  0  0  0  0  0  0  0  0  0  0  0
    6.2624   -0.0202  -14.9856 C   0  0  0  0  0  0  0  0  0  0  0  0
    5.4272    0.5725  -13.9169 C   0  0  0  0  0  0  0  0  0  0  0  0
    4.4590   -0.0202  -13.4477 O   0  0  0  0  0  0  0  0  0  0  0  0
    5.7706    1.8437  -13.5151 O   0  0  0  0  0  0  0  0  0  0  0  0
    6.8875    2.5073  -13.9878 C   0  0  0  0  0  0  0  0  0  0  0  0
    7.2193    3.7669  -13.4382 C   0  0  0  0  0  0  0  0  0  0  0  0
    8.4337    4.4079  -13.7894 C   0  0  0  0  0  0  0  0  0  0  0  0
    8.8890    5.5900  -13.2480 O   0  0  0  0  0  0  0  0  0  0  0  0
    8.3385    6.0685  -12.0257 C   0  0  0  0  0  0  0  0  0  0  0  0
    9.5020    6.5202  -11.1352 C   0  0  0  0  0  0  0  0  0  0  0  0
    8.9899    7.2399   -9.8815 C   0  0  0  0  0  0  0  0  0  0  0  0
   10.0503    7.6405   -8.9622 N   0  0  0  0  0  0  0  0  0  0  0  0
    9.4733    8.6212   -8.0342 C   0  0  0  0  0  0  0  0  0  0  0  0
   10.5364    9.1044   -7.0312 C   0  0  0  0  0  0  0  0  0  0  0  0
   11.0751    7.9625   -6.3074 N   0  0  0  0  0  0  0  0  0  0  0  0
   11.4921    8.0612   -4.9663 C   0  0  0  0  0  0  0  0  0  0  0  0
   11.6860    6.8932   -4.1919 C   0  0  0  0  0  0  0  0  0  0  0  0
   12.0853    6.9720   -2.8449 C   0  0  0  0  0  0  0  0  0  0  0  0
   12.2860    8.2266   -2.2458 C   0  0  0  0  0  0  0  0  0  0  0  0
   12.0861    9.3956   -2.9995 C   0  0  0  0  0  0  0  0  0  0  0  0
   11.7014    9.3170   -4.3490 C   0  0  0  0  0  0  0  0  0  0  0  0
   11.6044    6.9326   -7.1928 C   0  0  0  0  0  0  0  0  0  0  0  0
   10.5011    6.4885   -8.1708 C   0  0  0  0  0  0  0  0  0  0  0  0
    9.2634    3.8097  -14.7559 C   0  0  0  0  0  0  0  0  0  0  0  0
    8.9162    2.5812  -15.3451 C   0  0  0  0  0  0  0  0  0  0  0  0
    7.7320    1.9185  -14.9567 C   0  0  0  0  0  0  0  0  0  0  0  0
    7.7119   -0.9269  -16.9808 H   0  0  0  0  0  0  0  0  0  0  0  0
    8.1830    0.6907  -17.4799 H   0  0  0  0  0  0  0  0  0  0  0  0
    9.1713   -0.2004  -16.3077 H   0  0  0  0  0  0  0  0  0  0  0  0
    5.9660   -0.9865  -15.3697 H   0  0  0  0  0  0  0  0  0  0  0  0
    6.5410    4.1955  -12.7166 H   0  0  0  0  0  0  0  0  0  0  0  0
    7.7734    5.3271  -11.4629 H   0  0  0  0  0  0  0  0  0  0  0  0
    7.6689    6.9016  -12.2456 H   0  0  0  0  0  0  0  0  0  0  0  0
   10.1639    7.1856  -11.6895 H   0  0  0  0  0  0  0  0  0  0  0  0
   10.0859    5.6421  -10.8686 H   0  0  0  0  0  0  0  0  0  0  0  0
    8.2448    6.6302   -9.3632 H   0  0  0  0  0  0  0  0  0  0  0  0
    8.4861    8.1419  -10.2282 H   0  0  0  0  0  0  0  0  0  0  0  0
    8.6245    8.1862   -7.5013 H   0  0  0  0  0  0  0  0  0  0  0  0
    9.0869    9.4735   -8.5945 H   0  0  0  0  0  0  0  0  0  0  0  0
   10.0860    9.8153   -6.3454 H   0  0  0  0  0  0  0  0  0  0  0  0
   11.3441    9.6237   -7.5486 H   0  0  0  0  0  0  0  0  0  0  0  0
   11.5018    5.9168   -4.6112 H   0  0  0  0  0  0  0  0  0  0  0  0
   12.2225    6.0680   -2.2694 H   0  0  0  0  0  0  0  0  0  0  0  0
   12.5848    8.2980   -1.2107 H   0  0  0  0  0  0  0  0  0  0  0  0
   12.2299   10.3627   -2.5421 H   0  0  0  0  0  0  0  0  0  0  0  0
   11.5768   10.2381   -4.8957 H   0  0  0  0  0  0  0  0  0  0  0  0
   12.4438    7.3635   -7.7455 H   0  0  0  0  0  0  0  0  0  0  0  0
   11.9905    6.0687   -6.6542 H   0  0  0  0  0  0  0  0  0  0  0  0
    9.6662    6.0494   -7.6196 H   0  0  0  0  0  0  0  0  0  0  0  0
   10.8856    5.7104   -8.8263 H   0  0  0  0  0  0  0  0  0  0  0  0
   10.1834    4.2962  -15.0416 H   0  0  0  0  0  0  0  0  0  0  0  0
    9.5833    2.1500  -16.0756 H   0  0  0  0  0  0  0  0  0  0  0  0
  2  1  1  0
  3  2  2  0
  4  3  1  0
  5  4  2  0
  6  4  1  0
  7  6  1  0
  8  7  2  0
  9  8  1  0
 10  9  1  0
 11 10  1  0
 12 11  1  0
 13 12  1  0
 14 13  1  0
 15 14  1  0
 16 15  1  0
 17 16  1  0
 18 17  1  0
 19 18  2  0
 20 19  1  0
 21 20  2  0
 22 21  1  0
 23 18  1  0
 23 22  2  0
 24 17  1  0
 25 14  1  0
 25 24  1  0
 26  9  2  0
 27 26  1  0
 28  2  1  0
 28  7  1  0
 28 27  2  0
 29  1  1  0
 30  1  1  0
 31  1  1  0
 32  3  1  0
 33  8  1  0
 34 11  1  0
 35 11  1  0
 36 12  1  0
 37 12  1  0
 38 13  1  0
 39 13  1  0
 40 15  1  0
 41 15  1  0
 42 16  1  0
 43 16  1  0
 44 19  1  0
 45 20  1  0
 46 21  1  0
 47 22  1  0
 48 23  1  0
 49 24  1  0
 50 24  1  0
 51 25  1  0
 52 25  1  0
 53 26  1  0
 54 27  1  0
M  END
>  <b_m_subgroup_collapsed>  (679) 
0

>  <r_i_docking_score>  (679) 
-7.5502007700078204

>  <s_m_subgroup_title>  (679) 
glide-dock_SP_D22_pv

>  <s_m_subgroupid>  (679) 
glide-dock_SP_D22_pv

>  <Molecule ChEMBL ID>  (679) 
CHEMBL52096

>  <Standard Type>  (679) 
Ki

>  <Standard Value>  (679) 
10.8

>  <label>  (679) 
1

$$$$
CHEMBL305392
     RDKit          3D

 43 46  0  0  1  0  0  0  0  0999 V2000
   13.6126    5.1411  -16.9109 N   0  0  0  0  0  0  0  0  0  0  0  0
   12.8717    5.0811  -16.0239 C   0  0  0  0  0  0  0  0  0  0  0  0
   11.9406    5.0080  -14.9093 C   0  0  0  0  0  0  0  0  0  0  0  0
   11.2784    3.7991  -14.6138 C   0  0  0  0  0  0  0  0  0  0  0  0
   10.3721    3.7396  -13.5377 C   0  0  0  0  0  0  0  0  0  0  0  0
   10.1258    4.8843  -12.7513 C   0  0  0  0  0  0  0  0  0  0  0  0
   10.7878    6.0978  -13.0450 C   0  0  0  0  0  0  0  0  0  0  0  0
   11.6947    6.1526  -14.1244 C   0  0  0  0  0  0  0  0  0  0  0  0
   10.5292    7.3553  -12.2179 C   0  0  2  0  0  0  0  0  0  0  0  0
   11.6549    7.6636  -11.2253 C   0  0  0  0  0  0  0  0  0  0  0  0
   11.0861    7.6340   -9.8624 N   0  0  1  0  0  0  0  0  0  0  0  0
   11.7799    8.5723   -8.9472 C   0  0  0  0  0  0  0  0  0  0  0  0
   11.4866    8.3915   -7.4664 C   0  0  0  0  0  0  0  0  0  0  0  0
   11.5325    9.5224   -6.6222 C   0  0  0  0  0  0  0  0  0  0  0  0
   11.4456    9.3788   -5.2257 C   0  0  0  0  0  0  0  0  0  0  0  0
   11.3051    8.0987   -4.6631 C   0  0  0  0  0  0  0  0  0  0  0  0
   11.1949    6.9722   -5.4986 C   0  0  0  0  0  0  0  0  0  0  0  0
   11.2861    7.1133   -6.8979 C   0  0  0  0  0  0  0  0  0  0  0  0
    9.6253    7.8154   -9.9735 C   0  0  0  0  0  0  0  0  0  0  0  0
    9.2252    7.3864  -11.3966 C   0  0  2  0  0  0  0  0  0  0  0  0
    8.3664    6.1069  -11.4675 C   0  0  0  0  0  0  0  0  0  0  0  0
    9.1739    4.8161  -11.5787 C   0  0  0  0  0  0  0  0  0  0  0  0
   11.4608    2.9153  -15.2103 H   0  0  0  0  0  0  0  0  0  0  0  0
    9.8742    2.8063  -13.3111 H   0  0  0  0  0  0  0  0  0  0  0  0
   12.2030    7.0790  -14.3521 H   0  0  0  0  0  0  0  0  0  0  0  0
   10.4861    8.1720  -12.9331 H   0  0  0  0  0  0  0  0  0  0  0  0
   12.4849    6.9727  -11.3095 H   0  0  0  0  0  0  0  0  0  0  0  0
   12.0757    8.6445  -11.4403 H   0  0  0  0  0  0  0  0  0  0  0  0
   12.8586    8.4526   -9.0662 H   0  0  0  0  0  0  0  0  0  0  0  0
   11.5527    9.5960   -9.2490 H   0  0  0  0  0  0  0  0  0  0  0  0
   11.6857   10.5072   -7.0355 H   0  0  0  0  0  0  0  0  0  0  0  0
   11.5146   10.2454   -4.5849 H   0  0  0  0  0  0  0  0  0  0  0  0
   11.2860    7.9821   -3.5891 H   0  0  0  0  0  0  0  0  0  0  0  0
   11.0752    5.9923   -5.0602 H   0  0  0  0  0  0  0  0  0  0  0  0
   11.2530    6.2250   -7.5112 H   0  0  0  0  0  0  0  0  0  0  0  0
    9.0982    7.2626   -9.1944 H   0  0  0  0  0  0  0  0  0  0  0  0
    9.3744    8.8690   -9.8383 H   0  0  0  0  0  0  0  0  0  0  0  0
    8.5898    8.1834  -11.7908 H   0  0  0  0  0  0  0  0  0  0  0  0
    7.6853    6.0473  -10.6180 H   0  0  0  0  0  0  0  0  0  0  0  0
    7.7239    6.1755  -12.3459 H   0  0  0  0  0  0  0  0  0  0  0  0
    8.4966    3.9691  -11.6960 H   0  0  0  0  0  0  0  0  0  0  0  0
    9.7408    4.6436  -10.6639 H   0  0  0  0  0  0  0  0  0  0  0  0
   11.2257    6.6960   -9.5161 H   0  0  0  0  0  0  0  0  0  0  0  0
  2  1  3  0
  3  2  1  0
  4  3  1  0
  5  4  2  0
  6  5  1  0
  7  6  2  0
  8  3  2  0
  8  7  1  0
  9  7  1  0
 10  9  1  0
 11 10  1  0
 12 11  1  0
 13 12  1  0
 14 13  2  0
 15 14  1  0
 16 15  2  0
 17 16  1  0
 18 13  1  0
 18 17  2  0
 19 11  1  0
 20  9  1  0
 20 19  1  0
 21 20  1  0
 22  6  1  0
 22 21  1  0
 23  4  1  0
 24  5  1  0
 25  8  1  0
  9 26  1  6
 27 10  1  0
 28 10  1  0
 29 12  1  0
 30 12  1  0
 31 14  1  0
 32 15  1  0
 33 16  1  0
 34 17  1  0
 35 18  1  0
 36 19  1  0
 37 19  1  0
 20 38  1  6
 39 21  1  0
 40 21  1  0
 41 22  1  0
 42 22  1  0
 11 43  1  1
M  CHG  1  11   1
M  END
>  <b_m_subgroup_collapsed>  (680) 
0

>  <r_i_docking_score>  (680) 
-7.5471322469956004

>  <s_m_subgroup_title>  (680) 
glide-dock_SP_D22_pv

>  <s_m_subgroupid>  (680) 
glide-dock_SP_D22_pv

>  <Molecule ChEMBL ID>  (680) 
CHEMBL305392

>  <Standard Type>  (680) 
Ki

>  <Standard Value>  (680) 
10.0

>  <label>  (680) 
1

$$$$
CHEMBL541817
     RDKit          3D

 33 35  0  0  1  0  0  0  0  0999 V2000
    8.8260    8.5694   -6.6601 O   0  0  0  0  0  0  0  0  0  0  0  0
    9.6911    7.7723   -6.9962 C   0  0  0  0  0  0  0  0  0  0  0  0
   10.8964    7.4574   -6.2729 C   0  0  0  0  0  0  0  0  0  0  0  0
   11.2867    7.8914   -4.9301 C   0  0  0  0  0  0  0  0  0  0  0  0
   11.2868    9.2622   -4.5991 C   0  0  0  0  0  0  0  0  0  0  0  0
   11.6866    9.6666   -3.3118 C   0  0  0  0  0  0  0  0  0  0  0  0
   12.0880    8.7112   -2.3588 C   0  0  0  0  0  0  0  0  0  0  0  0
   12.0875    7.3437   -2.6892 C   0  0  0  0  0  0  0  0  0  0  0  0
   11.6939    6.9359   -3.9769 C   0  0  0  0  0  0  0  0  0  0  0  0
   11.5215    6.5723   -7.0465 C   0  0  0  0  0  0  0  0  0  0  0  0
   10.9333    6.3070   -8.2511 O   0  0  0  0  0  0  0  0  0  0  0  0
    9.6979    6.9814   -8.3011 C   0  0  0  0  0  0  0  0  0  0  0  0
    8.6803    5.8272   -8.3640 C   0  0  0  0  0  0  0  0  0  0  0  0
    8.6715    5.1628   -9.7518 C   0  0  0  0  0  0  0  0  0  0  0  0
    8.4842    6.1724  -10.8158 N   0  0  0  0  0  0  0  0  0  0  0  0
    9.5798    7.1620  -10.8475 C   0  0  0  0  0  0  0  0  0  0  0  0
    9.6373    7.9290   -9.5196 C   0  0  0  0  0  0  0  0  0  0  0  0
   10.9800   10.0025   -5.3234 H   0  0  0  0  0  0  0  0  0  0  0  0
   11.6860   10.7119   -3.0457 H   0  0  0  0  0  0  0  0  0  0  0  0
   12.3890    9.0324   -1.3721 H   0  0  0  0  0  0  0  0  0  0  0  0
   12.3890    6.6053   -1.9604 H   0  0  0  0  0  0  0  0  0  0  0  0
   11.6936    5.8836   -4.2254 H   0  0  0  0  0  0  0  0  0  0  0  0
   12.4396    6.0365   -6.8570 H   0  0  0  0  0  0  0  0  0  0  0  0
    8.9174    5.0783   -7.6096 H   0  0  0  0  0  0  0  0  0  0  0  0
    7.6862    6.1722   -8.1144 H   0  0  0  0  0  0  0  0  0  0  0  0
    9.6050    4.6239   -9.9219 H   0  0  0  0  0  0  0  0  0  0  0  0
    7.8715    4.4258   -9.8171 H   0  0  0  0  0  0  0  0  0  0  0  0
    8.4118    5.7107  -11.7103 H   0  0  0  0  0  0  0  0  0  0  0  0
   10.5262    6.6553  -11.0377 H   0  0  0  0  0  0  0  0  0  0  0  0
    9.4118    7.8531  -11.6738 H   0  0  0  0  0  0  0  0  0  0  0  0
    8.7531    8.5653   -9.4426 H   0  0  0  0  0  0  0  0  0  0  0  0
   10.4946    8.6047   -9.5189 H   0  0  0  0  0  0  0  0  0  0  0  0
    7.6127    6.6855  -10.6398 H   0  0  0  0  0  0  0  0  0  0  0  0
  2  1  2  0
  3  2  1  0
  4  3  1  0
  5  4  2  0
  6  5  1  0
  7  6  2  0
  8  7  1  0
  9  4  1  0
  9  8  2  0
 10  3  2  0
 11 10  1  0
 12  2  1  0
 12 11  1  0
 13 12  1  0
 14 13  1  0
 15 14  1  0
 16 15  1  0
 17 12  1  0
 17 16  1  0
 18  5  1  0
 19  6  1  0
 20  7  1  0
 21  8  1  0
 22  9  1  0
 23 10  1  0
 24 13  1  0
 25 13  1  0
 26 14  1  0
 27 14  1  0
 28 15  1  0
 29 16  1  0
 30 16  1  0
 31 17  1  0
 32 17  1  0
 33 15  1  0
M  CHG  1  15   1
M  END
>  <b_m_subgroup_collapsed>  (681) 
0

>  <r_i_docking_score>  (681) 
-7.5412555283272003

>  <s_m_subgroup_title>  (681) 
glide-dock_SP_D22_pv

>  <s_m_subgroupid>  (681) 
glide-dock_SP_D22_pv

>  <Molecule ChEMBL ID>  (681) 
CHEMBL541817

>  <Standard Type>  (681) 
Ki

>  <Standard Value>  (681) 
10000.0

>  <label>  (681) 
0

$$$$
CHEMBL5199228
     RDKit          3D

 58 61  0  0  1  0  0  0  0  0999 V2000
   11.2232   10.5763   -5.8007 O   0  0  0  0  0  0  0  0  0  0  0  0
   11.3080    9.3850   -5.5174 C   0  0  0  0  0  0  0  0  0  0  0  0
   11.0471    8.3277   -6.3008 N   0  0  0  0  0  0  0  0  0  0  0  0
   10.6623    8.3585   -7.7116 C   0  0  0  0  0  0  0  0  0  0  0  0
    9.6742    7.2343   -8.0970 C   0  0  0  0  0  0  0  0  0  0  0  0
    9.2921    7.2597   -9.5814 C   0  0  0  0  0  0  0  0  0  0  0  0
   10.3781    6.7098  -10.5196 C   0  0  0  0  0  0  0  0  0  0  0  0
   10.2312    7.2509  -11.9486 C   0  0  0  0  0  0  0  0  0  0  0  0
   11.1863    6.6105  -12.9826 C   0  0  0  0  0  0  0  0  0  0  0  0
   10.7856    5.2493  -13.4398 N   0  0  0  0  0  0  0  0  0  0  0  0
   11.8600    4.6132  -14.2544 C   0  0  0  0  0  0  0  0  0  0  0  0
   11.5001    3.1789  -14.6897 C   0  0  0  0  0  0  0  0  0  0  0  0
   10.1472    3.1299  -15.2217 N   0  0  0  0  0  0  0  0  0  0  0  0
    9.9133    2.5997  -16.4986 C   0  0  0  0  0  0  0  0  0  0  0  0
    9.5132    3.4461  -17.5530 C   0  0  0  0  0  0  0  0  0  0  0  0
    9.2956    2.9211  -18.8431 C   0  0  0  0  0  0  0  0  0  0  0  0
    9.4739    1.5445  -19.0812 C   0  0  0  0  0  0  0  0  0  0  0  0
    9.8625    0.6893  -18.0313 C   0  0  0  0  0  0  0  0  0  0  0  0
   10.0735   -0.9996  -18.3422 Cl  0  0  0  0  0  0  0  0  0  0  0  0
   10.0705    1.2166  -16.7391 C   0  0  0  0  0  0  0  0  0  0  0  0
   10.4855    0.1672  -15.4365 Cl  0  0  0  0  0  0  0  0  0  0  0  0
    9.0733    3.7549  -14.4782 C   0  0  0  0  0  0  0  0  0  0  0  0
    9.4640    5.1969  -14.1283 C   0  0  0  0  0  0  0  0  0  0  0  0
   11.2858    7.1322   -5.6975 N   0  0  0  0  0  0  0  0  0  0  0  0
   11.6841    7.4728   -4.5228 C   0  0  0  0  0  0  0  0  0  0  0  0
   12.0867    6.6996   -3.3744 C   0  0  0  0  0  0  0  0  0  0  0  0
   12.4860    7.3203   -2.2471 C   0  0  0  0  0  0  0  0  0  0  0  0
   12.4857    8.7692   -2.1302 C   0  0  0  0  0  0  0  0  0  0  0  0
   12.0853    9.4949   -3.1889 C   0  0  0  0  0  0  0  0  0  0  0  0
   11.6988    8.8467   -4.3682 N   0  0  0  0  0  0  0  0  0  0  0  0
   11.5738    8.2917   -8.3045 H   0  0  0  0  0  0  0  0  0  0  0  0
   10.2122    9.3242   -7.9463 H   0  0  0  0  0  0  0  0  0  0  0  0
    8.7677    7.3474   -7.5007 H   0  0  0  0  0  0  0  0  0  0  0  0
   10.0773    6.2527   -7.8527 H   0  0  0  0  0  0  0  0  0  0  0  0
    9.0048    8.2746   -9.8608 H   0  0  0  0  0  0  0  0  0  0  0  0
    8.4009    6.6475   -9.7181 H   0  0  0  0  0  0  0  0  0  0  0  0
   10.3128    5.6218  -10.5098 H   0  0  0  0  0  0  0  0  0  0  0  0
   11.3712    6.9693  -10.1512 H   0  0  0  0  0  0  0  0  0  0  0  0
   10.4551    8.3156  -11.8871 H   0  0  0  0  0  0  0  0  0  0  0  0
    9.1887    7.2079  -12.2644 H   0  0  0  0  0  0  0  0  0  0  0  0
   12.1892    6.5723  -12.5498 H   0  0  0  0  0  0  0  0  0  0  0  0
   11.2862    7.2614  -13.8518 H   0  0  0  0  0  0  0  0  0  0  0  0
   12.7978    4.5994  -13.6962 H   0  0  0  0  0  0  0  0  0  0  0  0
   12.0338    5.2219  -15.1415 H   0  0  0  0  0  0  0  0  0  0  0  0
   11.5605    2.4911  -13.8464 H   0  0  0  0  0  0  0  0  0  0  0  0
   12.2137    2.8248  -15.4357 H   0  0  0  0  0  0  0  0  0  0  0  0
    9.3839    4.5054  -17.3832 H   0  0  0  0  0  0  0  0  0  0  0  0
    8.9972    3.5748  -19.6501 H   0  0  0  0  0  0  0  0  0  0  0  0
    9.3121    1.1435  -20.0712 H   0  0  0  0  0  0  0  0  0  0  0  0
    8.1427    3.7296  -15.0457 H   0  0  0  0  0  0  0  0  0  0  0  0
    8.8988    3.1769  -13.5683 H   0  0  0  0  0  0  0  0  0  0  0  0
    8.6676    5.6213  -13.5209 H   0  0  0  0  0  0  0  0  0  0  0  0
    9.5164    5.7722  -15.0479 H   0  0  0  0  0  0  0  0  0  0  0  0
   12.1317    5.6268   -3.4037 H   0  0  0  0  0  0  0  0  0  0  0  0
   12.8450    6.7065   -1.4456 H   0  0  0  0  0  0  0  0  0  0  0  0
   12.7721    9.2559   -1.2097 H   0  0  0  0  0  0  0  0  0  0  0  0
   12.0124   10.5711   -3.1926 H   0  0  0  0  0  0  0  0  0  0  0  0
   10.6846    4.6797  -12.6120 H   0  0  0  0  0  0  0  0  0  0  0  0
  2  1  2  0
  3  2  1  0
  4  3  1  0
  5  4  1  0
  6  5  1  0
  7  6  1  0
  8  7  1  0
  9  8  1  0
 10  9  1  0
 11 10  1  0
 12 11  1  0
 13 12  1  0
 14 13  1  0
 15 14  2  0
 16 15  1  0
 17 16  2  0
 18 17  1  0
 19 18  1  0
 20 14  1  0
 20 18  2  0
 21 20  1  0
 22 13  1  0
 23 10  1  0
 23 22  1  0
 24  3  1  0
 25 24  2  0
 26 25  1  0
 27 26  2  0
 28 27  1  0
 29 28  2  0
 30  2  1  0
 30 25  1  0
 30 29  1  0
 31  4  1  0
 32  4  1  0
 33  5  1  0
 34  5  1  0
 35  6  1  0
 36  6  1  0
 37  7  1  0
 38  7  1  0
 39  8  1  0
 40  8  1  0
 41  9  1  0
 42  9  1  0
 43 11  1  0
 44 11  1  0
 45 12  1  0
 46 12  1  0
 47 15  1  0
 48 16  1  0
 49 17  1  0
 50 22  1  0
 51 22  1  0
 52 23  1  0
 53 23  1  0
 54 26  1  0
 55 27  1  0
 56 28  1  0
 57 29  1  0
 58 10  1  0
M  CHG  1  10   1
M  END
>  <b_m_subgroup_collapsed>  (682) 
0

>  <r_i_docking_score>  (682) 
-7.53929512069507

>  <s_m_subgroup_title>  (682) 
glide-dock_SP_D22_pv

>  <s_m_subgroupid>  (682) 
glide-dock_SP_D22_pv

>  <Molecule ChEMBL ID>  (682) 
CHEMBL5199228

>  <Standard Type>  (682) 
Ki

>  <Standard Value>  (682) 
9.0

>  <label>  (682) 
1

$$$$
CHEMBL4878587
     RDKit          3D

 61 64  0  0  1  0  0  0  0  0999 V2000
   11.3097    6.6357   -4.3458 C   0  0  0  0  0  0  0  0  0  0  0  0
   11.1259    7.8571   -5.0458 O   0  0  0  0  0  0  0  0  0  0  0  0
   10.6293    7.8015   -6.3276 C   0  0  0  0  0  0  0  0  0  0  0  0
    9.9967    6.6514   -6.8525 C   0  0  0  0  0  0  0  0  0  0  0  0
    9.5042    6.6287   -8.1675 C   0  0  0  0  0  0  0  0  0  0  0  0
    9.6843    7.7428   -9.0078 C   0  0  0  0  0  0  0  0  0  0  0  0
   10.2686    8.9079   -8.4772 C   0  0  0  0  0  0  0  0  0  0  0  0
   10.7165    8.9575   -7.1405 C   0  0  0  0  0  0  0  0  0  0  0  0
   11.1815   10.1624   -6.6700 O   0  0  0  0  0  0  0  0  0  0  0  0
   12.4315   10.1591   -6.0168 C   0  0  0  0  0  0  0  0  0  0  0  0
    9.2870    7.6996  -10.4808 C   0  0  0  0  0  0  0  0  0  0  0  0
    8.4863    6.5118  -10.8955 N   0  0  1  0  0  0  0  0  0  0  0  0
    8.4804    6.3649  -12.3740 C   0  0  0  0  0  0  0  0  0  0  0  0
    7.6951    5.1634  -12.8877 C   0  0  0  0  0  0  0  0  0  0  0  0
    6.2843    5.2455  -12.9048 C   0  0  0  0  0  0  0  0  0  0  0  0
    5.5077    4.1769  -13.3890 C   0  0  0  0  0  0  0  0  0  0  0  0
    6.1326    3.0087  -13.8463 C   0  0  0  0  0  0  0  0  0  0  0  0
    7.5312    2.9234  -13.8496 C   0  0  0  0  0  0  0  0  0  0  0  0
    8.3270    3.9731  -13.3484 C   0  0  0  0  0  0  0  0  0  0  0  0
    9.8273    3.7128  -13.2582 C   0  0  0  0  0  0  0  0  0  0  0  0
   10.6696    4.4691  -14.1726 N   0  0  0  0  0  0  0  0  0  0  0  0
   10.7267    4.2826  -15.4993 C   0  0  0  0  0  0  0  0  0  0  0  0
    9.9122    3.6150  -16.1355 O   0  0  0  0  0  0  0  0  0  0  0  0
   11.9708    4.8202  -16.1418 C   0  0  0  0  0  0  0  0  0  0  0  0
   12.5830    4.1006  -17.1909 C   0  0  0  0  0  0  0  0  0  0  0  0
   13.7969    4.5463  -17.7473 C   0  0  0  0  0  0  0  0  0  0  0  0
   14.4073    5.7192  -17.2596 C   0  0  0  0  0  0  0  0  0  0  0  0
   15.6975    6.1358  -17.7811 C   0  0  0  0  0  0  0  0  0  0  0  0
   16.7289    6.4603  -18.1931 N   0  0  0  0  0  0  0  0  0  0  0  0
   13.7757    6.4676  -16.2467 C   0  0  0  0  0  0  0  0  0  0  0  0
   12.5595    6.0257  -15.6948 C   0  0  0  0  0  0  0  0  0  0  0  0
    8.8704    5.2702  -10.1732 C   0  0  0  0  0  0  0  0  0  0  0  0
    8.7354    5.4293   -8.6627 C   0  0  0  0  0  0  0  0  0  0  0  0
   11.8314    6.8278   -3.4087 H   0  0  0  0  0  0  0  0  0  0  0  0
   10.3575    6.1723   -4.0971 H   0  0  0  0  0  0  0  0  0  0  0  0
   11.9185    5.9344   -4.9167 H   0  0  0  0  0  0  0  0  0  0  0  0
    9.8575    5.7726   -6.2475 H   0  0  0  0  0  0  0  0  0  0  0  0
   10.3855    9.7727   -9.1102 H   0  0  0  0  0  0  0  0  0  0  0  0
   12.8863   11.1206   -6.2377 H   0  0  0  0  0  0  0  0  0  0  0  0
   12.3212   10.0735   -4.9363 H   0  0  0  0  0  0  0  0  0  0  0  0
   13.0954    9.3738   -6.3838 H   0  0  0  0  0  0  0  0  0  0  0  0
   10.2170    7.7287  -11.0504 H   0  0  0  0  0  0  0  0  0  0  0  0
    8.7347    8.6043  -10.7346 H   0  0  0  0  0  0  0  0  0  0  0  0
    9.5053    6.3257  -12.7377 H   0  0  0  0  0  0  0  0  0  0  0  0
    8.0424    7.2657  -12.8077 H   0  0  0  0  0  0  0  0  0  0  0  0
    5.7890    6.1419  -12.5557 H   0  0  0  0  0  0  0  0  0  0  0  0
    4.4323    4.2480  -13.4358 H   0  0  0  0  0  0  0  0  0  0  0  0
    5.5469    2.1790  -14.2101 H   0  0  0  0  0  0  0  0  0  0  0  0
    7.9941    2.0149  -14.2081 H   0  0  0  0  0  0  0  0  0  0  0  0
   10.1666    3.9037  -12.2440 H   0  0  0  0  0  0  0  0  0  0  0  0
   10.0257    2.6508  -13.4153 H   0  0  0  0  0  0  0  0  0  0  0  0
   11.4199    5.0026  -13.7616 H   0  0  0  0  0  0  0  0  0  0  0  0
   12.1440    3.1802  -17.5527 H   0  0  0  0  0  0  0  0  0  0  0  0
   14.2678    3.9678  -18.5272 H   0  0  0  0  0  0  0  0  0  0  0  0
   14.2286    7.3717  -15.8709 H   0  0  0  0  0  0  0  0  0  0  0  0
   12.1040    6.6107  -14.9070 H   0  0  0  0  0  0  0  0  0  0  0  0
    8.2510    4.4278  -10.4769 H   0  0  0  0  0  0  0  0  0  0  0  0
    9.9067    5.0291  -10.4088 H   0  0  0  0  0  0  0  0  0  0  0  0
    9.0848    4.5242   -8.1659 H   0  0  0  0  0  0  0  0  0  0  0  0
    7.6895    5.5614   -8.3836 H   0  0  0  0  0  0  0  0  0  0  0  0
    7.5299    6.7627  -10.6167 H   0  0  0  0  0  0  0  0  0  0  0  0
  2  1  1  0
  3  2  1  0
  4  3  2  0
  5  4  1  0
  6  5  2  0
  7  6  1  0
  8  3  1  0
  8  7  2  0
  9  8  1  0
 10  9  1  0
 11  6  1  0
 12 11  1  0
 13 12  1  0
 14 13  1  0
 15 14  2  0
 16 15  1  0
 17 16  2  0
 18 17  1  0
 19 14  1  0
 19 18  2  0
 20 19  1  0
 21 20  1  0
 22 21  1  0
 23 22  2  0
 24 22  1  0
 25 24  1  0
 26 25  2  0
 27 26  1  0
 28 27  1  0
 29 28  3  0
 30 27  2  0
 31 24  2  0
 31 30  1  0
 32 12  1  0
 33  5  1  0
 33 32  1  0
 34  1  1  0
 35  1  1  0
 36  1  1  0
 37  4  1  0
 38  7  1  0
 39 10  1  0
 40 10  1  0
 41 10  1  0
 42 11  1  0
 43 11  1  0
 44 13  1  0
 45 13  1  0
 46 15  1  0
 47 16  1  0
 48 17  1  0
 49 18  1  0
 50 20  1  0
 51 20  1  0
 52 21  1  0
 53 25  1  0
 54 26  1  0
 55 30  1  0
 56 31  1  0
 57 32  1  0
 58 32  1  0
 59 33  1  0
 60 33  1  0
 12 61  1  1
M  CHG  1  12   1
M  END
>  <b_m_subgroup_collapsed>  (683) 
0

>  <r_i_docking_score>  (683) 
-7.5391800155062301

>  <s_m_subgroup_title>  (683) 
glide-dock_SP_D22_pv

>  <s_m_subgroupid>  (683) 
glide-dock_SP_D22_pv

>  <Molecule ChEMBL ID>  (683) 
CHEMBL4878587

>  <Standard Type>  (683) 
Ki

>  <Standard Value>  (683) 
50.0

>  <label>  (683) 
1

$$$$
CHEMBL27162
     RDKit          3D

 23 24  0  0  1  0  0  0  0  0999 V2000
   11.7079    9.3007   -3.7769 N   0  0  0  0  0  0  0  0  0  0  0  0
   11.5211    8.9378   -4.8587 C   0  0  0  0  0  0  0  0  0  0  0  0
   11.2843    8.4834   -6.2190 C   0  0  0  0  0  0  0  0  0  0  0  0
   12.0861    8.9726   -7.2641 C   0  0  0  0  0  0  0  0  0  0  0  0
   11.8575    8.5727   -8.5933 C   0  0  0  0  0  0  0  0  0  0  0  0
   10.8068    7.6871   -8.8885 C   0  0  0  0  0  0  0  0  0  0  0  0
   10.0198    7.1582   -7.8372 C   0  0  0  0  0  0  0  0  0  0  0  0
   10.2582    7.5604   -6.5057 C   0  0  0  0  0  0  0  0  0  0  0  0
    8.9254    6.1469   -8.1238 C   0  0  0  0  0  0  0  0  0  0  0  0
    8.4860    6.1713   -9.5343 N   0  0  0  0  0  0  0  0  0  0  0  0
    9.6000    6.1248  -10.4923 C   0  0  0  0  0  0  0  0  0  0  0  0
   10.4833    7.3700  -10.3399 C   0  0  0  0  0  0  0  0  0  0  0  0
   12.8854    9.6678   -7.0474 H   0  0  0  0  0  0  0  0  0  0  0  0
   12.4727    8.9732   -9.3873 H   0  0  0  0  0  0  0  0  0  0  0  0
    9.6484    7.1615   -5.7074 H   0  0  0  0  0  0  0  0  0  0  0  0
    9.2998    5.1521   -7.8778 H   0  0  0  0  0  0  0  0  0  0  0  0
    8.0808    6.3345   -7.4663 H   0  0  0  0  0  0  0  0  0  0  0  0
    7.8772    5.3800   -9.6897 H   0  0  0  0  0  0  0  0  0  0  0  0
   10.1621    5.2125  -10.2987 H   0  0  0  0  0  0  0  0  0  0  0  0
    9.2131    6.0536  -11.5088 H   0  0  0  0  0  0  0  0  0  0  0  0
    9.9711    8.2367  -10.7593 H   0  0  0  0  0  0  0  0  0  0  0  0
   11.4052    7.2458  -10.9083 H   0  0  0  0  0  0  0  0  0  0  0  0
    7.9108    6.9995   -9.7039 H   0  0  0  0  0  0  0  0  0  0  0  0
  2  1  3  0
  3  2  1  0
  4  3  1  0
  5  4  2  0
  6  5  1  0
  7  6  2  0
  8  3  2  0
  8  7  1  0
  9  7  1  0
 10  9  1  0
 11 10  1  0
 12  6  1  0
 12 11  1  0
 13  4  1  0
 14  5  1  0
 15  8  1  0
 16  9  1  0
 17  9  1  0
 18 10  1  0
 19 11  1  0
 20 11  1  0
 21 12  1  0
 22 12  1  0
 23 10  1  0
M  CHG  1  10   1
M  END
>  <b_m_subgroup_collapsed>  (684) 
0

>  <r_i_docking_score>  (684) 
-7.53554934999931

>  <s_m_subgroup_title>  (684) 
glide-dock_SP_D22_pv

>  <s_m_subgroupid>  (684) 
glide-dock_SP_D22_pv

>  <Molecule ChEMBL ID>  (684) 
CHEMBL27162

>  <Standard Type>  (684) 
Ki

>  <Standard Value>  (684) 
11400.0

>  <label>  (684) 
0

$$$$
CHEMBL2037525
     RDKit          3D

 49 52  0  0  1  0  0  0  0  0999 V2000
    5.9630    5.3759  -12.4025 O   0  0  0  0  0  0  0  0  0  0  0  0
    7.1651    5.3150  -12.6468 C   0  0  0  0  0  0  0  0  0  0  0  0
    8.1053    6.4544  -12.2619 C   0  0  0  0  0  0  0  0  0  0  0  0
    8.7866    6.2115  -10.9067 C   0  0  0  0  0  0  0  0  0  0  0  0
    9.3854    7.5102  -10.3399 C   0  0  0  0  0  0  0  0  0  0  0  0
   10.1992    7.3062   -9.1392 N   0  0  0  0  0  0  0  0  0  0  0  0
   10.7299    8.6156   -8.7332 C   0  0  0  0  0  0  0  0  0  0  0  0
   11.6071    8.4936   -7.4701 C   0  0  0  0  0  0  0  0  0  0  0  0
   10.8428    7.8783   -6.3921 N   0  0  0  0  0  0  0  0  0  0  0  0
   11.3085    8.0601   -5.0804 C   0  0  0  0  0  0  0  0  0  0  0  0
   11.3810    9.3666   -4.5496 C   0  0  0  0  0  0  0  0  0  0  0  0
   11.7733    9.5721   -3.2134 C   0  0  0  0  0  0  0  0  0  0  0  0
   12.0990    8.4765   -2.3942 C   0  0  0  0  0  0  0  0  0  0  0  0
   12.0803    7.1733   -2.9245 C   0  0  0  0  0  0  0  0  0  0  0  0
   11.6863    6.9693   -4.2601 C   0  0  0  0  0  0  0  0  0  0  0  0
   10.2564    6.5985   -6.7715 C   0  0  0  0  0  0  0  0  0  0  0  0
    9.3895    6.7770   -8.0308 C   0  0  0  0  0  0  0  0  0  0  0  0
    7.7432    4.1491  -13.3625 C   0  0  0  0  0  0  0  0  0  0  0  0
    9.0341    3.9908  -13.6898 N   0  0  0  0  0  0  0  0  0  0  0  0
    9.2166    2.7776  -14.3449 C   0  0  0  0  0  0  0  0  0  0  0  0
   10.4355    2.2568  -14.8359 C   0  0  0  0  0  0  0  0  0  0  0  0
   10.4847    1.0063  -15.4825 C   0  0  0  0  0  0  0  0  0  0  0  0
    9.3093    0.2511  -15.6527 C   0  0  0  0  0  0  0  0  0  0  0  0
    8.0799    0.7469  -15.1820 C   0  0  0  0  0  0  0  0  0  0  0  0
    8.0357    1.9981  -14.5391 C   0  0  0  0  0  0  0  0  0  0  0  0
    6.6497    2.8449  -13.8514 S   0  0  0  0  0  0  0  0  0  0  0  0
    7.5172    7.3740  -12.2292 H   0  0  0  0  0  0  0  0  0  0  0  0
    8.8521    6.5881  -13.0437 H   0  0  0  0  0  0  0  0  0  0  0  0
    9.5638    5.4531  -11.0162 H   0  0  0  0  0  0  0  0  0  0  0  0
    8.0467    5.8100  -10.2126 H   0  0  0  0  0  0  0  0  0  0  0  0
    8.5892    8.2289  -10.1367 H   0  0  0  0  0  0  0  0  0  0  0  0
   10.0190    7.9596  -11.1074 H   0  0  0  0  0  0  0  0  0  0  0  0
    9.9080    9.3099   -8.5407 H   0  0  0  0  0  0  0  0  0  0  0  0
   11.3238    9.0409   -9.5434 H   0  0  0  0  0  0  0  0  0  0  0  0
   11.9713    9.4787   -7.1802 H   0  0  0  0  0  0  0  0  0  0  0  0
   12.4841    7.8842   -7.6887 H   0  0  0  0  0  0  0  0  0  0  0  0
   11.1002   10.2179   -5.1524 H   0  0  0  0  0  0  0  0  0  0  0  0
   11.8094   10.5718   -2.8053 H   0  0  0  0  0  0  0  0  0  0  0  0
   12.3849    8.6405   -1.3657 H   0  0  0  0  0  0  0  0  0  0  0  0
   12.3461    6.3286   -2.3047 H   0  0  0  0  0  0  0  0  0  0  0  0
   11.6591    5.9582   -4.6387 H   0  0  0  0  0  0  0  0  0  0  0  0
   11.0484    5.8718   -6.9618 H   0  0  0  0  0  0  0  0  0  0  0  0
    9.6421    6.2020   -5.9609 H   0  0  0  0  0  0  0  0  0  0  0  0
    8.5422    7.4351   -7.8220 H   0  0  0  0  0  0  0  0  0  0  0  0
    8.9765    5.8039   -8.2929 H   0  0  0  0  0  0  0  0  0  0  0  0
   11.3428    2.8254  -14.7026 H   0  0  0  0  0  0  0  0  0  0  0  0
   11.4284    0.6249  -15.8460 H   0  0  0  0  0  0  0  0  0  0  0  0
    9.3502   -0.7082  -16.1471 H   0  0  0  0  0  0  0  0  0  0  0  0
    7.1772    0.1678  -15.3112 H   0  0  0  0  0  0  0  0  0  0  0  0
  2  1  2  0
  3  2  1  0
  4  3  1  0
  5  4  1  0
  6  5  1  0
  7  6  1  0
  8  7  1  0
  9  8  1  0
 10  9  1  0
 11 10  2  0
 12 11  1  0
 13 12  2  0
 14 13  1  0
 15 10  1  0
 15 14  2  0
 16  9  1  0
 17  6  1  0
 17 16  1  0
 18  2  1  0
 19 18  2  0
 20 19  1  0
 21 20  2  0
 22 21  1  0
 23 22  2  0
 24 23  1  0
 25 20  1  0
 25 24  2  0
 26 18  1  0
 26 25  1  0
 27  3  1  0
 28  3  1  0
 29  4  1  0
 30  4  1  0
 31  5  1  0
 32  5  1  0
 33  7  1  0
 34  7  1  0
 35  8  1  0
 36  8  1  0
 37 11  1  0
 38 12  1  0
 39 13  1  0
 40 14  1  0
 41 15  1  0
 42 16  1  0
 43 16  1  0
 44 17  1  0
 45 17  1  0
 46 21  1  0
 47 22  1  0
 48 23  1  0
 49 24  1  0
M  END
>  <b_m_subgroup_collapsed>  (685) 
0

>  <r_i_docking_score>  (685) 
-7.5354286598795301

>  <s_m_subgroup_title>  (685) 
glide-dock_SP_D22_pv

>  <s_m_subgroupid>  (685) 
glide-dock_SP_D22_pv

>  <Molecule ChEMBL ID>  (685) 
CHEMBL2037525

>  <Standard Type>  (685) 
Ki

>  <Standard Value>  (685) 
10000.0

>  <label>  (685) 
0

$$$$
CHEMBL458991
     RDKit          3D

 77 80  0  0  1  0  0  0  0  0999 V2000
   13.2908    4.0923  -17.4112 C   0  0  0  0  0  0  0  0  0  0  0  0
   13.4413    2.9819  -18.2823 O   0  0  0  0  0  0  0  0  0  0  0  0
   12.6121    1.8958  -18.0939 C   0  0  0  0  0  0  0  0  0  0  0  0
   12.7379    0.8299  -19.0068 C   0  0  0  0  0  0  0  0  0  0  0  0
   11.9322   -0.3173  -18.8847 C   0  0  0  0  0  0  0  0  0  0  0  0
   10.9861   -0.4113  -17.8484 C   0  0  0  0  0  0  0  0  0  0  0  0
   10.8506    0.6453  -16.9245 C   0  0  0  0  0  0  0  0  0  0  0  0
    9.8090    0.5688  -15.8252 C   0  0  0  0  0  0  0  0  0  0  0  0
    8.4992    1.2264  -16.2749 C   0  0  0  0  0  0  0  0  0  0  0  0
    7.4058    1.1647  -15.2224 C   0  0  0  0  0  0  0  0  0  0  0  0
    6.6001    0.0091  -15.1491 C   0  0  0  0  0  0  0  0  0  0  0  0
    5.5517   -0.0698  -14.2162 C   0  0  0  0  0  0  0  0  0  0  0  0
    5.2940    1.0189  -13.3677 C   0  0  0  0  0  0  0  0  0  0  0  0
    6.0846    2.1802  -13.4472 C   0  0  0  0  0  0  0  0  0  0  0  0
    7.1713    2.2599  -14.3547 C   0  0  0  0  0  0  0  0  0  0  0  0
    8.0221    3.3464  -14.4424 O   0  0  0  0  0  0  0  0  0  0  0  0
    7.7442    4.5301  -13.6969 C   0  0  0  0  0  0  0  0  0  0  0  0
    8.1490    4.3909  -12.2172 C   0  0  0  0  0  0  0  0  0  0  0  0
    8.0617    5.6924  -11.4181 C   0  0  0  0  0  0  0  0  0  0  0  0
    9.2424    6.6463  -11.6699 C   0  0  0  0  0  0  0  0  0  0  0  0
    9.3142    7.8395  -10.6983 C   0  0  0  0  0  0  0  0  0  0  0  0
    9.2868    7.4337   -9.2720 N   0  0  0  0  0  0  0  0  0  0  0  0
    9.1008    8.5923   -8.3626 C   0  0  0  0  0  0  0  0  0  0  0  0
    8.9675    8.1173   -6.9088 C   0  0  0  0  0  0  0  0  0  0  0  0
   10.0983    7.2721   -6.5439 N   0  0  0  0  0  0  0  0  0  0  0  0
   10.9404    7.5775   -5.4568 C   0  0  0  0  0  0  0  0  0  0  0  0
   11.2843    6.5747   -4.5255 C   0  0  0  0  0  0  0  0  0  0  0  0
   12.0509    6.8649   -3.3804 C   0  0  0  0  0  0  0  0  0  0  0  0
   12.4847    8.1787   -3.1566 C   0  0  0  0  0  0  0  0  0  0  0  0
   12.1884    9.1802   -4.0969 C   0  0  0  0  0  0  0  0  0  0  0  0
   11.4403    8.8869   -5.2690 C   0  0  0  0  0  0  0  0  0  0  0  0
   11.1936    9.8036   -6.2675 O   0  0  0  0  0  0  0  0  0  0  0  0
   11.7865   11.0703   -6.1389 C   0  0  0  0  0  0  0  0  0  0  0  0
   10.3858    6.1412   -7.4077 C   0  0  0  0  0  0  0  0  0  0  0  0
   10.4482    6.5858   -8.8791 C   0  0  0  0  0  0  0  0  0  0  0  0
   11.6611    1.7925  -17.0468 C   0  0  0  0  0  0  0  0  0  0  0  0
   13.9959    4.8726  -17.6953 H   0  0  0  0  0  0  0  0  0  0  0  0
   12.2871    4.5147  -17.4787 H   0  0  0  0  0  0  0  0  0  0  0  0
   13.4984    3.8217  -16.3752 H   0  0  0  0  0  0  0  0  0  0  0  0
   13.4576    0.8958  -19.8085 H   0  0  0  0  0  0  0  0  0  0  0  0
   12.0405   -1.1231  -19.5950 H   0  0  0  0  0  0  0  0  0  0  0  0
   10.3661   -1.2910  -17.7661 H   0  0  0  0  0  0  0  0  0  0  0  0
   10.1887    1.0625  -14.9294 H   0  0  0  0  0  0  0  0  0  0  0  0
    9.6399   -0.4746  -15.5577 H   0  0  0  0  0  0  0  0  0  0  0  0
    8.1344    0.7383  -17.1789 H   0  0  0  0  0  0  0  0  0  0  0  0
    8.6815    2.2624  -16.5578 H   0  0  0  0  0  0  0  0  0  0  0  0
    6.7841   -0.8263  -15.8103 H   0  0  0  0  0  0  0  0  0  0  0  0
    4.9415   -0.9594  -14.1650 H   0  0  0  0  0  0  0  0  0  0  0  0
    4.4888    0.9707  -12.6550 H   0  0  0  0  0  0  0  0  0  0  0  0
    5.8333    2.9971  -12.7892 H   0  0  0  0  0  0  0  0  0  0  0  0
    6.7007    4.8301  -13.8020 H   0  0  0  0  0  0  0  0  0  0  0  0
    8.3311    5.3244  -14.1552 H   0  0  0  0  0  0  0  0  0  0  0  0
    9.1486    3.9596  -12.1353 H   0  0  0  0  0  0  0  0  0  0  0  0
    7.4778    3.7058  -11.7179 H   0  0  0  0  0  0  0  0  0  0  0  0
    8.0234    5.4183  -10.3645 H   0  0  0  0  0  0  0  0  0  0  0  0
    7.1087    6.1750  -11.6288 H   0  0  0  0  0  0  0  0  0  0  0  0
    9.1681    7.0401  -12.6781 H   0  0  0  0  0  0  0  0  0  0  0  0
   10.1801    6.0907  -11.6463 H   0  0  0  0  0  0  0  0  0  0  0  0
    8.4860    8.5165  -10.9031 H   0  0  0  0  0  0  0  0  0  0  0  0
   10.2223    8.4151  -10.8940 H   0  0  0  0  0  0  0  0  0  0  0  0
    8.2147    9.1596   -8.6466 H   0  0  0  0  0  0  0  0  0  0  0  0
    9.9490    9.2697   -8.4648 H   0  0  0  0  0  0  0  0  0  0  0  0
    8.0577    7.5327   -6.7912 H   0  0  0  0  0  0  0  0  0  0  0  0
    8.8654    8.9727   -6.2469 H   0  0  0  0  0  0  0  0  0  0  0  0
   10.8930    5.5821   -4.6476 H   0  0  0  0  0  0  0  0  0  0  0  0
   12.2730    6.0869   -2.6647 H   0  0  0  0  0  0  0  0  0  0  0  0
   13.0586    8.4186   -2.2715 H   0  0  0  0  0  0  0  0  0  0  0  0
   12.5655   10.1666   -3.8911 H   0  0  0  0  0  0  0  0  0  0  0  0
   11.6848   11.6606   -7.0463 H   0  0  0  0  0  0  0  0  0  0  0  0
   11.2869   11.5946   -5.3196 H   0  0  0  0  0  0  0  0  0  0  0  0
   12.8556   10.9729   -5.9534 H   0  0  0  0  0  0  0  0  0  0  0  0
   11.3269    5.6711   -7.1276 H   0  0  0  0  0  0  0  0  0  0  0  0
    9.6030    5.3933   -7.2811 H   0  0  0  0  0  0  0  0  0  0  0  0
   10.4856    5.6884   -9.4953 H   0  0  0  0  0  0  0  0  0  0  0  0
   11.3689    7.1456   -9.0531 H   0  0  0  0  0  0  0  0  0  0  0  0
   11.5309    2.5868  -16.3276 H   0  0  0  0  0  0  0  0  0  0  0  0
    8.4402    6.8842   -9.1640 H   0  0  0  0  0  0  0  0  0  0  0  0
  2  1  1  0
  3  2  1  0
  4  3  1  0
  5  4  2  0
  6  5  1  0
  7  6  2  0
  8  7  1  0
  9  8  1  0
 10  9  1  0
 11 10  2  0
 12 11  1  0
 13 12  2  0
 14 13  1  0
 15 10  1  0
 15 14  2  0
 16 15  1  0
 17 16  1  0
 18 17  1  0
 19 18  1  0
 20 19  1  0
 21 20  1  0
 22 21  1  0
 23 22  1  0
 24 23  1  0
 25 24  1  0
 26 25  1  0
 27 26  2  0
 28 27  1  0
 29 28  2  0
 30 29  1  0
 31 26  1  0
 31 30  2  0
 32 31  1  0
 33 32  1  0
 34 25  1  0
 35 22  1  0
 35 34  1  0
 36  3  2  0
 36  7  1  0
 37  1  1  0
 38  1  1  0
 39  1  1  0
 40  4  1  0
 41  5  1  0
 42  6  1  0
 43  8  1  0
 44  8  1  0
 45  9  1  0
 46  9  1  0
 47 11  1  0
 48 12  1  0
 49 13  1  0
 50 14  1  0
 51 17  1  0
 52 17  1  0
 53 18  1  0
 54 18  1  0
 55 19  1  0
 56 19  1  0
 57 20  1  0
 58 20  1  0
 59 21  1  0
 60 21  1  0
 61 23  1  0
 62 23  1  0
 63 24  1  0
 64 24  1  0
 65 27  1  0
 66 28  1  0
 67 29  1  0
 68 30  1  0
 69 33  1  0
 70 33  1  0
 71 33  1  0
 72 34  1  0
 73 34  1  0
 74 35  1  0
 75 35  1  0
 76 36  1  0
 77 22  1  0
M  CHG  1  22   1
M  END
>  <b_m_subgroup_collapsed>  (686) 
0

>  <r_i_docking_score>  (686) 
-7.5298636719344101

>  <s_m_subgroup_title>  (686) 
glide-dock_SP_D22_pv

>  <s_m_subgroupid>  (686) 
glide-dock_SP_D22_pv

>  <Molecule ChEMBL ID>  (686) 
CHEMBL458991

>  <Standard Type>  (686) 
Ki

>  <Standard Value>  (686) 
1000000.0

>  <label>  (686) 
0

$$$$
CHEMBL268799
     RDKit          3D

 44 47  0  0  1  0  0  0  0  0999 V2000
   12.4848    8.5865   -2.5023 Cl  0  0  0  0  0  0  0  0  0  0  0  0
   11.7874    8.3137   -4.0575 C   0  0  0  0  0  0  0  0  0  0  0  0
   11.6860    7.0075   -4.5639 C   0  0  0  0  0  0  0  0  0  0  0  0
   11.1389    6.7855   -5.8424 C   0  0  0  0  0  0  0  0  0  0  0  0
   10.6521    7.8501   -6.6384 C   0  0  0  0  0  0  0  0  0  0  0  0
   10.1074    7.5979   -7.9251 N   0  0  0  0  0  0  0  0  0  0  0  0
    9.7232    8.7289   -8.7629 C   0  0  0  0  0  0  0  0  0  0  0  0
    9.6888    8.3437  -10.2466 C   0  0  0  0  0  0  0  0  0  0  0  0
    8.8861    7.1253  -10.5161 N   0  0  0  0  0  0  0  0  0  0  0  0
    8.9083    6.8181  -11.9703 C   0  0  0  0  0  0  0  0  0  0  0  0
    8.0408    5.6750  -12.4151 C   0  0  0  0  0  0  0  0  0  0  0  0
    6.6841    5.5497  -12.2465 C   0  0  0  0  0  0  0  0  0  0  0  0
    6.2490    4.3975  -12.8738 N   0  0  0  0  0  0  0  0  0  0  0  0
    7.3029    3.7475  -13.4787 C   0  0  0  0  0  0  0  0  0  0  0  0
    7.3714    2.5714  -14.2470 C   0  0  0  0  0  0  0  0  0  0  0  0
    8.6183    2.1346  -14.7300 C   0  0  0  0  0  0  0  0  0  0  0  0
    9.7784    2.8817  -14.4494 C   0  0  0  0  0  0  0  0  0  0  0  0
    9.6969    4.0661  -13.6888 C   0  0  0  0  0  0  0  0  0  0  0  0
    8.4584    4.5291  -13.1819 C   0  0  0  0  0  0  0  0  0  0  0  0
    9.2726    5.9924   -9.6343 C   0  0  0  0  0  0  0  0  0  0  0  0
    9.2883    6.4009   -8.1444 C   0  0  0  0  0  0  0  0  0  0  0  0
   10.7654    9.1623   -6.1048 C   0  0  0  0  0  0  0  0  0  0  0  0
   11.3224    9.3915   -4.8305 C   0  0  0  0  0  0  0  0  0  0  0  0
   12.0452    6.1720   -3.9810 H   0  0  0  0  0  0  0  0  0  0  0  0
   11.1292    5.7724   -6.2052 H   0  0  0  0  0  0  0  0  0  0  0  0
    8.7488    9.1009   -8.4406 H   0  0  0  0  0  0  0  0  0  0  0  0
   10.4398    9.5435   -8.6694 H   0  0  0  0  0  0  0  0  0  0  0  0
    9.2821    9.1760  -10.8208 H   0  0  0  0  0  0  0  0  0  0  0  0
   10.7109    8.1853  -10.5950 H   0  0  0  0  0  0  0  0  0  0  0  0
    8.5954    7.7127  -12.5109 H   0  0  0  0  0  0  0  0  0  0  0  0
    9.9410    6.6360  -12.2709 H   0  0  0  0  0  0  0  0  0  0  0  0
    5.9842    6.1870  -11.7248 H   0  0  0  0  0  0  0  0  0  0  0  0
    5.2858    4.0960  -12.8700 H   0  0  0  0  0  0  0  0  0  0  0  0
    6.4787    2.0015  -14.4562 H   0  0  0  0  0  0  0  0  0  0  0  0
    8.6863    1.2268  -15.3123 H   0  0  0  0  0  0  0  0  0  0  0  0
   10.7359    2.5436  -14.8190 H   0  0  0  0  0  0  0  0  0  0  0  0
   10.5983    4.6261  -13.4925 H   0  0  0  0  0  0  0  0  0  0  0  0
    8.5814    5.1604   -9.7743 H   0  0  0  0  0  0  0  0  0  0  0  0
   10.2621    5.6355   -9.9221 H   0  0  0  0  0  0  0  0  0  0  0  0
    9.6206    5.5465   -7.5605 H   0  0  0  0  0  0  0  0  0  0  0  0
    8.2714    6.6139   -7.8104 H   0  0  0  0  0  0  0  0  0  0  0  0
   10.4271   10.0290   -6.6481 H   0  0  0  0  0  0  0  0  0  0  0  0
   11.3898   10.3984   -4.4460 H   0  0  0  0  0  0  0  0  0  0  0  0
    7.9130    7.3720  -10.2849 H   0  0  0  0  0  0  0  0  0  0  0  0
  2  1  1  0
  3  2  1  0
  4  3  2  0
  5  4  1  0
  6  5  1  0
  7  6  1  0
  8  7  1  0
  9  8  1  0
 10  9  1  0
 11 10  1  0
 12 11  2  0
 13 12  1  0
 14 13  1  0
 15 14  2  0
 16 15  1  0
 17 16  2  0
 18 17  1  0
 19 11  1  0
 19 14  1  0
 19 18  2  0
 20  9  1  0
 21  6  1  0
 21 20  1  0
 22  5  2  0
 23  2  2  0
 23 22  1  0
 24  3  1  0
 25  4  1  0
 26  7  1  0
 27  7  1  0
 28  8  1  0
 29  8  1  0
 30 10  1  0
 31 10  1  0
 32 12  1  0
 33 13  1  0
 34 15  1  0
 35 16  1  0
 36 17  1  0
 37 18  1  0
 38 20  1  0
 39 20  1  0
 40 21  1  0
 41 21  1  0
 42 22  1  0
 43 23  1  0
 44  9  1  0
M  CHG  1   9   1
M  END
>  <b_m_subgroup_collapsed>  (687) 
0

>  <r_i_docking_score>  (687) 
-7.5296348993292703

>  <s_m_subgroup_title>  (687) 
glide-dock_SP_D22_pv

>  <s_m_subgroupid>  (687) 
glide-dock_SP_D22_pv

>  <Molecule ChEMBL ID>  (687) 
CHEMBL268799

>  <Standard Type>  (687) 
Ki

>  <Standard Value>  (687) 
71.0

>  <label>  (687) 
1

$$$$
CHEMBL126656
     RDKit          3D

 62 65  0  0  1  0  0  0  0  0999 V2000
   11.8845   10.6477   -6.2458 C   0  0  0  0  0  0  0  0  0  0  0  0
   10.9853   10.3075   -5.2053 O   0  0  0  0  0  0  0  0  0  0  0  0
   11.3814    9.1926   -4.5067 C   0  0  0  0  0  0  0  0  0  0  0  0
   11.9047    9.3722   -3.2103 C   0  0  0  0  0  0  0  0  0  0  0  0
   12.3160    8.2644   -2.4479 C   0  0  0  0  0  0  0  0  0  0  0  0
   12.2048    6.9693   -2.9824 C   0  0  0  0  0  0  0  0  0  0  0  0
   11.6862    6.7808   -4.2771 C   0  0  0  0  0  0  0  0  0  0  0  0
   11.2658    7.8854   -5.0496 C   0  0  0  0  0  0  0  0  0  0  0  0
   10.6914    7.6780   -6.3142 N   0  0  0  0  0  0  0  0  0  0  0  0
    9.3338    8.1172   -6.5931 C   0  0  0  0  0  0  0  0  0  0  0  0
    9.2713    8.7356   -7.9956 C   0  0  0  0  0  0  0  0  0  0  0  0
    9.7876    7.8075   -9.0071 N   0  0  0  0  0  0  0  0  0  0  0  0
    9.7094    8.4925  -10.2942 C   0  0  0  0  0  0  0  0  0  0  0  0
    9.9571    7.5662  -11.4930 C   0  0  0  0  0  0  0  0  0  0  0  0
    9.0643    6.3136  -11.4760 C   0  0  0  0  0  0  0  0  0  0  0  0
    8.8857    5.7656  -12.8122 N   0  0  0  0  0  0  0  0  0  0  0  0
    9.8063    5.0767  -13.4997 C   0  0  0  0  0  0  0  0  0  0  0  0
   10.9095    4.7860  -13.0470 O   0  0  0  0  0  0  0  0  0  0  0  0
    9.4395    4.6796  -14.9282 C   0  0  0  0  0  0  0  0  0  0  0  0
    9.4130    3.1626  -15.0780 C   0  0  0  0  0  0  0  0  0  0  0  0
   10.5409    2.5260  -15.6434 C   0  0  0  0  0  0  0  0  0  0  0  0
   10.5725    1.1296  -15.8057 C   0  0  0  0  0  0  0  0  0  0  0  0
    9.4783    0.3514  -15.3973 C   0  0  0  0  0  0  0  0  0  0  0  0
    8.3469    0.9669  -14.8258 C   0  0  0  0  0  0  0  0  0  0  0  0
    7.2557    0.1701  -14.4213 C   0  0  0  0  0  0  0  0  0  0  0  0
    6.1209    0.7614  -13.8425 C   0  0  0  0  0  0  0  0  0  0  0  0
    6.0775    2.1548  -13.6662 C   0  0  0  0  0  0  0  0  0  0  0  0
    7.1509    2.9605  -14.0842 C   0  0  0  0  0  0  0  0  0  0  0  0
    8.3035    2.3782  -14.6630 C   0  0  0  0  0  0  0  0  0  0  0  0
   11.1654    7.4109   -8.6864 C   0  0  0  0  0  0  0  0  0  0  0  0
   11.2357    6.7516   -7.2910 C   0  0  0  0  0  0  0  0  0  0  0  0
   11.6851   11.6373   -6.6474 H   0  0  0  0  0  0  0  0  0  0  0  0
   12.8881   10.6617   -5.8465 H   0  0  0  0  0  0  0  0  0  0  0  0
   11.8650    9.9238   -7.0541 H   0  0  0  0  0  0  0  0  0  0  0  0
   11.9859   10.3663   -2.7958 H   0  0  0  0  0  0  0  0  0  0  0  0
   12.7086    8.4119   -1.4515 H   0  0  0  0  0  0  0  0  0  0  0  0
   12.5105    6.1151   -2.3964 H   0  0  0  0  0  0  0  0  0  0  0  0
   11.5875    5.7761   -4.6662 H   0  0  0  0  0  0  0  0  0  0  0  0
    8.6555    7.2647   -6.5261 H   0  0  0  0  0  0  0  0  0  0  0  0
    9.0044    8.8475   -5.8622 H   0  0  0  0  0  0  0  0  0  0  0  0
    8.2367    8.9946   -8.2229 H   0  0  0  0  0  0  0  0  0  0  0  0
    9.8404    9.6629   -8.0158 H   0  0  0  0  0  0  0  0  0  0  0  0
    8.7083    8.9144  -10.4054 H   0  0  0  0  0  0  0  0  0  0  0  0
   10.4029    9.3332  -10.3111 H   0  0  0  0  0  0  0  0  0  0  0  0
    9.7523    8.1465  -12.3923 H   0  0  0  0  0  0  0  0  0  0  0  0
   11.0062    7.2792  -11.5576 H   0  0  0  0  0  0  0  0  0  0  0  0
    9.4666    5.5562  -10.8012 H   0  0  0  0  0  0  0  0  0  0  0  0
    8.0815    6.5690  -11.0876 H   0  0  0  0  0  0  0  0  0  0  0  0
    7.9988    5.9555  -13.2533 H   0  0  0  0  0  0  0  0  0  0  0  0
    8.4882    5.1258  -15.2149 H   0  0  0  0  0  0  0  0  0  0  0  0
   10.1816    5.1076  -15.6032 H   0  0  0  0  0  0  0  0  0  0  0  0
   11.3943    3.1117  -15.9512 H   0  0  0  0  0  0  0  0  0  0  0  0
   11.4426    0.6553  -16.2393 H   0  0  0  0  0  0  0  0  0  0  0  0
    9.5130   -0.7205  -15.5205 H   0  0  0  0  0  0  0  0  0  0  0  0
    7.2819   -0.9018  -14.5542 H   0  0  0  0  0  0  0  0  0  0  0  0
    5.2888    0.1464  -13.5330 H   0  0  0  0  0  0  0  0  0  0  0  0
    5.2060    2.6122  -13.2202 H   0  0  0  0  0  0  0  0  0  0  0  0
    7.0677    4.0244  -13.9359 H   0  0  0  0  0  0  0  0  0  0  0  0
   11.5224    6.7085   -9.4365 H   0  0  0  0  0  0  0  0  0  0  0  0
   11.8245    8.2780   -8.7245 H   0  0  0  0  0  0  0  0  0  0  0  0
   12.2618    6.4867   -7.0452 H   0  0  0  0  0  0  0  0  0  0  0  0
   10.6555    5.8289   -7.2766 H   0  0  0  0  0  0  0  0  0  0  0  0
  2  1  1  0
  3  2  1  0
  4  3  2  0
  5  4  1  0
  6  5  2  0
  7  6  1  0
  8  3  1  0
  8  7  2  0
  9  8  1  0
 10  9  1  0
 11 10  1  0
 12 11  1  0
 13 12  1  0
 14 13  1  0
 15 14  1  0
 16 15  1  0
 17 16  1  0
 18 17  2  0
 19 17  1  0
 20 19  1  0
 21 20  2  0
 22 21  1  0
 23 22  2  0
 24 23  1  0
 25 24  2  0
 26 25  1  0
 27 26  2  0
 28 27  1  0
 29 20  1  0
 29 24  1  0
 29 28  2  0
 30 12  1  0
 31  9  1  0
 31 30  1  0
 32  1  1  0
 33  1  1  0
 34  1  1  0
 35  4  1  0
 36  5  1  0
 37  6  1  0
 38  7  1  0
 39 10  1  0
 40 10  1  0
 41 11  1  0
 42 11  1  0
 43 13  1  0
 44 13  1  0
 45 14  1  0
 46 14  1  0
 47 15  1  0
 48 15  1  0
 49 16  1  0
 50 19  1  0
 51 19  1  0
 52 21  1  0
 53 22  1  0
 54 23  1  0
 55 25  1  0
 56 26  1  0
 57 27  1  0
 58 28  1  0
 59 30  1  0
 60 30  1  0
 61 31  1  0
 62 31  1  0
M  END
>  <b_m_subgroup_collapsed>  (688) 
0

>  <r_i_docking_score>  (688) 
-7.5267851724066999

>  <s_m_subgroup_title>  (688) 
glide-dock_SP_D22_pv

>  <s_m_subgroupid>  (688) 
glide-dock_SP_D22_pv

>  <Molecule ChEMBL ID>  (688) 
CHEMBL126656

>  <Standard Type>  (688) 
Ki

>  <Standard Value>  (688) 
44.0

>  <label>  (688) 
1

$$$$
CHEMBL76849
     RDKit          3D

 52 54  0  0  1  0  0  0  0  0999 V2000
   11.6484    8.9168   -7.3206 C   0  0  0  0  0  0  0  0  0  0  0  0
   11.2659    8.0251   -6.3913 C   0  0  0  0  0  0  0  0  0  0  0  0
   11.5604    8.1179   -4.9617 C   0  0  0  0  0  0  0  0  0  0  0  0
   11.7764    9.3616   -4.3295 C   0  0  0  0  0  0  0  0  0  0  0  0
   12.0878    9.4064   -2.9603 C   0  0  0  0  0  0  0  0  0  0  0  0
   12.2238    8.2190   -2.2218 C   0  0  0  0  0  0  0  0  0  0  0  0
   12.0257    6.9776   -2.8491 C   0  0  0  0  0  0  0  0  0  0  0  0
   11.6857    6.9297   -4.2129 C   0  0  0  0  0  0  0  0  0  0  0  0
   11.2726    8.8168   -8.7815 C   0  0  0  0  0  0  0  0  0  0  0  0
   10.0136    8.1772   -8.9192 O   0  0  0  0  0  0  0  0  0  0  0  0
    9.6177    7.9378  -10.2578 C   0  0  0  0  0  0  0  0  0  0  0  0
   10.1650    6.5759  -10.7422 C   0  0  1  0  0  0  0  0  0  0  0  0
    9.5258    5.3619  -10.0383 C   0  0  0  0  0  0  0  0  0  0  0  0
    8.0752    5.1102  -10.4766 C   0  0  0  0  0  0  0  0  0  0  0  0
    7.9330    5.0438  -11.9551 N   0  0  1  0  0  0  0  0  0  0  0  0
    6.5444    4.7537  -12.4044 C   0  0  0  0  0  0  0  0  0  0  0  0
    6.4699    3.3995  -13.0956 C   0  0  0  0  0  0  0  0  0  0  0  0
    7.3321    3.0951  -14.1734 C   0  0  0  0  0  0  0  0  0  0  0  0
    7.3100    1.8165  -14.7646 C   0  0  0  0  0  0  0  0  0  0  0  0
    6.4109    0.8379  -14.2966 C   0  0  0  0  0  0  0  0  0  0  0  0
    5.5302    1.1460  -13.2439 C   0  0  0  0  0  0  0  0  0  0  0  0
    5.5570    2.4209  -12.6463 C   0  0  0  0  0  0  0  0  0  0  0  0
    8.5185    6.2222  -12.6428 C   0  0  0  0  0  0  0  0  0  0  0  0
    9.9968    6.4071  -12.2567 C   0  0  0  0  0  0  0  0  0  0  0  0
   12.2686    9.7585   -7.0479 H   0  0  0  0  0  0  0  0  0  0  0  0
   10.6678    7.1811   -6.7000 H   0  0  0  0  0  0  0  0  0  0  0  0
   11.6817   10.2835   -4.8852 H   0  0  0  0  0  0  0  0  0  0  0  0
   12.2218   10.3623   -2.4762 H   0  0  0  0  0  0  0  0  0  0  0  0
   12.4737    8.2648   -1.1733 H   0  0  0  0  0  0  0  0  0  0  0  0
   12.1189    6.0619   -2.2834 H   0  0  0  0  0  0  0  0  0  0  0  0
   11.5350    5.9702   -4.6854 H   0  0  0  0  0  0  0  0  0  0  0  0
   11.2214    9.8190   -9.2070 H   0  0  0  0  0  0  0  0  0  0  0  0
   12.0605    8.2806   -9.3099 H   0  0  0  0  0  0  0  0  0  0  0  0
    8.5279    7.9570  -10.2964 H   0  0  0  0  0  0  0  0  0  0  0  0
    9.9563    8.7545  -10.9010 H   0  0  0  0  0  0  0  0  0  0  0  0
   11.2343    6.5755  -10.5283 H   0  0  0  0  0  0  0  0  0  0  0  0
   10.0860    4.4568  -10.2692 H   0  0  0  0  0  0  0  0  0  0  0  0
    9.5744    5.4779   -8.9550 H   0  0  0  0  0  0  0  0  0  0  0  0
    7.4328    5.8888  -10.0763 H   0  0  0  0  0  0  0  0  0  0  0  0
    7.7201    4.1726  -10.0427 H   0  0  0  0  0  0  0  0  0  0  0  0
    5.8551    4.7733  -11.5578 H   0  0  0  0  0  0  0  0  0  0  0  0
    6.1803    5.5192  -13.0927 H   0  0  0  0  0  0  0  0  0  0  0  0
    8.0348    3.8282  -14.5389 H   0  0  0  0  0  0  0  0  0  0  0  0
    7.9807    1.5850  -15.5782 H   0  0  0  0  0  0  0  0  0  0  0  0
    6.3997   -0.1438  -14.7464 H   0  0  0  0  0  0  0  0  0  0  0  0
    4.8367    0.3975  -12.8901 H   0  0  0  0  0  0  0  0  0  0  0  0
    4.8891    2.6345  -11.8289 H   0  0  0  0  0  0  0  0  0  0  0  0
    7.9414    7.1153  -12.3975 H   0  0  0  0  0  0  0  0  0  0  0  0
    8.4458    6.0880  -13.7252 H   0  0  0  0  0  0  0  0  0  0  0  0
   10.4362    7.2651  -12.7664 H   0  0  0  0  0  0  0  0  0  0  0  0
   10.5652    5.5411  -12.5937 H   0  0  0  0  0  0  0  0  0  0  0  0
    8.4808    4.2479  -12.2449 H   0  0  0  0  0  0  0  0  0  0  0  0
  2  1  2  0
  3  2  1  0
  4  3  2  0
  5  4  1  0
  6  5  2  0
  7  6  1  0
  8  3  1  0
  8  7  2  0
  9  1  1  0
 10  9  1  0
 11 10  1  0
 12 11  1  0
 13 12  1  0
 14 13  1  0
 15 14  1  0
 16 15  1  0
 17 16  1  0
 18 17  2  0
 19 18  1  0
 20 19  2  0
 21 20  1  0
 22 17  1  0
 22 21  2  0
 23 15  1  0
 24 12  1  0
 24 23  1  0
 25  1  1  0
 26  2  1  0
 27  4  1  0
 28  5  1  0
 29  6  1  0
 30  7  1  0
 31  8  1  0
 32  9  1  0
 33  9  1  0
 34 11  1  0
 35 11  1  0
 12 36  1  6
 37 13  1  0
 38 13  1  0
 39 14  1  0
 40 14  1  0
 41 16  1  0
 42 16  1  0
 43 18  1  0
 44 19  1  0
 45 20  1  0
 46 21  1  0
 47 22  1  0
 48 23  1  0
 49 23  1  0
 50 24  1  0
 51 24  1  0
 15 52  1  6
M  CHG  1  15   1
M  END
>  <b_m_subgroup_collapsed>  (689) 
0

>  <r_i_docking_score>  (689) 
-7.5233589420749798

>  <s_m_subgroup_title>  (689) 
glide-dock_SP_D22_pv

>  <s_m_subgroupid>  (689) 
glide-dock_SP_D22_pv

>  <Molecule ChEMBL ID>  (689) 
CHEMBL76849

>  <Standard Type>  (689) 
Ki

>  <Standard Value>  (689) 
10000.0

>  <label>  (689) 
0

$$$$
CHEMBL4998385
     RDKit          3D

 36 37  0  0  1  0  0  0  0  0999 V2000
    6.0097    5.1035  -12.7515 C   0  0  0  0  0  0  0  0  0  0  0  0
    7.3562    4.6161  -12.9898 N   0  0  0  0  0  0  0  0  0  0  0  0
    7.5348    3.5903  -13.8469 N   0  0  0  0  0  0  0  0  0  0  0  0
    8.8390    3.3724  -13.8469 C   0  0  0  0  0  0  0  0  0  0  0  0
    9.5359    4.2525  -12.9739 C   0  0  0  0  0  0  0  0  0  0  0  0
    8.5552    5.0430  -12.4435 C   0  0  0  0  0  0  0  0  0  0  0  0
    8.6465    6.1615  -11.4574 C   0  0  0  0  0  0  0  0  0  0  0  0
    8.0860    5.7723  -10.1496 N   0  0  0  0  0  0  0  0  0  0  0  0
    9.0564    5.5034   -9.0736 C   0  0  0  0  0  0  0  0  0  0  0  0
    9.5862    6.8011   -8.4430 C   0  0  0  0  0  0  0  0  0  0  0  0
   10.5098    6.5051   -7.3603 N   0  0  0  0  0  0  0  0  0  0  0  0
   10.8860    7.5100   -6.4621 C   0  0  0  0  0  0  0  0  0  0  0  0
   10.8860    8.8834   -6.8002 C   0  0  0  0  0  0  0  0  0  0  0  0
   11.2864    9.8457   -5.8509 C   0  0  0  0  0  0  0  0  0  0  0  0
   11.6860    9.4416   -4.5624 C   0  0  0  0  0  0  0  0  0  0  0  0
   11.6860    8.0776   -4.2246 C   0  0  0  0  0  0  0  0  0  0  0  0
   12.1570    7.5331   -2.4682 Br  0  0  0  0  0  0  0  0  0  0  0  0
   11.2860    7.1166   -5.1697 C   0  0  0  0  0  0  0  0  0  0  0  0
    5.6094    4.6460  -11.8469 H   0  0  0  0  0  0  0  0  0  0  0  0
    6.0117    6.1872  -12.6321 H   0  0  0  0  0  0  0  0  0  0  0  0
    5.3602    4.8505  -13.5911 H   0  0  0  0  0  0  0  0  0  0  0  0
    9.2370    2.5824  -14.4669 H   0  0  0  0  0  0  0  0  0  0  0  0
   10.5960    4.2940  -12.7737 H   0  0  0  0  0  0  0  0  0  0  0  0
    9.6788    6.4985  -11.3571 H   0  0  0  0  0  0  0  0  0  0  0  0
    8.0860    7.0201  -11.8287 H   0  0  0  0  0  0  0  0  0  0  0  0
    7.4671    6.5339   -9.8604 H   0  0  0  0  0  0  0  0  0  0  0  0
    8.5412    4.9195   -8.3092 H   0  0  0  0  0  0  0  0  0  0  0  0
    9.8694    4.8805   -9.4509 H   0  0  0  0  0  0  0  0  0  0  0  0
   10.0994    7.4058   -9.1914 H   0  0  0  0  0  0  0  0  0  0  0  0
    8.7537    7.3938   -8.0581 H   0  0  0  0  0  0  0  0  0  0  0  0
   10.4671    5.5705   -6.9772 H   0  0  0  0  0  0  0  0  0  0  0  0
   10.5890    9.2124   -7.7848 H   0  0  0  0  0  0  0  0  0  0  0  0
   11.2862   10.8941   -6.1114 H   0  0  0  0  0  0  0  0  0  0  0  0
   11.9812   10.1723   -3.8246 H   0  0  0  0  0  0  0  0  0  0  0  0
   11.2828    6.0733   -4.8897 H   0  0  0  0  0  0  0  0  0  0  0  0
    7.4979    4.9594  -10.2763 H   0  0  0  0  0  0  0  0  0  0  0  0
  2  1  1  0
  3  2  1  0
  4  3  2  0
  5  4  1  0
  6  2  1  0
  6  5  2  0
  7  6  1  0
  8  7  1  0
  9  8  1  0
 10  9  1  0
 11 10  1  0
 12 11  1  0
 13 12  2  0
 14 13  1  0
 15 14  2  0
 16 15  1  0
 17 16  1  0
 18 12  1  0
 18 16  2  0
 19  1  1  0
 20  1  1  0
 21  1  1  0
 22  4  1  0
 23  5  1  0
 24  7  1  0
 25  7  1  0
 26  8  1  0
 27  9  1  0
 28  9  1  0
 29 10  1  0
 30 10  1  0
 31 11  1  0
 32 13  1  0
 33 14  1  0
 34 15  1  0
 35 18  1  0
 36  8  1  0
M  CHG  1   8   1
M  END
>  <b_m_subgroup_collapsed>  (690) 
0

>  <r_i_docking_score>  (690) 
-7.5223306358182001

>  <s_m_subgroup_title>  (690) 
glide-dock_SP_D22_pv

>  <s_m_subgroupid>  (690) 
glide-dock_SP_D22_pv

>  <Molecule ChEMBL ID>  (690) 
CHEMBL4998385

>  <Standard Type>  (690) 
Ki

>  <Standard Value>  (690) 
10000.0

>  <label>  (690) 
0

$$$$
CHEMBL5722960
     RDKit          3D

 38 40  0  0  1  0  0  0  0  0999 V2000
   12.3015    8.2989  -10.6867 C   0  0  0  0  0  0  0  0  0  0  0  0
   11.5789    7.3724  -11.6178 C   0  0  0  0  0  0  0  0  0  0  0  0
   12.0858    6.9747  -12.8930 C   0  0  0  0  0  0  0  0  0  0  0  0
   11.2747    6.0928  -13.5509 C   0  0  0  0  0  0  0  0  0  0  0  0
    9.8223    5.7725  -12.6468 S   0  0  0  0  0  0  0  0  0  0  0  0
   10.3617    6.7992  -11.3367 C   0  0  0  0  0  0  0  0  0  0  0  0
    9.5402    6.9759  -10.0971 C   0  0  0  0  0  0  0  0  0  0  0  0
    9.7868    5.9810   -9.0466 N   0  0  0  0  0  0  0  0  0  0  0  0
    9.2141    4.6965   -9.4399 C   0  0  0  0  0  0  0  0  0  0  0  0
    9.1301    6.4067   -7.8118 C   0  0  0  0  0  0  0  0  0  0  0  0
   10.0334    7.2612   -6.9387 C   0  0  0  0  0  0  0  0  0  0  0  0
   10.1071    8.6036   -7.0473 C   0  0  0  0  0  0  0  0  0  0  0  0
   10.8873    9.3780   -6.0868 C   0  0  0  0  0  0  0  0  0  0  0  0
   11.1209   10.5727   -6.2466 O   0  0  0  0  0  0  0  0  0  0  0  0
   11.3093    8.6914   -4.9857 N   0  0  0  0  0  0  0  0  0  0  0  0
   11.8005    9.4175   -3.8756 C   0  0  0  0  0  0  0  0  0  0  0  0
   12.3206    8.8160   -2.7951 C   0  0  0  0  0  0  0  0  0  0  0  0
   12.4120    7.3786   -2.7856 C   0  0  0  0  0  0  0  0  0  0  0  0
   11.9311    6.6527   -3.8115 C   0  0  0  0  0  0  0  0  0  0  0  0
   11.2860    7.2657   -4.9591 C   0  0  0  0  0  0  0  0  0  0  0  0
   10.7067    6.6036   -5.9090 N   0  0  0  0  0  0  0  0  0  0  0  0
   13.2846    8.5716  -11.0709 H   0  0  0  0  0  0  0  0  0  0  0  0
   11.7433    9.2238  -10.5385 H   0  0  0  0  0  0  0  0  0  0  0  0
   12.4470    7.8412   -9.7080 H   0  0  0  0  0  0  0  0  0  0  0  0
   13.0322    7.3331  -13.2720 H   0  0  0  0  0  0  0  0  0  0  0  0
   11.4286    5.6324  -14.5157 H   0  0  0  0  0  0  0  0  0  0  0  0
    9.7363    7.9718   -9.7048 H   0  0  0  0  0  0  0  0  0  0  0  0
    8.4859    6.9722  -10.3646 H   0  0  0  0  0  0  0  0  0  0  0  0
    9.7130    4.2923  -10.3192 H   0  0  0  0  0  0  0  0  0  0  0  0
    9.3415    3.9596   -8.6466 H   0  0  0  0  0  0  0  0  0  0  0  0
    8.1477    4.7814   -9.6555 H   0  0  0  0  0  0  0  0  0  0  0  0
    8.1970    6.9298   -8.0211 H   0  0  0  0  0  0  0  0  0  0  0  0
    8.8499    5.5401   -7.2141 H   0  0  0  0  0  0  0  0  0  0  0  0
    9.5479    9.1208   -7.8128 H   0  0  0  0  0  0  0  0  0  0  0  0
   11.6853   10.4912   -3.9199 H   0  0  0  0  0  0  0  0  0  0  0  0
   12.6620    9.3964   -1.9494 H   0  0  0  0  0  0  0  0  0  0  0  0
   12.8839    6.8757   -1.9542 H   0  0  0  0  0  0  0  0  0  0  0  0
   12.0452    5.5877   -3.7491 H   0  0  0  0  0  0  0  0  0  0  0  0
  2  1  1  0
  3  2  1  0
  4  3  2  0
  5  4  1  0
  6  2  2  0
  6  5  1  0
  7  6  1  0
  8  7  1  0
  9  8  1  0
 10  8  1  0
 11 10  1  0
 12 11  2  0
 13 12  1  0
 14 13  2  0
 15 13  1  0
 16 15  1  0
 17 16  2  0
 18 17  1  0
 19 18  2  0
 20 15  1  0
 20 19  1  0
 21 11  1  0
 21 20  2  0
 22  1  1  0
 23  1  1  0
 24  1  1  0
 25  3  1  0
 26  4  1  0
 27  7  1  0
 28  7  1  0
 29  9  1  0
 30  9  1  0
 31  9  1  0
 32 10  1  0
 33 10  1  0
 34 12  1  0
 35 16  1  0
 36 17  1  0
 37 18  1  0
 38 19  1  0
M  END
>  <b_m_subgroup_collapsed>  (691) 
0

>  <r_i_docking_score>  (691) 
-7.5207308774596697

>  <s_m_subgroup_title>  (691) 
glide-dock_SP_D22_pv

>  <s_m_subgroupid>  (691) 
glide-dock_SP_D22_pv

>  <Molecule ChEMBL ID>  (691) 
CHEMBL5722960

>  <Standard Type>  (691) 
Ki

>  <Standard Value>  (691) 
10000.0

>  <label>  (691) 
0

$$$$
CHEMBL457891
     RDKit          3D

 66 69  0  0  1  0  0  0  0  0999 V2000
   13.0928    1.8550  -18.7001 C   0  0  0  0  0  0  0  0  0  0  0  0
   13.5969    3.1555  -18.4312 O   0  0  0  0  0  0  0  0  0  0  0  0
   13.1187    3.8122  -17.3177 C   0  0  0  0  0  0  0  0  0  0  0  0
   13.7129    5.0518  -17.0026 C   0  0  0  0  0  0  0  0  0  0  0  0
   13.3084    5.7793  -15.8670 C   0  0  0  0  0  0  0  0  0  0  0  0
   12.2880    5.2800  -15.0401 C   0  0  0  0  0  0  0  0  0  0  0  0
   11.6688    4.0514  -15.3493 C   0  0  0  0  0  0  0  0  0  0  0  0
   10.5277    3.5511  -14.4841 C   0  0  0  0  0  0  0  0  0  0  0  0
    9.1815    4.0748  -15.0092 C   0  0  0  0  0  0  0  0  0  0  0  0
    8.0127    3.8069  -14.0742 C   0  0  0  0  0  0  0  0  0  0  0  0
    7.2232    2.6512  -14.2482 C   0  0  0  0  0  0  0  0  0  0  0  0
    6.0848    2.4479  -13.4467 C   0  0  0  0  0  0  0  0  0  0  0  0
    5.7516    3.3802  -12.4469 C   0  0  0  0  0  0  0  0  0  0  0  0
    6.5478    4.5240  -12.2481 C   0  0  0  0  0  0  0  0  0  0  0  0
    7.6710    4.7484  -13.0741 C   0  0  0  0  0  0  0  0  0  0  0  0
    8.3861    5.9134  -12.9717 O   0  0  0  0  0  0  0  0  0  0  0  0
    9.3639    5.9301  -11.9434 C   0  0  0  0  0  0  0  0  0  0  0  0
    8.8356    6.6637  -10.7066 C   0  0  0  0  0  0  0  0  0  0  0  0
    9.8918    6.6869   -9.7028 N   0  0  0  0  0  0  0  0  0  0  0  0
   10.4473    8.0347   -9.5534 C   0  0  0  0  0  0  0  0  0  0  0  0
   11.6544    7.9812   -8.5968 C   0  0  0  0  0  0  0  0  0  0  0  0
   11.2744    7.3695   -7.3232 N   0  0  0  0  0  0  0  0  0  0  0  0
   11.2860    8.0749   -6.1117 C   0  0  0  0  0  0  0  0  0  0  0  0
   11.0828    9.4703   -6.0820 C   0  0  0  0  0  0  0  0  0  0  0  0
   11.1717   10.1719   -4.8710 C   0  0  0  0  0  0  0  0  0  0  0  0
   11.4976    9.4984   -3.6802 C   0  0  0  0  0  0  0  0  0  0  0  0
   11.6865    8.1021   -3.6864 C   0  0  0  0  0  0  0  0  0  0  0  0
   12.0071    7.3597   -2.3973 C   0  0  0  0  0  0  0  0  0  0  0  0
   12.6037    8.1741   -1.5260 F   0  0  0  0  0  0  0  0  0  0  0  0
   10.8876    6.8871   -1.8471 F   0  0  0  0  0  0  0  0  0  0  0  0
   12.8212    6.3365   -2.6466 F   0  0  0  0  0  0  0  0  0  0  0  0
   11.5571    7.3959   -4.8996 C   0  0  0  0  0  0  0  0  0  0  0  0
   10.5555    6.1079   -7.4300 C   0  0  0  0  0  0  0  0  0  0  0  0
    9.3769    6.2437   -8.4076 C   0  0  0  0  0  0  0  0  0  0  0  0
   12.0843    3.3203  -16.4812 C   0  0  0  0  0  0  0  0  0  0  0  0
   13.5932    1.4505  -19.5799 H   0  0  0  0  0  0  0  0  0  0  0  0
   13.2840    1.1755  -17.8667 H   0  0  0  0  0  0  0  0  0  0  0  0
   12.0231    1.8755  -18.9131 H   0  0  0  0  0  0  0  0  0  0  0  0
   14.5002    5.4398  -17.6317 H   0  0  0  0  0  0  0  0  0  0  0  0
   13.7813    6.7223  -15.6317 H   0  0  0  0  0  0  0  0  0  0  0  0
   11.9764    5.8467  -14.1730 H   0  0  0  0  0  0  0  0  0  0  0  0
   10.6968    3.8855  -13.4610 H   0  0  0  0  0  0  0  0  0  0  0  0
   10.5313    2.4589  -14.4519 H   0  0  0  0  0  0  0  0  0  0  0  0
    8.9734    3.6286  -15.9826 H   0  0  0  0  0  0  0  0  0  0  0  0
    9.2430    5.1493  -15.1837 H   0  0  0  0  0  0  0  0  0  0  0  0
    7.4711    1.9314  -15.0138 H   0  0  0  0  0  0  0  0  0  0  0  0
    5.4697    1.5707  -13.5930 H   0  0  0  0  0  0  0  0  0  0  0  0
    4.8862    3.2142  -11.8272 H   0  0  0  0  0  0  0  0  0  0  0  0
    6.2751    5.2366  -11.4794 H   0  0  0  0  0  0  0  0  0  0  0  0
    9.6786    4.9194  -11.6730 H   0  0  0  0  0  0  0  0  0  0  0  0
   10.2461    6.4406  -12.3315 H   0  0  0  0  0  0  0  0  0  0  0  0
    8.4879    7.6652  -10.9685 H   0  0  0  0  0  0  0  0  0  0  0  0
    7.9563    6.1435  -10.3259 H   0  0  0  0  0  0  0  0  0  0  0  0
   10.7683    8.4142  -10.5243 H   0  0  0  0  0  0  0  0  0  0  0  0
    9.6852    8.7195   -9.1761 H   0  0  0  0  0  0  0  0  0  0  0  0
   12.4399    7.3724   -9.0472 H   0  0  0  0  0  0  0  0  0  0  0  0
   12.0875    8.9723   -8.4637 H   0  0  0  0  0  0  0  0  0  0  0  0
   10.8501   10.0145   -6.9850 H   0  0  0  0  0  0  0  0  0  0  0  0
   11.0045   11.2372   -4.8639 H   0  0  0  0  0  0  0  0  0  0  0  0
   11.5822   10.0573   -2.7605 H   0  0  0  0  0  0  0  0  0  0  0  0
   11.7131    6.3255   -4.9035 H   0  0  0  0  0  0  0  0  0  0  0  0
   11.2495    5.3481   -7.7824 H   0  0  0  0  0  0  0  0  0  0  0  0
   10.1784    5.7724   -6.4654 H   0  0  0  0  0  0  0  0  0  0  0  0
    8.6258    6.9394   -8.0278 H   0  0  0  0  0  0  0  0  0  0  0  0
    8.8896    5.2736   -8.5140 H   0  0  0  0  0  0  0  0  0  0  0  0
   11.5922    2.3829  -16.6904 H   0  0  0  0  0  0  0  0  0  0  0  0
  2  1  1  0
  3  2  1  0
  4  3  1  0
  5  4  2  0
  6  5  1  0
  7  6  2  0
  8  7  1  0
  9  8  1  0
 10  9  1  0
 11 10  2  0
 12 11  1  0
 13 12  2  0
 14 13  1  0
 15 10  1  0
 15 14  2  0
 16 15  1  0
 17 16  1  0
 18 17  1  0
 19 18  1  0
 20 19  1  0
 21 20  1  0
 22 21  1  0
 23 22  1  0
 24 23  1  0
 25 24  2  0
 26 25  1  0
 27 26  2  0
 28 27  1  0
 29 28  1  0
 30 28  1  0
 31 28  1  0
 32 23  2  0
 32 27  1  0
 33 22  1  0
 34 19  1  0
 34 33  1  0
 35  3  2  0
 35  7  1  0
 36  1  1  0
 37  1  1  0
 38  1  1  0
 39  4  1  0
 40  5  1  0
 41  6  1  0
 42  8  1  0
 43  8  1  0
 44  9  1  0
 45  9  1  0
 46 11  1  0
 47 12  1  0
 48 13  1  0
 49 14  1  0
 50 17  1  0
 51 17  1  0
 52 18  1  0
 53 18  1  0
 54 20  1  0
 55 20  1  0
 56 21  1  0
 57 21  1  0
 58 24  1  0
 59 25  1  0
 60 26  1  0
 61 32  1  0
 62 33  1  0
 63 33  1  0
 64 34  1  0
 65 34  1  0
 66 35  1  0
M  END
>  <b_m_subgroup_collapsed>  (692) 
0

>  <r_i_docking_score>  (692) 
-7.5141014198669902

>  <s_m_subgroup_title>  (692) 
glide-dock_SP_D22_pv

>  <s_m_subgroupid>  (692) 
glide-dock_SP_D22_pv

>  <Molecule ChEMBL ID>  (692) 
CHEMBL457891

>  <Standard Type>  (692) 
Ki

>  <Standard Value>  (692) 
1000000.0

>  <label>  (692) 
0

$$$$
CHEMBL601635
     RDKit          3D

 70 75  0  0  1  0  0  0  0  0999 V2000
    9.0015   -0.5528  -17.8085 C   0  0  0  0  0  0  0  0  0  0  0  0
    9.0895    0.8530  -17.3392 N   0  0  1  0  0  0  0  0  0  0  0  0
    9.1724    1.7958  -18.4895 C   0  0  0  0  0  0  0  0  0  0  0  0
    9.0997    3.2852  -18.0986 C   0  0  0  0  0  0  0  0  0  0  0  0
   10.0658    3.6453  -16.9807 C   0  0  0  0  0  0  0  0  0  0  0  0
   11.1178    4.5450  -17.2664 C   0  0  0  0  0  0  0  0  0  0  0  0
   12.0683    4.8843  -16.2860 C   0  0  0  0  0  0  0  0  0  0  0  0
   13.3286    6.0090  -16.6522 Cl  0  0  0  0  0  0  0  0  0  0  0  0
   11.9852    4.2961  -15.0120 C   0  0  0  0  0  0  0  0  0  0  0  0
   12.8854    4.6052  -14.0352 O   0  0  0  0  0  0  0  0  0  0  0  0
   10.9531    3.3904  -14.7232 C   0  0  0  0  0  0  0  0  0  0  0  0
    9.9575    3.0840  -15.6784 C   0  0  0  0  0  0  0  0  0  0  0  0
    8.8290    2.1433  -15.2155 C   0  0  1  0  0  0  0  0  0  0  0  0
    7.8063    2.7711  -14.2570 C   0  0  0  0  0  0  0  0  0  0  0  0
    8.0278    4.0325  -13.6481 C   0  0  0  0  0  0  0  0  0  0  0  0
    7.1191    4.5596  -12.7098 C   0  0  0  0  0  0  0  0  0  0  0  0
    7.3728    5.9179  -12.0664 C   0  0  0  0  0  0  0  0  0  0  0  0
    8.6182    5.9903  -11.2493 N   0  0  0  0  0  0  0  0  0  0  0  0
    9.2120    7.3584  -11.2493 C   0  0  0  0  0  0  0  0  0  0  0  0
   10.4845    7.4681  -10.3812 C   0  0  0  0  0  0  0  0  0  0  0  0
   10.2776    6.8843   -9.0569 N   0  0  0  0  0  0  0  0  0  0  0  0
   10.6930    7.5414   -7.8764 C   0  0  0  0  0  0  0  0  0  0  0  0
   10.8915    6.8380   -6.6611 C   0  0  0  0  0  0  0  0  0  0  0  0
   11.2834    7.5357   -5.5032 C   0  0  0  0  0  0  0  0  0  0  0  0
   11.4830    8.9224   -5.5853 C   0  0  0  0  0  0  0  0  0  0  0  0
   11.2841    9.5392   -6.8316 C   0  0  0  0  0  0  0  0  0  0  0  0
   10.8974    8.8785   -7.9445 N   0  0  0  0  0  0  0  0  0  0  0  0
    9.7069    5.5366   -9.0364 C   0  0  0  0  0  0  0  0  0  0  0  0
    8.4167    5.4896   -9.8660 C   0  0  0  0  0  0  0  0  0  0  0  0
    5.9464    3.8397  -12.4118 C   0  0  0  0  0  0  0  0  0  0  0  0
    5.6864    2.6071  -13.0405 C   0  0  0  0  0  0  0  0  0  0  0  0
    6.6221    2.0501  -13.9401 C   0  0  0  0  0  0  0  0  0  0  0  0
    6.3429    0.6670  -14.5262 C   0  0  0  0  0  0  0  0  0  0  0  0
    7.3790    0.1486  -15.5483 C   0  0  0  0  0  0  0  0  0  0  0  0
    8.1108    1.2914  -16.2931 C   0  0  2  0  0  0  0  0  0  0  0  0
    8.0118   -0.7907  -18.2013 H   0  0  0  0  0  0  0  0  0  0  0  0
    9.7238   -0.7365  -18.6057 H   0  0  0  0  0  0  0  0  0  0  0  0
    9.2487   -1.2517  -17.0134 H   0  0  0  0  0  0  0  0  0  0  0  0
    8.3801    1.5777  -19.2069 H   0  0  0  0  0  0  0  0  0  0  0  0
   10.1164    1.6109  -19.0051 H   0  0  0  0  0  0  0  0  0  0  0  0
    8.0863    3.5887  -17.8426 H   0  0  0  0  0  0  0  0  0  0  0  0
    9.3383    3.8793  -18.9823 H   0  0  0  0  0  0  0  0  0  0  0  0
   11.2073    4.9882  -18.2482 H   0  0  0  0  0  0  0  0  0  0  0  0
   13.4931    5.2948  -14.2722 H   0  0  0  0  0  0  0  0  0  0  0  0
   10.8994    2.9523  -13.7380 H   0  0  0  0  0  0  0  0  0  0  0  0
    9.3610    1.4260  -14.5856 H   0  0  0  0  0  0  0  0  0  0  0  0
    8.8989    4.6251  -13.8844 H   0  0  0  0  0  0  0  0  0  0  0  0
    7.4037    6.6532  -12.8725 H   0  0  0  0  0  0  0  0  0  0  0  0
    6.5075    6.1713  -11.4546 H   0  0  0  0  0  0  0  0  0  0  0  0
    9.4466    7.6602  -12.2722 H   0  0  0  0  0  0  0  0  0  0  0  0
    8.4862    8.0789  -10.8804 H   0  0  0  0  0  0  0  0  0  0  0  0
   11.3117    6.9445  -10.8573 H   0  0  0  0  0  0  0  0  0  0  0  0
   10.7863    8.5138  -10.3333 H   0  0  0  0  0  0  0  0  0  0  0  0
   10.7663    5.7738   -6.5873 H   0  0  0  0  0  0  0  0  0  0  0  0
   11.4367    7.0120   -4.5703 H   0  0  0  0  0  0  0  0  0  0  0  0
   11.7913    9.4976   -4.7242 H   0  0  0  0  0  0  0  0  0  0  0  0
   11.4324   10.6031   -6.9337 H   0  0  0  0  0  0  0  0  0  0  0  0
   10.4362    4.8286   -9.4265 H   0  0  0  0  0  0  0  0  0  0  0  0
    9.4514    5.2121   -8.0292 H   0  0  0  0  0  0  0  0  0  0  0  0
    7.6854    6.1257   -9.3720 H   0  0  0  0  0  0  0  0  0  0  0  0
    8.0208    4.4736   -9.8836 H   0  0  0  0  0  0  0  0  0  0  0  0
    5.2378    4.2327  -11.6990 H   0  0  0  0  0  0  0  0  0  0  0  0
    4.7810    2.0703  -12.7984 H   0  0  0  0  0  0  0  0  0  0  0  0
    5.3593    0.6782  -14.9957 H   0  0  0  0  0  0  0  0  0  0  0  0
    6.2592   -0.0472  -13.7060 H   0  0  0  0  0  0  0  0  0  0  0  0
    6.8696   -0.5341  -16.2293 H   0  0  0  0  0  0  0  0  0  0  0  0
    8.1135   -0.4552  -15.0125 H   0  0  0  0  0  0  0  0  0  0  0  0
    7.3238    1.8697  -16.7769 H   0  0  0  0  0  0  0  0  0  0  0  0
    9.9867    0.9184  -16.8783 H   0  0  0  0  0  0  0  0  0  0  0  0
    9.2891    5.3837  -11.6927 H   0  0  0  0  0  0  0  0  0  0  0  0
  2  1  1  0
  3  2  1  0
  4  3  1  0
  5  4  1  0
  6  5  1  0
  7  6  2  0
  8  7  1  0
  9  7  1  0
 10  9  1  0
 11  9  2  0
 12  5  2  0
 12 11  1  0
 13 12  1  0
 14 13  1  0
 15 14  1  0
 16 15  2  0
 17 16  1  0
 18 17  1  0
 19 18  1  0
 20 19  1  0
 21 20  1  0
 22 21  1  0
 23 22  2  0
 24 23  1  0
 25 24  2  0
 26 25  1  0
 27 22  1  0
 27 26  2  0
 28 21  1  0
 29 18  1  0
 29 28  1  0
 30 16  1  0
 31 30  2  0
 32 14  2  0
 32 31  1  0
 33 32  1  0
 34 33  1  0
 35  2  1  0
 35 13  1  0
 35 34  1  0
 36  1  1  0
 37  1  1  0
 38  1  1  0
 39  3  1  0
 40  3  1  0
 41  4  1  0
 42  4  1  0
 43  6  1  0
 44 10  1  0
 45 11  1  0
 13 46  1  1
 47 15  1  0
 48 17  1  0
 49 17  1  0
 50 19  1  0
 51 19  1  0
 52 20  1  0
 53 20  1  0
 54 23  1  0
 55 24  1  0
 56 25  1  0
 57 26  1  0
 58 28  1  0
 59 28  1  0
 60 29  1  0
 61 29  1  0
 62 30  1  0
 63 31  1  0
 64 33  1  0
 65 33  1  0
 66 34  1  0
 67 34  1  0
 35 68  1  6
  2 69  1  1
 70 18  1  0
M  CHG  2   2   1  18   1
M  END
>  <b_m_subgroup_collapsed>  (693) 
0

>  <r_i_docking_score>  (693) 
-7.5133104163224997

>  <s_m_subgroup_title>  (693) 
glide-dock_SP_D22_pv

>  <s_m_subgroupid>  (693) 
glide-dock_SP_D22_pv

>  <Molecule ChEMBL ID>  (693) 
CHEMBL601635

>  <Standard Type>  (693) 
Ki

>  <Standard Value>  (693) 
1.3

>  <label>  (693) 
1

$$$$
CHEMBL1774062
     RDKit          3D

 59 62  0  0  1  0  0  0  0  0999 V2000
   12.8860    5.7766   -1.8470 O   0  0  0  0  0  0  0  0  0  0  0  0
   12.4860    6.7826   -2.4176 C   0  0  0  0  0  0  0  0  0  0  0  0
   12.4566    8.1394   -1.6921 C   0  0  0  0  0  0  0  0  0  0  0  0
   12.4277    9.3627   -2.6170 C   0  0  0  0  0  0  0  0  0  0  0  0
   11.7673    9.1017   -3.9462 C   0  0  0  0  0  0  0  0  0  0  0  0
   11.2865   10.1685   -4.7200 C   0  0  0  0  0  0  0  0  0  0  0  0
   10.8237    9.8972   -6.0059 C   0  0  0  0  0  0  0  0  0  0  0  0
   10.7597    8.5611   -6.4180 C   0  0  0  0  0  0  0  0  0  0  0  0
   10.2115    8.2145   -7.7599 C   0  0  0  0  0  0  0  0  0  0  0  0
   11.2904    8.3275   -8.8390 C   0  0  0  0  0  0  0  0  0  0  0  0
   10.8054    7.7251  -10.1488 C   0  0  0  0  0  0  0  0  0  0  0  0
    9.4357    8.2881  -10.5515 C   0  0  0  0  0  0  0  0  0  0  0  0
    9.0009    7.9126  -11.9542 C   0  0  0  0  0  0  0  0  0  0  0  0
    8.4992    6.5174  -12.0243 N   0  0  0  0  0  0  0  0  0  0  0  0
    7.3113    6.4379  -12.8964 C   0  0  0  0  0  0  0  0  0  0  0  0
    6.7590    5.0067  -13.0250 C   0  0  0  0  0  0  0  0  0  0  0  0
    7.8251    4.0886  -13.4016 N   0  0  0  0  0  0  0  0  0  0  0  0
    7.5831    2.8878  -14.1010 C   0  0  0  0  0  0  0  0  0  0  0  0
    8.5405    2.5105  -15.0703 C   0  0  0  0  0  0  0  0  0  0  0  0
    8.4229    1.3024  -15.7799 C   0  0  0  0  0  0  0  0  0  0  0  0
    7.3429    0.4434  -15.5220 C   0  0  0  0  0  0  0  0  0  0  0  0
    6.3805    0.7939  -14.5589 C   0  0  0  0  0  0  0  0  0  0  0  0
    5.0704   -0.2930  -14.2557 Cl  0  0  0  0  0  0  0  0  0  0  0  0
    6.4852    2.0136  -13.8493 C   0  0  0  0  0  0  0  0  0  0  0  0
    5.2860    2.3544  -12.6465 Cl  0  0  0  0  0  0  0  0  0  0  0  0
    9.0015    4.1188  -12.5442 C   0  0  0  0  0  0  0  0  0  0  0  0
    9.5476    5.5495  -12.4593 C   0  0  0  0  0  0  0  0  0  0  0  0
   11.1844    7.5272   -5.6784 N   0  0  0  0  0  0  0  0  0  0  0  0
   11.6824    7.7892   -4.4629 C   0  0  0  0  0  0  0  0  0  0  0  0
   12.0857    6.7089   -3.6812 N   0  0  0  0  0  0  0  0  0  0  0  0
   13.2855    8.2175   -0.9903 H   0  0  0  0  0  0  0  0  0  0  0  0
   11.5574    8.1721   -1.0870 H   0  0  0  0  0  0  0  0  0  0  0  0
   13.4276    9.7347   -2.8143 H   0  0  0  0  0  0  0  0  0  0  0  0
   11.9029   10.1723   -2.1214 H   0  0  0  0  0  0  0  0  0  0  0  0
   11.2858   11.1794   -4.3581 H   0  0  0  0  0  0  0  0  0  0  0  0
   10.4867   10.6938   -6.6459 H   0  0  0  0  0  0  0  0  0  0  0  0
    9.8017    7.2029   -7.7287 H   0  0  0  0  0  0  0  0  0  0  0  0
    9.3751    8.8867   -7.9557 H   0  0  0  0  0  0  0  0  0  0  0  0
   11.5710    9.3721   -8.9787 H   0  0  0  0  0  0  0  0  0  0  0  0
   12.1932    7.8029   -8.5232 H   0  0  0  0  0  0  0  0  0  0  0  0
   11.5462    7.9069  -10.9284 H   0  0  0  0  0  0  0  0  0  0  0  0
   10.7408    6.6480  -10.0075 H   0  0  0  0  0  0  0  0  0  0  0  0
    8.6626    7.9663   -9.8556 H   0  0  0  0  0  0  0  0  0  0  0  0
    9.4667    9.3722  -10.4791 H   0  0  0  0  0  0  0  0  0  0  0  0
    8.2087    8.6091  -12.2366 H   0  0  0  0  0  0  0  0  0  0  0  0
    9.8205    8.0870  -12.6469 H   0  0  0  0  0  0  0  0  0  0  0  0
    6.5245    7.1141  -12.5585 H   0  0  0  0  0  0  0  0  0  0  0  0
    7.6860    6.8012  -13.8468 H   0  0  0  0  0  0  0  0  0  0  0  0
    6.3422    4.7073  -12.0622 H   0  0  0  0  0  0  0  0  0  0  0  0
    5.9522    4.9727  -13.7584 H   0  0  0  0  0  0  0  0  0  0  0  0
    9.3841    3.1542  -15.2739 H   0  0  0  0  0  0  0  0  0  0  0  0
    9.1661    1.0298  -16.5152 H   0  0  0  0  0  0  0  0  0  0  0  0
    7.2574   -0.4928  -16.0557 H   0  0  0  0  0  0  0  0  0  0  0  0
    8.7211    3.7725  -11.5495 H   0  0  0  0  0  0  0  0  0  0  0  0
    9.7779    3.4418  -12.9031 H   0  0  0  0  0  0  0  0  0  0  0  0
    9.9223    5.8412  -13.4418 H   0  0  0  0  0  0  0  0  0  0  0  0
   10.4063    5.5632  -11.7977 H   0  0  0  0  0  0  0  0  0  0  0  0
   12.0545    5.7983   -4.1144 H   0  0  0  0  0  0  0  0  0  0  0  0
    8.1741    6.2714  -11.0976 H   0  0  0  0  0  0  0  0  0  0  0  0
  2  1  2  0
  3  2  1  0
  4  3  1  0
  5  4  1  0
  6  5  2  0
  7  6  1  0
  8  7  2  0
  9  8  1  0
 10  9  1  0
 11 10  1  0
 12 11  1  0
 13 12  1  0
 14 13  1  0
 15 14  1  0
 16 15  1  0
 17 16  1  0
 18 17  1  0
 19 18  2  0
 20 19  1  0
 21 20  2  0
 22 21  1  0
 23 22  1  0
 24 18  1  0
 24 22  2  0
 25 24  1  0
 26 17  1  0
 27 14  1  0
 27 26  1  0
 28  8  1  0
 29  5  1  0
 29 28  2  0
 30  2  1  0
 30 29  1  0
 31  3  1  0
 32  3  1  0
 33  4  1  0
 34  4  1  0
 35  6  1  0
 36  7  1  0
 37  9  1  0
 38  9  1  0
 39 10  1  0
 40 10  1  0
 41 11  1  0
 42 11  1  0
 43 12  1  0
 44 12  1  0
 45 13  1  0
 46 13  1  0
 47 15  1  0
 48 15  1  0
 49 16  1  0
 50 16  1  0
 51 19  1  0
 52 20  1  0
 53 21  1  0
 54 26  1  0
 55 26  1  0
 56 27  1  0
 57 27  1  0
 58 30  1  0
 59 14  1  0
M  CHG  1  14   1
M  END
>  <b_m_subgroup_collapsed>  (694) 
0

>  <r_i_docking_score>  (694) 
-7.5122541360957502

>  <s_m_subgroup_title>  (694) 
glide-dock_SP_D22_pv

>  <s_m_subgroupid>  (694) 
glide-dock_SP_D22_pv

>  <Molecule ChEMBL ID>  (694) 
CHEMBL1774062

>  <Standard Type>  (694) 
Ki

>  <Standard Value>  (694) 
2.6

>  <label>  (694) 
1

$$$$
CHEMBL4777055
     RDKit          3D

 55 58  0  0  1  0  0  0  0  0999 V2000
    5.0937   -2.2814  -15.8870 C   0  0  0  0  0  0  0  0  0  0  0  0
    5.0126   -1.0204  -15.0386 C   0  0  0  0  0  0  0  0  0  0  0  0
    3.9263   -0.6770  -14.5683 O   0  0  0  0  0  0  0  0  0  0  0  0
    6.1785   -0.3851  -14.8263 N   0  0  0  0  0  0  0  0  0  0  0  0
    6.3870    0.9176  -14.2929 C   0  0  0  0  0  0  0  0  0  0  0  0
    5.4640    1.5756  -13.4448 C   0  0  0  0  0  0  0  0  0  0  0  0
    5.6879    2.9052  -13.0459 C   0  0  0  0  0  0  0  0  0  0  0  0
    6.8482    3.5961  -13.4523 C   0  0  0  0  0  0  0  0  0  0  0  0
    6.9522    4.9092  -13.0468 O   0  0  0  0  0  0  0  0  0  0  0  0
    8.1266    5.6584  -13.3455 C   0  0  0  0  0  0  0  0  0  0  0  0
    9.1775    5.4884  -12.2388 C   0  0  0  0  0  0  0  0  0  0  0  0
    8.6190    5.9642  -10.8883 C   0  0  0  0  0  0  0  0  0  0  0  0
    9.6679    6.1589   -9.8895 N   0  0  0  0  0  0  0  0  0  0  0  0
   10.1508    7.5399   -9.9859 C   0  0  0  0  0  0  0  0  0  0  0  0
   11.3101    7.7361   -9.0078 C   0  0  0  0  0  0  0  0  0  0  0  0
   10.8953    7.4485   -7.6386 N   0  0  0  0  0  0  0  0  0  0  0  0
   11.0736    8.3802   -6.5917 C   0  0  0  0  0  0  0  0  0  0  0  0
   10.9758    9.6623   -6.8636 N   0  0  0  0  0  0  0  0  0  0  0  0
   11.2854   10.5716   -5.5050 S   0  0  0  0  0  0  0  0  0  0  0  0
   11.6313    9.2191   -4.4649 C   0  0  0  0  0  0  0  0  0  0  0  0
   12.0288    9.2074   -3.1158 C   0  0  0  0  0  0  0  0  0  0  0  0
   12.2547    7.9800   -2.4760 C   0  0  0  0  0  0  0  0  0  0  0  0
   12.0859    6.7805   -3.1892 C   0  0  0  0  0  0  0  0  0  0  0  0
   11.6851    6.8070   -4.5409 C   0  0  0  0  0  0  0  0  0  0  0  0
   11.4382    8.0256   -5.2236 C   0  0  0  0  0  0  0  0  0  0  0  0
   10.2114    6.1728   -7.4726 C   0  0  0  0  0  0  0  0  0  0  0  0
    9.1099    5.9938   -8.5419 C   0  0  0  0  0  0  0  0  0  0  0  0
    7.8040    2.9146  -14.2462 C   0  0  0  0  0  0  0  0  0  0  0  0
    7.5730    1.5874  -14.6586 C   0  0  0  0  0  0  0  0  0  0  0  0
    5.6116   -2.0817  -16.8255 H   0  0  0  0  0  0  0  0  0  0  0  0
    5.6274   -3.0739  -15.3612 H   0  0  0  0  0  0  0  0  0  0  0  0
    4.0874   -2.6276  -16.1220 H   0  0  0  0  0  0  0  0  0  0  0  0
    6.9865   -0.8236  -15.2527 H   0  0  0  0  0  0  0  0  0  0  0  0
    4.5553    1.0978  -13.1109 H   0  0  0  0  0  0  0  0  0  0  0  0
    4.9594    3.4109  -12.4258 H   0  0  0  0  0  0  0  0  0  0  0  0
    8.5345    5.4435  -14.3337 H   0  0  0  0  0  0  0  0  0  0  0  0
    7.8286    6.7068  -13.3881 H   0  0  0  0  0  0  0  0  0  0  0  0
    9.4979    4.4471  -12.1647 H   0  0  0  0  0  0  0  0  0  0  0  0
   10.0586    6.0703  -12.5089 H   0  0  0  0  0  0  0  0  0  0  0  0
    8.0896    6.9020  -11.0423 H   0  0  0  0  0  0  0  0  0  0  0  0
    7.8844    5.2362  -10.5419 H   0  0  0  0  0  0  0  0  0  0  0  0
   10.5005    7.7479  -10.9971 H   0  0  0  0  0  0  0  0  0  0  0  0
    9.3503    8.2520   -9.7721 H   0  0  0  0  0  0  0  0  0  0  0  0
   12.0930    7.0413   -9.2906 H   0  0  0  0  0  0  0  0  0  0  0  0
   11.7274    8.7372   -9.1054 H   0  0  0  0  0  0  0  0  0  0  0  0
   12.1609   10.1348   -2.5800 H   0  0  0  0  0  0  0  0  0  0  0  0
   12.5528    7.9569   -1.4380 H   0  0  0  0  0  0  0  0  0  0  0  0
   12.2540    5.8299   -2.7000 H   0  0  0  0  0  0  0  0  0  0  0  0
   11.5776    5.8742   -5.0704 H   0  0  0  0  0  0  0  0  0  0  0  0
   10.9485    5.3734   -7.5431 H   0  0  0  0  0  0  0  0  0  0  0  0
    9.7555    6.1252   -6.4833 H   0  0  0  0  0  0  0  0  0  0  0  0
    8.3025    6.7107   -8.3789 H   0  0  0  0  0  0  0  0  0  0  0  0
    8.6737    5.0006   -8.4420 H   0  0  0  0  0  0  0  0  0  0  0  0
    8.7205    3.3876  -14.5610 H   0  0  0  0  0  0  0  0  0  0  0  0
    8.3013    1.0987  -15.2895 H   0  0  0  0  0  0  0  0  0  0  0  0
  2  1  1  0
  3  2  2  0
  4  2  1  0
  5  4  1  0
  6  5  1  0
  7  6  2  0
  8  7  1  0
  9  8  1  0
 10  9  1  0
 11 10  1  0
 12 11  1  0
 13 12  1  0
 14 13  1  0
 15 14  1  0
 16 15  1  0
 17 16  1  0
 18 17  2  0
 19 18  1  0
 20 19  1  0
 21 20  2  0
 22 21  1  0
 23 22  2  0
 24 23  1  0
 25 17  1  0
 25 20  1  0
 25 24  2  0
 26 16  1  0
 27 13  1  0
 27 26  1  0
 28  8  2  0
 29  5  2  0
 29 28  1  0
 30  1  1  0
 31  1  1  0
 32  1  1  0
 33  4  1  0
 34  6  1  0
 35  7  1  0
 36 10  1  0
 37 10  1  0
 38 11  1  0
 39 11  1  0
 40 12  1  0
 41 12  1  0
 42 14  1  0
 43 14  1  0
 44 15  1  0
 45 15  1  0
 46 21  1  0
 47 22  1  0
 48 23  1  0
 49 24  1  0
 50 26  1  0
 51 26  1  0
 52 27  1  0
 53 27  1  0
 54 28  1  0
 55 29  1  0
M  END
>  <b_m_subgroup_collapsed>  (695) 
0

>  <r_i_docking_score>  (695) 
-7.51027034611948

>  <s_m_subgroup_title>  (695) 
glide-dock_SP_D22_pv

>  <s_m_subgroupid>  (695) 
glide-dock_SP_D22_pv

>  <Molecule ChEMBL ID>  (695) 
CHEMBL4777055

>  <Standard Type>  (695) 
Ki

>  <Standard Value>  (695) 
79.1

>  <label>  (695) 
1

$$$$
CHEMBL275379
     RDKit          3D

 40 43  0  0  1  0  0  0  0  0999 V2000
   12.8386    6.0465  -15.4155 C   0  0  0  0  0  0  0  0  0  0  0  0
   11.8557    6.0487  -14.2624 C   0  0  0  0  0  0  0  0  0  0  0  0
   11.9438    7.0216  -13.2492 C   0  0  0  0  0  0  0  0  0  0  0  0
   11.0682    7.1055  -12.2251 N   0  0  0  0  0  0  0  0  0  0  0  0
   10.0860    6.1839  -12.1528 C   0  0  0  0  0  0  0  0  0  0  0  0
    9.9452    5.1287  -13.0792 C   0  0  0  0  0  0  0  0  0  0  0  0
   10.8284    5.0899  -14.1823 C   0  0  0  0  0  0  0  0  0  0  0  0
    8.8168    4.1387  -12.8165 C   0  0  2  0  0  0  0  0  0  0  0  0
    8.5824    3.0211  -13.8469 C   0  0  0  0  0  0  0  0  0  0  0  0
    9.6506    2.1794  -14.2469 C   0  0  0  0  0  0  0  0  0  0  0  0
    9.4395    1.0767  -15.0997 C   0  0  0  0  0  0  0  0  0  0  0  0
   10.4859    0.2722  -15.4562 O   0  0  0  0  0  0  0  0  0  0  0  0
    8.1411    0.8114  -15.5749 C   0  0  0  0  0  0  0  0  0  0  0  0
    7.8821   -0.2277  -16.4201 O   0  0  0  0  0  0  0  0  0  0  0  0
    7.0723    1.6184  -15.1584 C   0  0  0  0  0  0  0  0  0  0  0  0
    7.2700    2.6957  -14.2724 C   0  0  0  0  0  0  0  0  0  0  0  0
    6.0500    3.4415  -13.7552 C   0  0  0  0  0  0  0  0  0  0  0  0
    6.2915    4.1278  -12.4057 C   0  0  0  0  0  0  0  0  0  0  0  0
    7.5613    4.9790  -12.4638 C   0  0  1  0  0  0  0  0  0  0  0  0
    7.7611    5.7723  -11.2196 N   0  0  0  0  0  0  0  0  0  0  0  0
    9.1289    6.3030  -10.9689 C   0  0  0  0  0  0  0  0  0  0  0  0
   12.7293    5.1532  -16.0323 H   0  0  0  0  0  0  0  0  0  0  0  0
   13.8640    6.0788  -15.0469 H   0  0  0  0  0  0  0  0  0  0  0  0
   12.6773    6.9200  -16.0481 H   0  0  0  0  0  0  0  0  0  0  0  0
   12.7198    7.7722  -13.2744 H   0  0  0  0  0  0  0  0  0  0  0  0
   10.7403    4.3537  -14.9647 H   0  0  0  0  0  0  0  0  0  0  0  0
    9.1155    3.5978  -11.9179 H   0  0  0  0  0  0  0  0  0  0  0  0
   10.6410    2.3564  -13.8547 H   0  0  0  0  0  0  0  0  0  0  0  0
   11.3242    0.5907  -15.1588 H   0  0  0  0  0  0  0  0  0  0  0  0
    8.0863   -1.0886  -16.0620 H   0  0  0  0  0  0  0  0  0  0  0  0
    6.0860    1.3699  -15.5054 H   0  0  0  0  0  0  0  0  0  0  0  0
    5.7479    4.1730  -14.5045 H   0  0  0  0  0  0  0  0  0  0  0  0
    5.2211    2.7401  -13.6512 H   0  0  0  0  0  0  0  0  0  0  0  0
    5.4262    4.7360  -12.1400 H   0  0  0  0  0  0  0  0  0  0  0  0
    6.3902    3.3741  -11.6228 H   0  0  0  0  0  0  0  0  0  0  0  0
    7.4127    5.7028  -13.2674 H   0  0  0  0  0  0  0  0  0  0  0  0
    7.1267    6.5743  -11.1781 H   0  0  0  0  0  0  0  0  0  0  0  0
    9.5608    5.7563  -10.1290 H   0  0  0  0  0  0  0  0  0  0  0  0
    9.0429    7.3452  -10.6545 H   0  0  0  0  0  0  0  0  0  0  0  0
    7.5148    5.1907  -10.4298 H   0  0  0  0  0  0  0  0  0  0  0  0
  2  1  1  0
  3  2  1  0
  4  3  2  0
  5  4  1  0
  6  5  2  0
  7  2  2  0
  7  6  1  0
  8  6  1  0
  9  8  1  0
 10  9  1  0
 11 10  2  0
 12 11  1  0
 13 11  1  0
 14 13  1  0
 15 13  2  0
 16  9  2  0
 16 15  1  0
 17 16  1  0
 18 17  1  0
 19  8  1  0
 19 18  1  0
 20 19  1  0
 21  5  1  0
 21 20  1  0
 22  1  1  0
 23  1  1  0
 24  1  1  0
 25  3  1  0
 26  7  1  0
  8 27  1  1
 28 10  1  0
 29 12  1  0
 30 14  1  0
 31 15  1  0
 32 17  1  0
 33 17  1  0
 34 18  1  0
 35 18  1  0
 19 36  1  6
 37 20  1  0
 38 21  1  0
 39 21  1  0
 40 20  1  0
M  CHG  1  20   1
M  END
>  <b_m_subgroup_collapsed>  (696) 
0

>  <r_i_docking_score>  (696) 
-7.5097279820046596

>  <s_m_subgroup_title>  (696) 
glide-dock_SP_D22_pv

>  <s_m_subgroupid>  (696) 
glide-dock_SP_D22_pv

>  <Molecule ChEMBL ID>  (696) 
CHEMBL275379

>  <Standard Type>  (696) 
Ki

>  <Standard Value>  (696) 
12000.0

>  <label>  (696) 
0

$$$$
CHEMBL4464377
     RDKit          3D

 29 31  0  0  1  0  0  0  0  0999 V2000
   11.8334   10.7266   -6.2478 C   0  0  0  0  0  0  0  0  0  0  0  0
   10.9914   10.2510   -5.0781 C   0  0  0  0  0  0  0  0  0  0  0  0
   11.4235    8.9528   -4.6208 N   0  0  0  0  0  0  0  0  0  0  0  0
   12.0568    8.6914   -3.4672 C   0  0  0  0  0  0  0  0  0  0  0  0
   12.2441    7.4021   -3.2275 N   0  0  0  0  0  0  0  0  0  0  0  0
   11.6887    6.7797   -4.3425 C   0  0  0  0  0  0  0  0  0  0  0  0
   11.2349    7.7174   -5.2355 C   0  0  0  0  0  0  0  0  0  0  0  0
   10.5591    7.5400   -6.5171 C   0  0  0  0  0  0  0  0  0  0  0  0
    9.2668    7.1133   -6.6472 C   0  0  0  0  0  0  0  0  0  0  0  0
    8.8861    7.1132   -7.9696 N   0  0  0  0  0  0  0  0  0  0  0  0
    9.9535    7.4366   -8.7689 C   0  0  0  0  0  0  0  0  0  0  0  0
   10.0854    7.5188  -10.1650 C   0  0  0  0  0  0  0  0  0  0  0  0
   11.3268    7.8718  -10.7186 C   0  0  0  0  0  0  0  0  0  0  0  0
   12.4079    8.1725   -9.8713 C   0  0  0  0  0  0  0  0  0  0  0  0
   12.2599    8.1054   -8.4713 C   0  0  0  0  0  0  0  0  0  0  0  0
   11.0333    7.7181   -7.8748 C   0  0  0  0  0  0  0  0  0  0  0  0
   11.6865   11.7733   -6.4566 H   0  0  0  0  0  0  0  0  0  0  0  0
   12.8862   10.5671   -6.0564 H   0  0  0  0  0  0  0  0  0  0  0  0
   11.5612   10.2017   -7.1555 H   0  0  0  0  0  0  0  0  0  0  0  0
    9.9520   10.1724   -5.3753 H   0  0  0  0  0  0  0  0  0  0  0  0
   11.0441   10.9595   -4.2509 H   0  0  0  0  0  0  0  0  0  0  0  0
   12.3528    9.4620   -2.7691 H   0  0  0  0  0  0  0  0  0  0  0  0
   11.6821    5.7110   -4.4333 H   0  0  0  0  0  0  0  0  0  0  0  0
    8.5600    6.8425   -5.8841 H   0  0  0  0  0  0  0  0  0  0  0  0
    7.9195    6.9708   -8.2639 H   0  0  0  0  0  0  0  0  0  0  0  0
    9.2359    7.3055  -10.7997 H   0  0  0  0  0  0  0  0  0  0  0  0
   11.4456    7.9244  -11.7907 H   0  0  0  0  0  0  0  0  0  0  0  0
   13.3538    8.4754  -10.2961 H   0  0  0  0  0  0  0  0  0  0  0  0
   13.1035    8.3558   -7.8472 H   0  0  0  0  0  0  0  0  0  0  0  0
  2  1  1  0
  3  2  1  0
  4  3  1  0
  5  4  2  0
  6  5  1  0
  7  3  1  0
  7  6  2  0
  8  7  1  0
  9  8  2  0
 10  9  1  0
 11 10  1  0
 12 11  2  0
 13 12  1  0
 14 13  2  0
 15 14  1  0
 16  8  1  0
 16 11  1  0
 16 15  2  0
 17  1  1  0
 18  1  1  0
 19  1  1  0
 20  2  1  0
 21  2  1  0
 22  4  1  0
 23  6  1  0
 24  9  1  0
 25 10  1  0
 26 12  1  0
 27 13  1  0
 28 14  1  0
 29 15  1  0
M  END
>  <b_m_subgroup_collapsed>  (697) 
0

>  <r_i_docking_score>  (697) 
-7.5080666200964101

>  <s_m_subgroup_title>  (697) 
glide-dock_SP_D22_pv

>  <s_m_subgroupid>  (697) 
glide-dock_SP_D22_pv

>  <Molecule ChEMBL ID>  (697) 
CHEMBL4464377

>  <Standard Type>  (697) 
Ki

>  <Standard Value>  (697) 
10000.0

>  <label>  (697) 
0

$$$$
CHEMBL392401
     RDKit          3D

 37 40  0  0  1  0  0  0  0  0999 V2000
   10.5565    4.3837  -14.7820 O   0  0  0  0  0  0  0  0  0  0  0  0
   10.8951    5.3723  -13.9051 C   0  0  0  0  0  0  0  0  0  0  0  0
   12.0860    6.0906  -14.0931 C   0  0  0  0  0  0  0  0  0  0  0  0
   12.4454    7.0964  -13.1795 C   0  0  0  0  0  0  0  0  0  0  0  0
   11.6255    7.3723  -12.0702 C   0  0  0  0  0  0  0  0  0  0  0  0
   10.3951    6.7083  -11.8957 C   0  0  0  0  0  0  0  0  0  0  0  0
    9.4276    7.1539  -10.7879 C   0  0  1  0  0  0  0  0  0  0  0  0
    8.3247    6.1723  -10.6486 N   0  0  0  0  0  0  0  0  0  0  0  0
    8.6610    4.9974   -9.8114 C   0  0  0  0  0  0  0  0  0  0  0  0
    8.9289    5.4223   -8.3606 C   0  0  0  0  0  0  0  0  0  0  0  0
    9.7975    6.6433   -8.3113 C   0  0  0  0  0  0  0  0  0  0  0  0
   10.0205    7.4237   -9.4142 C   0  0  0  0  0  0  0  0  0  0  0  0
   10.7561    8.5400   -9.0166 N   0  0  0  0  0  0  0  0  0  0  0  0
   11.0267    8.4941   -7.6521 C   0  0  0  0  0  0  0  0  0  0  0  0
   11.6789    9.3723   -6.7545 C   0  0  0  0  0  0  0  0  0  0  0  0
   11.8093    9.0316   -5.3988 C   0  0  0  0  0  0  0  0  0  0  0  0
   11.2860    7.8160   -4.9378 C   0  0  0  0  0  0  0  0  0  0  0  0
   10.5874    6.9723   -5.8211 C   0  0  0  0  0  0  0  0  0  0  0  0
   10.4488    7.2737   -7.1954 C   0  0  0  0  0  0  0  0  0  0  0  0
   10.0471    5.6915  -12.8276 C   0  0  0  0  0  0  0  0  0  0  0  0
    9.7600    3.9258  -14.5631 H   0  0  0  0  0  0  0  0  0  0  0  0
   12.7312    5.8665  -14.9302 H   0  0  0  0  0  0  0  0  0  0  0  0
   13.3610    7.6506  -13.3232 H   0  0  0  0  0  0  0  0  0  0  0  0
   11.9277    8.1556  -11.3918 H   0  0  0  0  0  0  0  0  0  0  0  0
    8.9659    8.0749  -11.1467 H   0  0  0  0  0  0  0  0  0  0  0  0
    7.5351    6.6960  -10.2469 H   0  0  0  0  0  0  0  0  0  0  0  0
    9.5461    4.5102  -10.2235 H   0  0  0  0  0  0  0  0  0  0  0  0
    7.8554    4.2647   -9.8532 H   0  0  0  0  0  0  0  0  0  0  0  0
    9.3898    4.5855   -7.8469 H   0  0  0  0  0  0  0  0  0  0  0  0
    7.9853    5.6249   -7.8520 H   0  0  0  0  0  0  0  0  0  0  0  0
   11.0219    9.2868   -9.6424 H   0  0  0  0  0  0  0  0  0  0  0  0
   12.0860   10.3205   -7.0469 H   0  0  0  0  0  0  0  0  0  0  0  0
   12.3175    9.6984   -4.7170 H   0  0  0  0  0  0  0  0  0  0  0  0
   11.3835    7.5455   -3.8963 H   0  0  0  0  0  0  0  0  0  0  0  0
   10.1420    6.0754   -5.4297 H   0  0  0  0  0  0  0  0  0  0  0  0
    9.1212    5.1432  -12.7554 H   0  0  0  0  0  0  0  0  0  0  0  0
    8.0329    5.8755  -11.5653 H   0  0  0  0  0  0  0  0  0  0  0  0
  2  1  1  0
  3  2  1  0
  4  3  2  0
  5  4  1  0
  6  5  2  0
  7  6  1  0
  8  7  1  0
  9  8  1  0
 10  9  1  0
 11 10  1  0
 12  7  1  0
 12 11  2  0
 13 12  1  0
 14 13  1  0
 15 14  2  0
 16 15  1  0
 17 16  2  0
 18 17  1  0
 19 11  1  0
 19 14  1  0
 19 18  2  0
 20  2  2  0
 20  6  1  0
 21  1  1  0
 22  3  1  0
 23  4  1  0
 24  5  1  0
  7 25  1  6
 26  8  1  0
 27  9  1  0
 28  9  1  0
 29 10  1  0
 30 10  1  0
 31 13  1  0
 32 15  1  0
 33 16  1  0
 34 17  1  0
 35 18  1  0
 36 20  1  0
 37  8  1  0
M  CHG  1   8   1
M  END
>  <b_m_subgroup_collapsed>  (698) 
0

>  <r_i_docking_score>  (698) 
-7.5068123029446499

>  <s_m_subgroup_title>  (698) 
glide-dock_SP_D22_pv

>  <s_m_subgroupid>  (698) 
glide-dock_SP_D22_pv

>  <Molecule ChEMBL ID>  (698) 
CHEMBL392401

>  <Standard Type>  (698) 
Ki

>  <Standard Value>  (698) 
88000.0

>  <label>  (698) 
0

$$$$
CHEMBL405260
     RDKit          3D

 50 53  0  0  1  0  0  0  0  0999 V2000
   11.2818    1.7026  -15.8152 F   0  0  0  0  0  0  0  0  0  0  0  0
   10.8930    2.1344  -14.6155 C   0  0  0  0  0  0  0  0  0  0  0  0
   10.8339    3.6683  -14.6128 C   0  0  0  0  0  0  0  0  0  0  0  0
   10.3157    4.1721  -13.3866 O   0  0  0  0  0  0  0  0  0  0  0  0
    8.9456    4.2377  -13.2080 C   0  0  0  0  0  0  0  0  0  0  0  0
    8.0113    3.6416  -14.0908 C   0  0  0  0  0  0  0  0  0  0  0  0
    6.6290    3.7353  -13.8463 C   0  0  0  0  0  0  0  0  0  0  0  0
    6.1532    4.4630  -12.7461 C   0  0  0  0  0  0  0  0  0  0  0  0
    7.0678    5.0659  -11.8715 C   0  0  0  0  0  0  0  0  0  0  0  0
    8.4570    4.9232  -12.0683 C   0  0  0  0  0  0  0  0  0  0  0  0
    9.3561    5.4275  -11.1200 N   0  0  0  0  0  0  0  0  0  0  0  0
   10.0045    6.7023  -11.3993 C   0  0  0  0  0  0  0  0  0  0  0  0
    9.5065    7.7992  -10.4411 C   0  0  0  0  0  0  0  0  0  0  0  0
    9.5562    7.3313   -9.0304 N   0  0  0  0  0  0  0  0  0  0  0  0
    9.2725    8.3957   -8.0419 C   0  0  0  0  0  0  0  0  0  0  0  0
   10.1654    8.2847   -6.8341 C   0  0  0  0  0  0  0  0  0  0  0  0
   10.7043    7.1065   -6.2395 C   0  0  0  0  0  0  0  0  0  0  0  0
   11.2859    7.5302   -5.0752 C   0  0  0  0  0  0  0  0  0  0  0  0
   11.9119    6.9150   -3.9589 C   0  0  0  0  0  0  0  0  0  0  0  0
   12.3254    7.6988   -2.9052 C   0  0  0  0  0  0  0  0  0  0  0  0
   12.1237    9.1017   -2.9259 C   0  0  0  0  0  0  0  0  0  0  0  0
   11.5187    9.7007   -4.0069 C   0  0  0  0  0  0  0  0  0  0  0  0
   11.1272    8.9263   -5.0510 N   0  0  0  0  0  0  0  0  0  0  0  0
   10.4857    9.3733   -6.1690 N   0  0  0  0  0  0  0  0  0  0  0  0
    8.7337    6.1125   -8.8271 C   0  0  0  0  0  0  0  0  0  0  0  0
    9.2145    4.9834   -9.7380 C   0  0  0  0  0  0  0  0  0  0  0  0
   11.6088    1.7747  -13.8781 H   0  0  0  0  0  0  0  0  0  0  0  0
    9.9341    1.6681  -14.3951 H   0  0  0  0  0  0  0  0  0  0  0  0
   10.2768    4.0547  -15.4672 H   0  0  0  0  0  0  0  0  0  0  0  0
   11.8457    4.0590  -14.7249 H   0  0  0  0  0  0  0  0  0  0  0  0
    8.3241    3.0975  -14.9675 H   0  0  0  0  0  0  0  0  0  0  0  0
    5.9322    3.2714  -14.5263 H   0  0  0  0  0  0  0  0  0  0  0  0
    5.0920    4.5630  -12.5731 H   0  0  0  0  0  0  0  0  0  0  0  0
    6.6869    5.6423  -11.0464 H   0  0  0  0  0  0  0  0  0  0  0  0
   11.0801    6.5734  -11.2897 H   0  0  0  0  0  0  0  0  0  0  0  0
    9.8350    7.0013  -12.4332 H   0  0  0  0  0  0  0  0  0  0  0  0
   10.1302    8.6843  -10.5708 H   0  0  0  0  0  0  0  0  0  0  0  0
    8.4866    8.0845  -10.7025 H   0  0  0  0  0  0  0  0  0  0  0  0
    9.4170    9.3721   -8.5057 H   0  0  0  0  0  0  0  0  0  0  0  0
    8.2224    8.3733   -7.7455 H   0  0  0  0  0  0  0  0  0  0  0  0
   10.6059    6.0830   -6.5651 H   0  0  0  0  0  0  0  0  0  0  0  0
   12.0318    5.8348   -3.9353 H   0  0  0  0  0  0  0  0  0  0  0  0
   12.7902    7.2317   -2.0442 H   0  0  0  0  0  0  0  0  0  0  0  0
   12.4382    9.7119   -2.0831 H   0  0  0  0  0  0  0  0  0  0  0  0
   11.2865   10.7580   -4.0654 H   0  0  0  0  0  0  0  0  0  0  0  0
    8.7580    5.7877   -7.7882 H   0  0  0  0  0  0  0  0  0  0  0  0
    7.6877    6.3080   -9.0486 H   0  0  0  0  0  0  0  0  0  0  0  0
    8.4933    4.1720   -9.6768 H   0  0  0  0  0  0  0  0  0  0  0  0
   10.1699    4.5928   -9.3921 H   0  0  0  0  0  0  0  0  0  0  0  0
   10.5136    7.0613   -8.8590 H   0  0  0  0  0  0  0  0  0  0  0  0
  2  1  1  0
  3  2  1  0
  4  3  1  0
  5  4  1  0
  6  5  2  0
  7  6  1  0
  8  7  2  0
  9  8  1  0
 10  5  1  0
 10  9  2  0
 11 10  1  0
 12 11  1  0
 13 12  1  0
 14 13  1  0
 15 14  1  0
 16 15  1  0
 17 16  1  0
 18 17  2  0
 19 18  1  0
 20 19  2  0
 21 20  1  0
 22 21  2  0
 23 18  1  0
 23 22  1  0
 24 16  2  0
 24 23  1  0
 25 14  1  0
 26 11  1  0
 26 25  1  0
 27  2  1  0
 28  2  1  0
 29  3  1  0
 30  3  1  0
 31  6  1  0
 32  7  1  0
 33  8  1  0
 34  9  1  0
 35 12  1  0
 36 12  1  0
 37 13  1  0
 38 13  1  0
 39 15  1  0
 40 15  1  0
 41 17  1  0
 42 19  1  0
 43 20  1  0
 44 21  1  0
 45 22  1  0
 46 25  1  0
 47 25  1  0
 48 26  1  0
 49 26  1  0
 50 14  1  0
M  CHG  1  14   1
M  END
>  <b_m_subgroup_collapsed>  (699) 
0

>  <r_i_docking_score>  (699) 
-7.50389230363173

>  <s_m_subgroup_title>  (699) 
glide-dock_SP_D22_pv

>  <s_m_subgroupid>  (699) 
glide-dock_SP_D22_pv

>  <Molecule ChEMBL ID>  (699) 
CHEMBL405260

>  <Standard Type>  (699) 
Ki

>  <Standard Value>  (699) 
46.0

>  <label>  (699) 
1

$$$$
CHEMBL4846561
     RDKit          3D

 79 82  0  0  1  0  0  0  0  0999 V2000
   14.7059   10.3081  -18.2419 C   0  0  0  0  0  0  0  0  0  0  0  0
   15.1098    8.8649  -18.5772 C   0  0  0  0  0  0  0  0  0  0  0  0
   13.9145    7.9204  -18.6462 C   0  0  0  0  0  0  0  0  0  0  0  0
   12.9188    8.1722  -19.6064 C   0  0  0  0  0  0  0  0  0  0  0  0
   11.7828    7.3556  -19.6911 C   0  0  0  0  0  0  0  0  0  0  0  0
   10.5787    7.7262  -20.8746 Cl  0  0  0  0  0  0  0  0  0  0  0  0
   11.6318    6.2508  -18.8251 C   0  0  0  0  0  0  0  0  0  0  0  0
   10.5098    5.4680  -18.9609 O   0  0  0  0  0  0  0  0  0  0  0  0
    9.3810    5.9469  -18.2472 C   0  0  0  0  0  0  0  0  0  0  0  0
   12.6461    5.9494  -17.8684 C   0  0  0  0  0  0  0  0  0  0  0  0
   12.5064    4.7714  -16.9277 C   0  0  0  0  0  0  0  0  0  0  0  0
   12.9584    4.8154  -15.7826 O   0  0  0  0  0  0  0  0  0  0  0  0
   11.8937    3.6835  -17.4200 N   0  0  0  0  0  0  0  0  0  0  0  0
   11.5338    2.4786  -16.6757 C   0  0  0  0  0  0  0  0  0  0  0  0
   10.0538    2.5209  -16.2238 C   0  0  2  0  0  0  0  0  0  0  0  0
    9.7714    3.6125  -15.1653 C   0  0  0  0  0  0  0  0  0  0  0  0
    9.4905    2.8642  -13.8719 C   0  0  1  0  0  0  0  0  0  0  0  0
    8.5812    3.5915  -13.0631 O   0  0  0  0  0  0  0  0  0  0  0  0
    9.1975    4.3914  -12.0716 C   0  0  0  0  0  0  0  0  0  0  0  0
    8.0815    5.0411  -11.2455 C   0  0  0  0  0  0  0  0  0  0  0  0
    8.5625    5.5972   -9.8997 C   0  0  0  0  0  0  0  0  0  0  0  0
    9.4461    6.8468  -10.0164 C   0  0  0  0  0  0  0  0  0  0  0  0
    9.9105    7.2265   -8.6929 N   0  0  0  0  0  0  0  0  0  0  0  0
   10.3914    8.4223   -8.3348 C   0  0  0  0  0  0  0  0  0  0  0  0
   10.5133    9.3714   -9.1077 O   0  0  0  0  0  0  0  0  0  0  0  0
   10.7685    8.5325   -6.9116 C   0  0  0  0  0  0  0  0  0  0  0  0
   10.9852    9.6275   -6.1016 C   0  0  0  0  0  0  0  0  0  0  0  0
   11.3575    9.1170   -4.8126 C   0  0  0  0  0  0  0  0  0  0  0  0
   11.7046    9.6355   -3.5426 C   0  0  0  0  0  0  0  0  0  0  0  0
   12.0867    8.7828   -2.4846 C   0  0  0  0  0  0  0  0  0  0  0  0
   12.0852    7.3841   -2.6584 C   0  0  0  0  0  0  0  0  0  0  0  0
   11.6909    6.8394   -3.8936 C   0  0  0  0  0  0  0  0  0  0  0  0
   11.3465    7.7084   -4.9390 C   0  0  0  0  0  0  0  0  0  0  0  0
   10.9681    7.3635   -6.2144 O   0  0  0  0  0  0  0  0  0  0  0  0
    8.8589    1.5783  -14.3813 C   0  0  0  0  0  0  0  0  0  0  0  0
    9.6068    1.2367  -15.6096 N   0  0  1  0  0  0  0  0  0  0  0  0
    8.8352    0.3257  -16.4950 C   0  0  0  0  0  0  0  0  0  0  0  0
    9.7226   -0.4683  -17.4611 C   0  0  0  0  0  0  0  0  0  0  0  0
   13.7790    6.8094  -17.7761 C   0  0  0  0  0  0  0  0  0  0  0  0
   14.7574    6.5720  -16.8473 O   0  0  0  0  0  0  0  0  0  0  0  0
   15.5813   10.9384  -18.0955 H   0  0  0  0  0  0  0  0  0  0  0  0
   14.1102   10.7545  -19.0384 H   0  0  0  0  0  0  0  0  0  0  0  0
   14.1121   10.3508  -17.3291 H   0  0  0  0  0  0  0  0  0  0  0  0
   15.8433    8.5227  -17.8492 H   0  0  0  0  0  0  0  0  0  0  0  0
   15.6190    8.8457  -19.5415 H   0  0  0  0  0  0  0  0  0  0  0  0
   13.0132    9.0133  -20.2774 H   0  0  0  0  0  0  0  0  0  0  0  0
    8.4889    5.4088  -18.5700 H   0  0  0  0  0  0  0  0  0  0  0  0
    9.5105    5.7716  -17.1794 H   0  0  0  0  0  0  0  0  0  0  0  0
    9.2066    7.0116  -18.4071 H   0  0  0  0  0  0  0  0  0  0  0  0
   11.5673    3.7520  -18.3747 H   0  0  0  0  0  0  0  0  0  0  0  0
   11.7165    1.6311  -17.3344 H   0  0  0  0  0  0  0  0  0  0  0  0
   12.1968    2.3381  -15.8231 H   0  0  0  0  0  0  0  0  0  0  0  0
    9.4358    2.7353  -17.0985 H   0  0  0  0  0  0  0  0  0  0  0  0
   10.5670    4.3395  -15.0252 H   0  0  0  0  0  0  0  0  0  0  0  0
    8.8862    4.1761  -15.4578 H   0  0  0  0  0  0  0  0  0  0  0  0
   10.4202    2.6117  -13.3573 H   0  0  0  0  0  0  0  0  0  0  0  0
    9.8165    3.7642  -11.4301 H   0  0  0  0  0  0  0  0  0  0  0  0
    9.8406    5.1452  -12.5272 H   0  0  0  0  0  0  0  0  0  0  0  0
    7.5829    5.8206  -11.8233 H   0  0  0  0  0  0  0  0  0  0  0  0
    7.3196    4.2872  -11.0431 H   0  0  0  0  0  0  0  0  0  0  0  0
    7.6868    5.8438   -9.2975 H   0  0  0  0  0  0  0  0  0  0  0  0
    9.0891    4.8147   -9.3524 H   0  0  0  0  0  0  0  0  0  0  0  0
   10.3141    6.6536  -10.6470 H   0  0  0  0  0  0  0  0  0  0  0  0
    8.8852    7.6650  -10.4724 H   0  0  0  0  0  0  0  0  0  0  0  0
    9.8369    6.5349   -7.9612 H   0  0  0  0  0  0  0  0  0  0  0  0
   10.9015   10.6664   -6.3814 H   0  0  0  0  0  0  0  0  0  0  0  0
   11.6858   10.6983   -3.3715 H   0  0  0  0  0  0  0  0  0  0  0  0
   12.3621    9.2089   -1.5302 H   0  0  0  0  0  0  0  0  0  0  0  0
   12.3682    6.7293   -1.8473 H   0  0  0  0  0  0  0  0  0  0  0  0
   11.6665    5.7730   -4.0466 H   0  0  0  0  0  0  0  0  0  0  0  0
    8.8858    0.7704  -13.6489 H   0  0  0  0  0  0  0  0  0  0  0  0
    7.8120    1.7650  -14.6280 H   0  0  0  0  0  0  0  0  0  0  0  0
    8.3025   -0.3912  -15.8684 H   0  0  0  0  0  0  0  0  0  0  0  0
    8.0657    0.8763  -17.0396 H   0  0  0  0  0  0  0  0  0  0  0  0
    9.1252   -1.1912  -18.0184 H   0  0  0  0  0  0  0  0  0  0  0  0
   10.2075    0.1753  -18.1939 H   0  0  0  0  0  0  0  0  0  0  0  0
   10.4899   -1.0276  -16.9263 H   0  0  0  0  0  0  0  0  0  0  0  0
   14.4852    5.9261  -16.2056 H   0  0  0  0  0  0  0  0  0  0  0  0
   10.4349    0.7458  -15.3028 H   0  0  0  0  0  0  0  0  0  0  0  0
  2  1  1  0
  3  2  1  0
  4  3  1  0
  5  4  2  0
  6  5  1  0
  7  5  1  0
  8  7  1  0
  9  8  1  0
 10  7  2  0
 11 10  1  0
 12 11  2  0
 13 11  1  0
 14 13  1  0
 15 14  1  0
 16 15  1  0
 17 16  1  0
 18 17  1  0
 19 18  1  0
 20 19  1  0
 21 20  1  0
 22 21  1  0
 23 22  1  0
 24 23  1  0
 25 24  2  0
 26 24  1  0
 27 26  2  0
 28 27  1  0
 29 28  2  0
 30 29  1  0
 31 30  2  0
 32 31  1  0
 33 28  1  0
 33 32  2  0
 34 26  1  0
 34 33  1  0
 35 17  1  0
 36 15  1  0
 36 35  1  0
 37 36  1  0
 38 37  1  0
 39  3  2  0
 39 10  1  0
 40 39  1  0
 41  1  1  0
 42  1  1  0
 43  1  1  0
 44  2  1  0
 45  2  1  0
 46  4  1  0
 47  9  1  0
 48  9  1  0
 49  9  1  0
 50 13  1  0
 51 14  1  0
 52 14  1  0
 15 53  1  6
 54 16  1  0
 55 16  1  0
 17 56  1  1
 57 19  1  0
 58 19  1  0
 59 20  1  0
 60 20  1  0
 61 21  1  0
 62 21  1  0
 63 22  1  0
 64 22  1  0
 65 23  1  0
 66 27  1  0
 67 29  1  0
 68 30  1  0
 69 31  1  0
 70 32  1  0
 71 35  1  0
 72 35  1  0
 73 37  1  0
 74 37  1  0
 75 38  1  0
 76 38  1  0
 77 38  1  0
 78 40  1  0
 36 79  1  1
M  CHG  1  36   1
M  END
>  <b_m_subgroup_collapsed>  (700) 
0

>  <r_i_docking_score>  (700) 
-7.5032733621280903

>  <s_m_subgroup_title>  (700) 
glide-dock_SP_D22_pv

>  <s_m_subgroupid>  (700) 
glide-dock_SP_D22_pv

>  <Molecule ChEMBL ID>  (700) 
CHEMBL4846561

>  <Standard Type>  (700) 
Ki

>  <Standard Value>  (700) 
0.947

>  <label>  (700) 
1

$$$$
CHEMBL3335537
     RDKit          3D

 47 50  0  0  1  0  0  0  0  0999 V2000
    7.0681    2.4453  -14.5867 C   0  0  0  0  0  0  0  0  0  0  0  0
    8.4131    2.8329  -14.4468 C   0  0  0  0  0  0  0  0  0  0  0  0
    8.7725    3.7722  -13.4637 C   0  0  0  0  0  0  0  0  0  0  0  0
    7.7856    4.3453  -12.6300 C   0  0  0  0  0  0  0  0  0  0  0  0
    8.1769    5.2877  -11.5083 C   0  0  0  0  0  0  0  0  0  0  0  0
    9.0298    6.4856  -11.9617 C   0  0  0  0  0  0  0  0  0  0  0  0
    9.9810    6.9511  -10.8566 C   0  0  2  0  0  0  0  0  0  0  0  0
    9.2901    7.7327   -9.7253 C   0  0  0  0  0  0  0  0  0  0  0  0
   10.2607    8.0692   -8.6907 N   0  0  0  0  0  0  0  0  0  0  0  0
    9.6446    8.7317   -7.5470 C   0  0  0  0  0  0  0  0  0  0  0  0
   10.4853    8.6372   -6.3109 C   0  0  0  0  0  0  0  0  0  0  0  0
   10.8660    9.6649   -5.5446 N   0  0  0  0  0  0  0  0  0  0  0  0
   11.4596    9.0248   -4.4649 C   0  0  0  0  0  0  0  0  0  0  0  0
   11.9800    9.5267   -3.2504 C   0  0  0  0  0  0  0  0  0  0  0  0
   12.4847    8.6577   -2.2631 C   0  0  0  0  0  0  0  0  0  0  0  0
   12.4860    7.2665   -2.4779 C   0  0  0  0  0  0  0  0  0  0  0  0
   11.9863    6.7433   -3.6795 C   0  0  0  0  0  0  0  0  0  0  0  0
   11.4678    7.6130   -4.6470 C   0  0  0  0  0  0  0  0  0  0  0  0
   10.8515    7.4233   -5.8661 N   0  0  0  0  0  0  0  0  0  0  0  0
   11.3416    8.8608   -9.2776 C   0  0  0  0  0  0  0  0  0  0  0  0
   11.9866    8.1519  -10.4823 C   0  0  0  0  0  0  0  0  0  0  0  0
   10.9927    7.7725  -11.4296 O   0  0  0  0  0  0  0  0  0  0  0  0
    6.4379    3.9664  -12.7833 C   0  0  0  0  0  0  0  0  0  0  0  0
    6.0855    3.0102  -13.7516 C   0  0  0  0  0  0  0  0  0  0  0  0
    6.7898    1.7095  -15.3273 H   0  0  0  0  0  0  0  0  0  0  0  0
    9.1720    2.3932  -15.0776 H   0  0  0  0  0  0  0  0  0  0  0  0
    9.8136    4.0279  -13.3367 H   0  0  0  0  0  0  0  0  0  0  0  0
    7.2904    5.6488  -10.9846 H   0  0  0  0  0  0  0  0  0  0  0  0
    8.7188    4.6844  -10.7808 H   0  0  0  0  0  0  0  0  0  0  0  0
    9.6535    6.2006  -12.8066 H   0  0  0  0  0  0  0  0  0  0  0  0
    8.3978    7.2986  -12.3189 H   0  0  0  0  0  0  0  0  0  0  0  0
   10.4721    6.0733  -10.4319 H   0  0  0  0  0  0  0  0  0  0  0  0
    8.8259    8.6366  -10.1205 H   0  0  0  0  0  0  0  0  0  0  0  0
    8.4871    7.1277   -9.2985 H   0  0  0  0  0  0  0  0  0  0  0  0
    9.4231    9.7722   -7.7778 H   0  0  0  0  0  0  0  0  0  0  0  0
    8.6873    8.2604   -7.3159 H   0  0  0  0  0  0  0  0  0  0  0  0
   11.9612   10.5811   -3.0472 H   0  0  0  0  0  0  0  0  0  0  0  0
   12.8677    9.0670   -1.3385 H   0  0  0  0  0  0  0  0  0  0  0  0
   12.8727    6.5969   -1.7226 H   0  0  0  0  0  0  0  0  0  0  0  0
   11.9746    5.6843   -3.8517 H   0  0  0  0  0  0  0  0  0  0  0  0
   10.6311    6.5582   -6.3402 H   0  0  0  0  0  0  0  0  0  0  0  0
   12.1074    9.0636   -8.5279 H   0  0  0  0  0  0  0  0  0  0  0  0
   10.9542    9.8274   -9.6021 H   0  0  0  0  0  0  0  0  0  0  0  0
   12.5218    7.2628  -10.1524 H   0  0  0  0  0  0  0  0  0  0  0  0
   12.7145    8.8009  -10.9686 H   0  0  0  0  0  0  0  0  0  0  0  0
    5.6775    4.3790  -12.1350 H   0  0  0  0  0  0  0  0  0  0  0  0
    5.0565    2.7008  -13.8437 H   0  0  0  0  0  0  0  0  0  0  0  0
  2  1  2  0
  3  2  1  0
  4  3  2  0
  5  4  1  0
  6  5  1  0
  7  6  1  0
  8  7  1  0
  9  8  1  0
 10  9  1  0
 11 10  1  0
 12 11  2  0
 13 12  1  0
 14 13  2  0
 15 14  1  0
 16 15  2  0
 17 16  1  0
 18 13  1  0
 18 17  2  0
 19 11  1  0
 19 18  1  0
 20  9  1  0
 21 20  1  0
 22  7  1  0
 22 21  1  0
 23  4  1  0
 24  1  1  0
 24 23  2  0
 25  1  1  0
 26  2  1  0
 27  3  1  0
 28  5  1  0
 29  5  1  0
 30  6  1  0
 31  6  1  0
  7 32  1  1
 33  8  1  0
 34  8  1  0
 35 10  1  0
 36 10  1  0
 37 14  1  0
 38 15  1  0
 39 16  1  0
 40 17  1  0
 41 19  1  0
 42 20  1  0
 43 20  1  0
 44 21  1  0
 45 21  1  0
 46 23  1  0
 47 24  1  0
M  END
>  <b_m_subgroup_collapsed>  (701) 
0

>  <r_i_docking_score>  (701) 
-7.5006812540713499

>  <s_m_subgroup_title>  (701) 
glide-dock_SP_D22_pv

>  <s_m_subgroupid>  (701) 
glide-dock_SP_D22_pv

>  <Molecule ChEMBL ID>  (701) 
CHEMBL3335537

>  <Standard Type>  (701) 
Ki

>  <Standard Value>  (701) 
100000.0

>  <label>  (701) 
0

$$$$
CHEMBL5403610
     RDKit          3D

 49 52  0  0  1  0  0  0  0  0999 V2000
    8.6556   -0.0416  -16.0062 C   0  0  0  0  0  0  0  0  0  0  0  0
    8.4233    1.2463  -15.2492 C   0  0  0  0  0  0  0  0  0  0  0  0
    7.1161    1.6674  -14.9334 C   0  0  0  0  0  0  0  0  0  0  0  0
    6.9075    2.8786  -14.2435 C   0  0  0  0  0  0  0  0  0  0  0  0
    7.9945    3.6906  -13.8469 C   0  0  0  0  0  0  0  0  0  0  0  0
    7.9314    4.9088  -13.1759 N   0  0  0  0  0  0  0  0  0  0  0  0
    9.1674    5.3880  -12.9871 C   0  0  0  0  0  0  0  0  0  0  0  0
    9.4424    6.6909  -12.3158 C   0  0  0  0  0  0  0  0  0  0  0  0
    9.4909    6.6076  -10.7858 C   0  0  0  0  0  0  0  0  0  0  0  0
   10.4503    7.6597  -10.2036 C   0  0  0  0  0  0  0  0  0  0  0  0
   10.2477    7.9338   -8.7829 N   0  0  0  0  0  0  0  0  0  0  0  0
   10.3238    6.7214   -7.9584 C   0  0  0  0  0  0  0  0  0  0  0  0
   10.1109    7.0801   -6.4780 C   0  0  0  0  0  0  0  0  0  0  0  0
   11.1265    8.0397   -6.0584 N   0  0  0  0  0  0  0  0  0  0  0  0
   11.5106    8.0902   -4.7056 C   0  0  0  0  0  0  0  0  0  0  0  0
   11.7292    6.8977   -3.9802 C   0  0  0  0  0  0  0  0  0  0  0  0
   12.1642    6.9731   -2.6468 C   0  0  0  0  0  0  0  0  0  0  0  0
   12.3685    8.2400   -2.0747 C   0  0  0  0  0  0  0  0  0  0  0  0
   12.0954    9.3724   -2.8605 C   0  0  0  0  0  0  0  0  0  0  0  0
   11.6849    9.3075   -4.1419 N   0  0  0  0  0  0  0  0  0  0  0  0
   11.1274    9.2481   -6.8752 C   0  0  0  0  0  0  0  0  0  0  0  0
   11.2938    8.8713   -8.3583 C   0  0  0  0  0  0  0  0  0  0  0  0
   10.4938    4.3856  -13.5808 S   0  0  0  0  0  0  0  0  0  0  0  0
    9.3064    3.2354  -14.1692 C   0  0  0  0  0  0  0  0  0  0  0  0
    9.5233    2.0316  -14.8602 C   0  0  0  0  0  0  0  0  0  0  0  0
    9.4065   -0.6430  -15.4939 H   0  0  0  0  0  0  0  0  0  0  0  0
    7.7388   -0.6273  -16.0824 H   0  0  0  0  0  0  0  0  0  0  0  0
    9.0111    0.1701  -17.0149 H   0  0  0  0  0  0  0  0  0  0  0  0
    6.2676    1.0651  -15.2245 H   0  0  0  0  0  0  0  0  0  0  0  0
    5.9030    3.1989  -14.0115 H   0  0  0  0  0  0  0  0  0  0  0  0
    8.6994    7.4243  -12.6333 H   0  0  0  0  0  0  0  0  0  0  0  0
   10.4039    7.0472  -12.6868 H   0  0  0  0  0  0  0  0  0  0  0  0
    9.8311    5.6159  -10.4862 H   0  0  0  0  0  0  0  0  0  0  0  0
    8.4862    6.7208  -10.3826 H   0  0  0  0  0  0  0  0  0  0  0  0
   10.3096    8.5988  -10.7402 H   0  0  0  0  0  0  0  0  0  0  0  0
   11.4792    7.3465  -10.3866 H   0  0  0  0  0  0  0  0  0  0  0  0
   11.2851    6.2247   -8.0952 H   0  0  0  0  0  0  0  0  0  0  0  0
    9.5478    6.0147   -8.2525 H   0  0  0  0  0  0  0  0  0  0  0  0
   10.1224    6.1723   -5.8810 H   0  0  0  0  0  0  0  0  0  0  0  0
    9.1232    7.5239   -6.3396 H   0  0  0  0  0  0  0  0  0  0  0  0
   11.6068    5.9256   -4.4327 H   0  0  0  0  0  0  0  0  0  0  0  0
   12.3489    6.0734   -2.0775 H   0  0  0  0  0  0  0  0  0  0  0  0
   12.6986    8.3477   -1.0525 H   0  0  0  0  0  0  0  0  0  0  0  0
   12.1955   10.3637   -2.4488 H   0  0  0  0  0  0  0  0  0  0  0  0
   10.1901    9.7818   -6.7205 H   0  0  0  0  0  0  0  0  0  0  0  0
   11.9384    9.9165   -6.5844 H   0  0  0  0  0  0  0  0  0  0  0  0
   12.2804    8.4311   -8.5163 H   0  0  0  0  0  0  0  0  0  0  0  0
   11.2488    9.7720   -8.9710 H   0  0  0  0  0  0  0  0  0  0  0  0
   10.5310    1.7174  -15.0892 H   0  0  0  0  0  0  0  0  0  0  0  0
  2  1  1  0
  3  2  2  0
  4  3  1  0
  5  4  2  0
  6  5  1  0
  7  6  2  0
  8  7  1  0
  9  8  1  0
 10  9  1  0
 11 10  1  0
 12 11  1  0
 13 12  1  0
 14 13  1  0
 15 14  1  0
 16 15  2  0
 17 16  1  0
 18 17  2  0
 19 18  1  0
 20 15  1  0
 20 19  2  0
 21 14  1  0
 22 11  1  0
 22 21  1  0
 23  7  1  0
 24  5  1  0
 24 23  1  0
 25  2  1  0
 25 24  2  0
 26  1  1  0
 27  1  1  0
 28  1  1  0
 29  3  1  0
 30  4  1  0
 31  8  1  0
 32  8  1  0
 33  9  1  0
 34  9  1  0
 35 10  1  0
 36 10  1  0
 37 12  1  0
 38 12  1  0
 39 13  1  0
 40 13  1  0
 41 16  1  0
 42 17  1  0
 43 18  1  0
 44 19  1  0
 45 21  1  0
 46 21  1  0
 47 22  1  0
 48 22  1  0
 49 25  1  0
M  END
>  <b_m_subgroup_collapsed>  (702) 
0

>  <r_i_docking_score>  (702) 
-7.5000891820542996

>  <s_m_subgroup_title>  (702) 
glide-dock_SP_D22_pv

>  <s_m_subgroupid>  (702) 
glide-dock_SP_D22_pv

>  <Molecule ChEMBL ID>  (702) 
CHEMBL5403610

>  <Standard Type>  (702) 
Ki

>  <Standard Value>  (702) 
49800.0

>  <label>  (702) 
0

$$$$
CHEMBL194510
     RDKit          3D

 56 60  0  0  1  0  0  0  0  0999 V2000
   12.3367    6.5728   -2.8051 Cl  0  0  0  0  0  0  0  0  0  0  0  0
   11.7905    7.8223   -3.8607 C   0  0  0  0  0  0  0  0  0  0  0  0
   11.7602    9.1480   -3.4105 C   0  0  0  0  0  0  0  0  0  0  0  0
   11.2860   10.1499   -4.2708 C   0  0  0  0  0  0  0  0  0  0  0  0
   10.8542    9.8609   -5.5737 C   0  0  0  0  0  0  0  0  0  0  0  0
   10.8407    8.5350   -6.0450 C   0  0  0  0  0  0  0  0  0  0  0  0
   10.3857    7.8945   -7.2474 C   0  0  0  0  0  0  0  0  0  0  0  0
    9.6691    8.4890   -8.4148 C   0  0  0  0  0  0  0  0  0  0  0  0
   10.5335    8.4936   -9.6858 C   0  0  0  0  0  0  0  0  0  0  0  0
    9.6990    8.4660  -10.9763 C   0  0  0  0  0  0  0  0  0  0  0  0
    8.8860    7.2347  -11.1396 N   0  0  0  0  0  0  0  0  0  0  0  0
    9.6656    5.9696  -11.2551 C   0  0  0  0  0  0  0  0  0  0  0  0
    8.7618    4.7404  -11.4933 C   0  0  0  0  0  0  0  0  0  0  0  0
    7.7931    4.9863  -12.5572 N   0  0  0  0  0  0  0  0  0  0  0  0
    7.1595    3.8325  -13.0445 C   0  0  0  0  0  0  0  0  0  0  0  0
    5.8550    3.4804  -12.6272 C   0  0  0  0  0  0  0  0  0  0  0  0
    5.2860    2.2590  -13.0294 C   0  0  0  0  0  0  0  0  0  0  0  0
    6.0148    1.3772  -13.8469 C   0  0  0  0  0  0  0  0  0  0  0  0
    7.3019    1.7274  -14.2960 C   0  0  0  0  0  0  0  0  0  0  0  0
    7.8714    2.9723  -13.9141 C   0  0  0  0  0  0  0  0  0  0  0  0
    9.1311    3.3323  -14.3455 O   0  0  0  0  0  0  0  0  0  0  0  0
    9.6335    2.5669  -15.4336 C   0  0  0  0  0  0  0  0  0  0  0  0
    9.3896    1.0751  -15.1685 C   0  0  0  0  0  0  0  0  0  0  0  0
    7.9907    0.8349  -15.0848 O   0  0  0  0  0  0  0  0  0  0  0  0
    6.9756    6.1655  -12.3334 C   0  0  0  0  0  0  0  0  0  0  0  0
    7.9064    7.3778  -12.2469 C   0  0  0  0  0  0  0  0  0  0  0  0
   10.7050    6.5723   -7.1173 C   0  0  0  0  0  0  0  0  0  0  0  0
   11.2860    6.3674   -5.8824 N   0  0  0  0  0  0  0  0  0  0  0  0
   11.3444    7.5338   -5.1643 C   0  0  0  0  0  0  0  0  0  0  0  0
   12.0953    9.3983   -2.4136 H   0  0  0  0  0  0  0  0  0  0  0  0
   11.2860   11.1588   -3.9309 H   0  0  0  0  0  0  0  0  0  0  0  0
   10.4965   10.6565   -6.2089 H   0  0  0  0  0  0  0  0  0  0  0  0
    9.3250    9.4973   -8.1893 H   0  0  0  0  0  0  0  0  0  0  0  0
    8.7574    7.9130   -8.5757 H   0  0  0  0  0  0  0  0  0  0  0  0
   11.2229    7.6502   -9.6857 H   0  0  0  0  0  0  0  0  0  0  0  0
   11.1749    9.3760   -9.6751 H   0  0  0  0  0  0  0  0  0  0  0  0
   10.3481    8.5723  -11.8433 H   0  0  0  0  0  0  0  0  0  0  0  0
    9.0299    9.3285  -10.9738 H   0  0  0  0  0  0  0  0  0  0  0  0
   10.2466    5.7971  -10.3507 H   0  0  0  0  0  0  0  0  0  0  0  0
   10.3721    6.0634  -12.0813 H   0  0  0  0  0  0  0  0  0  0  0  0
    8.2145    4.5049  -10.5788 H   0  0  0  0  0  0  0  0  0  0  0  0
    9.3769    3.8693  -11.7248 H   0  0  0  0  0  0  0  0  0  0  0  0
    5.2956    4.1191  -11.9593 H   0  0  0  0  0  0  0  0  0  0  0  0
    4.2954    1.9930  -12.6943 H   0  0  0  0  0  0  0  0  0  0  0  0
    5.5833    0.4313  -14.1402 H   0  0  0  0  0  0  0  0  0  0  0  0
    9.1510    2.8813  -16.3602 H   0  0  0  0  0  0  0  0  0  0  0  0
   10.7003    2.7642  -15.5404 H   0  0  0  0  0  0  0  0  0  0  0  0
    9.8035    0.4714  -15.9763 H   0  0  0  0  0  0  0  0  0  0  0  0
    9.8782    0.7570  -14.2469 H   0  0  0  0  0  0  0  0  0  0  0  0
    6.2470    6.2922  -13.1296 H   0  0  0  0  0  0  0  0  0  0  0  0
    6.3974    6.0504  -11.4197 H   0  0  0  0  0  0  0  0  0  0  0  0
    7.3361    8.3069  -12.2101 H   0  0  0  0  0  0  0  0  0  0  0  0
    8.4860    7.4205  -13.1440 H   0  0  0  0  0  0  0  0  0  0  0  0
   10.5348    5.7470   -7.7933 H   0  0  0  0  0  0  0  0  0  0  0  0
   11.5425    5.4523   -5.5355 H   0  0  0  0  0  0  0  0  0  0  0  0
    8.2855    7.1689  -10.3227 H   0  0  0  0  0  0  0  0  0  0  0  0
  2  1  1  0
  3  2  1  0
  4  3  2  0
  5  4  1  0
  6  5  2  0
  7  6  1  0
  8  7  1  0
  9  8  1  0
 10  9  1  0
 11 10  1  0
 12 11  1  0
 13 12  1  0
 14 13  1  0
 15 14  1  0
 16 15  2  0
 17 16  1  0
 18 17  2  0
 19 18  1  0
 20 15  1  0
 20 19  2  0
 21 20  1  0
 22 21  1  0
 23 22  1  0
 24 19  1  0
 24 23  1  0
 25 14  1  0
 26 11  1  0
 26 25  1  0
 27  7  2  0
 28 27  1  0
 29  2  2  0
 29  6  1  0
 29 28  1  0
 30  3  1  0
 31  4  1  0
 32  5  1  0
 33  8  1  0
 34  8  1  0
 35  9  1  0
 36  9  1  0
 37 10  1  0
 38 10  1  0
 39 12  1  0
 40 12  1  0
 41 13  1  0
 42 13  1  0
 43 16  1  0
 44 17  1  0
 45 18  1  0
 46 22  1  0
 47 22  1  0
 48 23  1  0
 49 23  1  0
 50 25  1  0
 51 25  1  0
 52 26  1  0
 53 26  1  0
 54 27  1  0
 55 28  1  0
 56 11  1  0
M  CHG  1  11   1
M  END
>  <b_m_subgroup_collapsed>  (703) 
0

>  <r_i_docking_score>  (703) 
-7.5000563689416602

>  <s_m_subgroup_title>  (703) 
glide-dock_SP_D22_pv

>  <s_m_subgroupid>  (703) 
glide-dock_SP_D22_pv

>  <Molecule ChEMBL ID>  (703) 
CHEMBL194510

>  <Standard Type>  (703) 
Ki

>  <Standard Value>  (703) 
15.5

>  <label>  (703) 
1

$$$$
CHEMBL125525
     RDKit          3D

 62 65  0  0  1  0  0  0  0  0999 V2000
    3.5721   -0.7614  -14.4032 C   0  0  0  0  0  0  0  0  0  0  0  0
    4.9132   -0.2892  -14.3785 O   0  0  0  0  0  0  0  0  0  0  0  0
    5.5976   -0.2264  -15.5796 C   0  0  0  0  0  0  0  0  0  0  0  0
    5.1853   -0.9864  -16.7068 C   0  0  0  0  0  0  0  0  0  0  0  0
    5.8842   -0.9138  -17.9254 C   0  0  0  0  0  0  0  0  0  0  0  0
    7.0089   -0.0832  -18.0388 C   0  0  0  0  0  0  0  0  0  0  0  0
    7.4371    0.6679  -16.9302 C   0  0  0  0  0  0  0  0  0  0  0  0
    6.7493    0.6107  -15.6921 C   0  0  0  0  0  0  0  0  0  0  0  0
    7.2136    1.4245  -14.6303 N   0  0  0  0  0  0  0  0  0  0  0  0
    6.2848    2.1231  -13.7494 C   0  0  0  0  0  0  0  0  0  0  0  0
    6.6824    3.6006  -13.5528 C   0  0  0  0  0  0  0  0  0  0  0  0
    8.1304    3.7723  -13.2525 N   0  0  0  0  0  0  0  0  0  0  0  0
    8.4951    5.1898  -13.0005 C   0  0  0  0  0  0  0  0  0  0  0  0
    9.7845    5.3306  -12.1622 C   0  0  0  0  0  0  0  0  0  0  0  0
   10.0396    6.7746  -11.6941 C   0  0  0  0  0  0  0  0  0  0  0  0
    9.1172    7.2123  -10.5392 C   0  0  0  0  0  0  0  0  0  0  0  0
    9.7684    7.1516   -9.2355 N   0  0  0  0  0  0  0  0  0  0  0  0
   10.5025    8.1399   -8.6890 C   0  0  0  0  0  0  0  0  0  0  0  0
   10.7555    9.1667   -9.3207 O   0  0  0  0  0  0  0  0  0  0  0  0
   10.9063    7.8903   -7.2980 C   0  0  0  0  0  0  0  0  0  0  0  0
   11.0674    6.6146   -6.8657 C   0  0  0  0  0  0  0  0  0  0  0  0
   11.5032    6.2440   -5.6172 O   0  0  0  0  0  0  0  0  0  0  0  0
   11.6859    7.2031   -4.6547 C   0  0  0  0  0  0  0  0  0  0  0  0
   12.0844    6.8130   -3.3624 C   0  0  0  0  0  0  0  0  0  0  0  0
   12.2970    7.7795   -2.3653 C   0  0  0  0  0  0  0  0  0  0  0  0
   12.0881    9.1394   -2.6455 C   0  0  0  0  0  0  0  0  0  0  0  0
   11.7022    9.5302   -3.9368 C   0  0  0  0  0  0  0  0  0  0  0  0
   11.5402    8.5712   -4.9540 C   0  0  0  0  0  0  0  0  0  0  0  0
   11.2315    8.9828   -6.3403 C   0  0  0  0  0  0  0  0  0  0  0  0
   11.2511   10.1726   -6.6473 O   0  0  0  0  0  0  0  0  0  0  0  0
    8.9972    3.0900  -14.2532 C   0  0  0  0  0  0  0  0  0  0  0  0
    8.6412    1.5967  -14.3764 C   0  0  0  0  0  0  0  0  0  0  0  0
    3.1148   -0.6110  -13.4262 H   0  0  0  0  0  0  0  0  0  0  0  0
    2.9677   -0.2196  -15.1319 H   0  0  0  0  0  0  0  0  0  0  0  0
    3.5190   -1.8274  -14.6252 H   0  0  0  0  0  0  0  0  0  0  0  0
    4.3325   -1.6471  -16.6660 H   0  0  0  0  0  0  0  0  0  0  0  0
    5.5514   -1.4966  -18.7724 H   0  0  0  0  0  0  0  0  0  0  0  0
    7.5431   -0.0220  -18.9753 H   0  0  0  0  0  0  0  0  0  0  0  0
    8.2943    1.3119  -17.0566 H   0  0  0  0  0  0  0  0  0  0  0  0
    6.2208    1.5958  -12.7974 H   0  0  0  0  0  0  0  0  0  0  0  0
    5.2848    2.0982  -14.1682 H   0  0  0  0  0  0  0  0  0  0  0  0
    6.0804    4.0270  -12.7479 H   0  0  0  0  0  0  0  0  0  0  0  0
    6.4347    4.1631  -14.4518 H   0  0  0  0  0  0  0  0  0  0  0  0
    7.6741    5.6676  -12.4638 H   0  0  0  0  0  0  0  0  0  0  0  0
    8.5850    5.7286  -13.9465 H   0  0  0  0  0  0  0  0  0  0  0  0
   10.6396    5.0048  -12.7558 H   0  0  0  0  0  0  0  0  0  0  0  0
    9.7445    4.6727  -11.2935 H   0  0  0  0  0  0  0  0  0  0  0  0
    9.9024    7.4509  -12.5385 H   0  0  0  0  0  0  0  0  0  0  0  0
   11.0827    6.8955  -11.4004 H   0  0  0  0  0  0  0  0  0  0  0  0
    8.2347    6.5726  -10.4869 H   0  0  0  0  0  0  0  0  0  0  0  0
    8.7481    8.2245  -10.7193 H   0  0  0  0  0  0  0  0  0  0  0  0
    9.5272    6.3648   -8.6519 H   0  0  0  0  0  0  0  0  0  0  0  0
   10.9073    5.7382   -7.4756 H   0  0  0  0  0  0  0  0  0  0  0  0
   12.2339    5.7716   -3.1321 H   0  0  0  0  0  0  0  0  0  0  0  0
   12.6286    7.4768   -1.3884 H   0  0  0  0  0  0  0  0  0  0  0  0
   12.2372    9.8783   -1.8720 H   0  0  0  0  0  0  0  0  0  0  0  0
   11.5469   10.5724   -4.1462 H   0  0  0  0  0  0  0  0  0  0  0  0
    8.8862    3.5794  -15.2219 H   0  0  0  0  0  0  0  0  0  0  0  0
   10.0454    3.1785  -13.9708 H   0  0  0  0  0  0  0  0  0  0  0  0
    8.8853    1.0809  -13.4473 H   0  0  0  0  0  0  0  0  0  0  0  0
    9.2580    1.1216  -15.1373 H   0  0  0  0  0  0  0  0  0  0  0  0
    8.2807    3.2883  -12.3798 H   0  0  0  0  0  0  0  0  0  0  0  0
  2  1  1  0
  3  2  1  0
  4  3  2  0
  5  4  1  0
  6  5  2  0
  7  6  1  0
  8  3  1  0
  8  7  2  0
  9  8  1  0
 10  9  1  0
 11 10  1  0
 12 11  1  0
 13 12  1  0
 14 13  1  0
 15 14  1  0
 16 15  1  0
 17 16  1  0
 18 17  1  0
 19 18  2  0
 20 18  1  0
 21 20  2  0
 22 21  1  0
 23 22  1  0
 24 23  2  0
 25 24  1  0
 26 25  2  0
 27 26  1  0
 28 23  1  0
 28 27  2  0
 29 20  1  0
 29 28  1  0
 30 29  2  0
 31 12  1  0
 32  9  1  0
 32 31  1  0
 33  1  1  0
 34  1  1  0
 35  1  1  0
 36  4  1  0
 37  5  1  0
 38  6  1  0
 39  7  1  0
 40 10  1  0
 41 10  1  0
 42 11  1  0
 43 11  1  0
 44 13  1  0
 45 13  1  0
 46 14  1  0
 47 14  1  0
 48 15  1  0
 49 15  1  0
 50 16  1  0
 51 16  1  0
 52 17  1  0
 53 21  1  0
 54 24  1  0
 55 25  1  0
 56 26  1  0
 57 27  1  0
 58 31  1  0
 59 31  1  0
 60 32  1  0
 61 32  1  0
 62 12  1  0
M  CHG  1  12   1
M  END
>  <b_m_subgroup_collapsed>  (704) 
0

>  <r_i_docking_score>  (704) 
-7.4933953821004398

>  <s_m_subgroup_title>  (704) 
glide-dock_SP_D22_pv

>  <s_m_subgroupid>  (704) 
glide-dock_SP_D22_pv

>  <Molecule ChEMBL ID>  (704) 
CHEMBL125525

>  <Standard Type>  (704) 
Ki

>  <Standard Value>  (704) 
47.0

>  <label>  (704) 
1

$$$$
CHEMBL345349
     RDKit          3D

 36 39  0  0  1  0  0  0  0  0999 V2000
   12.2567    9.0458   -4.6468 C   0  0  0  0  0  0  0  0  0  0  0  0
   11.6844    7.8042   -4.3127 C   0  0  0  0  0  0  0  0  0  0  0  0
   10.8905    7.1084   -5.2525 C   0  0  0  0  0  0  0  0  0  0  0  0
   10.6921    7.6079   -6.5621 C   0  0  0  0  0  0  0  0  0  0  0  0
    9.9820    7.1673   -7.7360 C   0  0  0  0  0  0  0  0  0  0  0  0
   10.2565    8.0611   -8.7291 C   0  0  0  0  0  0  0  0  0  0  0  0
   11.0630    9.0620   -8.2229 N   0  0  0  0  0  0  0  0  0  0  0  0
   11.3327    8.8419   -6.8865 C   0  0  0  0  0  0  0  0  0  0  0  0
   12.0860    9.5651   -5.9433 C   0  0  0  0  0  0  0  0  0  0  0  0
    9.8788    7.9182  -10.1722 C   0  0  1  0  0  0  0  0  0  0  0  0
   11.1661    7.7079  -11.0037 C   0  0  0  0  0  0  0  0  0  0  0  0
   10.9065    7.2647  -12.4466 C   0  0  0  0  0  0  0  0  0  0  0  0
    9.9346    6.0837  -12.5053 C   0  0  0  0  0  0  0  0  0  0  0  0
    8.6360    6.4493  -11.7743 C   0  0  0  0  0  0  0  0  0  0  0  0
    8.8861    6.8044  -10.3545 N   0  0  1  0  0  0  0  0  0  0  0  0
    9.1244    5.6133   -9.4903 C   0  0  0  0  0  0  0  0  0  0  0  0
    9.1188    5.9748   -7.9946 C   0  0  0  0  0  0  0  0  0  0  0  0
   12.8470    9.5851   -3.9194 H   0  0  0  0  0  0  0  0  0  0  0  0
   11.8265    7.3958   -3.3227 H   0  0  0  0  0  0  0  0  0  0  0  0
   10.4329    6.1723   -4.9709 H   0  0  0  0  0  0  0  0  0  0  0  0
   11.4375    9.8096   -8.7889 H   0  0  0  0  0  0  0  0  0  0  0  0
   12.5587   10.4948   -6.2204 H   0  0  0  0  0  0  0  0  0  0  0  0
    9.3914    8.8340  -10.5105 H   0  0  0  0  0  0  0  0  0  0  0  0
   11.7583    8.6245  -11.0081 H   0  0  0  0  0  0  0  0  0  0  0  0
   11.7983    6.9720  -10.5120 H   0  0  0  0  0  0  0  0  0  0  0  0
   10.4861    8.1041  -12.9975 H   0  0  0  0  0  0  0  0  0  0  0  0
   11.8459    7.0082  -12.9393 H   0  0  0  0  0  0  0  0  0  0  0  0
    9.7159    5.8290  -13.5428 H   0  0  0  0  0  0  0  0  0  0  0  0
   10.3862    5.1916  -12.0703 H   0  0  0  0  0  0  0  0  0  0  0  0
    8.1647    7.3041  -12.2625 H   0  0  0  0  0  0  0  0  0  0  0  0
    7.9151    5.6322  -11.8339 H   0  0  0  0  0  0  0  0  0  0  0  0
    8.3663    4.8499   -9.6774 H   0  0  0  0  0  0  0  0  0  0  0  0
   10.0857    5.1697   -9.7497 H   0  0  0  0  0  0  0  0  0  0  0  0
    9.4748    5.1096   -7.4468 H   0  0  0  0  0  0  0  0  0  0  0  0
    8.0990    6.1700   -7.6588 H   0  0  0  0  0  0  0  0  0  0  0  0
    7.9826    7.1840  -10.0504 H   0  0  0  0  0  0  0  0  0  0  0  0
  2  1  2  0
  3  2  1  0
  4  3  2  0
  5  4  1  0
  6  5  2  0
  7  6  1  0
  8  4  1  0
  8  7  1  0
  9  1  1  0
  9  8  2  0
 10  6  1  0
 11 10  1  0
 12 11  1  0
 13 12  1  0
 14 13  1  0
 15 10  1  0
 15 14  1  0
 16 15  1  0
 17  5  1  0
 17 16  1  0
 18  1  1  0
 19  2  1  0
 20  3  1  0
 21  7  1  0
 22  9  1  0
 10 23  1  6
 24 11  1  0
 25 11  1  0
 26 12  1  0
 27 12  1  0
 28 13  1  0
 29 13  1  0
 30 14  1  0
 31 14  1  0
 32 16  1  0
 33 16  1  0
 34 17  1  0
 35 17  1  0
 15 36  1  1
M  CHG  1  15   1
M  END
>  <b_m_subgroup_collapsed>  (705) 
0

>  <r_i_docking_score>  (705) 
-7.4929352616153304

>  <s_m_subgroup_title>  (705) 
glide-dock_SP_D22_pv

>  <s_m_subgroupid>  (705) 
glide-dock_SP_D22_pv

>  <Molecule ChEMBL ID>  (705) 
CHEMBL345349

>  <Standard Type>  (705) 
Ki

>  <Standard Value>  (705) 
10000.0

>  <label>  (705) 
0

$$$$
CHEMBL5975498
     RDKit          3D

 51 55  0  0  1  0  0  0  0  0999 V2000
   10.3206    4.2411  -13.0706 O   0  0  0  0  0  0  0  0  0  0  0  0
    9.1396    3.9400  -13.2599 C   0  0  0  0  0  0  0  0  0  0  0  0
    8.7818    2.8393  -14.2292 C   0  0  0  0  0  0  0  0  0  0  0  0
    9.7880    2.3135  -14.9679 N   0  0  0  0  0  0  0  0  0  0  0  0
    9.5206    1.2775  -15.7884 C   0  0  0  0  0  0  0  0  0  0  0  0
    8.2420    0.7110  -15.9218 C   0  0  0  0  0  0  0  0  0  0  0  0
    7.1891    1.2555  -15.1659 C   0  0  0  0  0  0  0  0  0  0  0  0
    7.4575    2.3422  -14.3081 C   0  0  0  0  0  0  0  0  0  0  0  0
    6.3515    2.9423  -13.4634 C   0  0  0  0  0  0  0  0  0  0  0  0
    6.6950    4.3425  -12.9265 C   0  0  0  0  0  0  0  0  0  0  0  0
    8.1190    4.5634  -12.6175 N   0  0  0  0  0  0  0  0  0  0  0  0
    8.3887    5.6435  -11.6579 C   0  0  0  0  0  0  0  0  0  0  0  0
    8.8908    5.1097  -10.3008 C   0  0  0  0  0  0  0  0  0  0  0  0
    9.1707    6.2058   -9.3758 N   0  0  0  0  0  0  0  0  0  0  0  0
    9.1899    5.7064   -8.0021 C   0  0  0  0  0  0  0  0  0  0  0  0
    9.4042    6.8626   -7.0079 C   0  0  0  0  0  0  0  0  0  0  0  0
   10.6520    7.5566   -7.3019 N   0  0  0  0  0  0  0  0  0  0  0  0
   10.9602    8.5392   -6.3505 C   0  0  0  0  0  0  0  0  0  0  0  0
   10.8859    9.8459   -6.5822 N   0  0  0  0  0  0  0  0  0  0  0  0
   11.2379   10.5043   -5.3747 O   0  0  0  0  0  0  0  0  0  0  0  0
   11.5678    9.5647   -4.4129 C   0  0  0  0  0  0  0  0  0  0  0  0
   11.9918    9.7117   -3.0861 C   0  0  0  0  0  0  0  0  0  0  0  0
   12.2961    8.5439   -2.3609 C   0  0  0  0  0  0  0  0  0  0  0  0
   12.1524    7.2713   -2.9620 C   0  0  0  0  0  0  0  0  0  0  0  0
   12.4846    6.1728   -2.2516 F   0  0  0  0  0  0  0  0  0  0  0  0
   11.6863    7.1458   -4.2951 C   0  0  0  0  0  0  0  0  0  0  0  0
   11.3973    8.3212   -5.0241 C   0  0  0  0  0  0  0  0  0  0  0  0
   10.6668    8.0304   -8.6863 C   0  0  0  0  0  0  0  0  0  0  0  0
   10.4512    6.8655   -9.6613 C   0  0  0  0  0  0  0  0  0  0  0  0
   10.3555    0.8856  -16.3506 H   0  0  0  0  0  0  0  0  0  0  0  0
    8.0737   -0.1278  -16.5810 H   0  0  0  0  0  0  0  0  0  0  0  0
    6.1922    0.8405  -15.2383 H   0  0  0  0  0  0  0  0  0  0  0  0
    5.4372    3.0031  -14.0529 H   0  0  0  0  0  0  0  0  0  0  0  0
    6.1192    2.2632  -12.6438 H   0  0  0  0  0  0  0  0  0  0  0  0
    6.4261    5.0702  -13.6901 H   0  0  0  0  0  0  0  0  0  0  0  0
    6.0645    4.5649  -12.0642 H   0  0  0  0  0  0  0  0  0  0  0  0
    9.1053    6.3366  -12.1011 H   0  0  0  0  0  0  0  0  0  0  0  0
    7.4854    6.2311  -11.4870 H   0  0  0  0  0  0  0  0  0  0  0  0
    8.0969    4.4823   -9.8863 H   0  0  0  0  0  0  0  0  0  0  0  0
    9.7721    4.4744  -10.4084 H   0  0  0  0  0  0  0  0  0  0  0  0
    8.2423    5.2113   -7.7810 H   0  0  0  0  0  0  0  0  0  0  0  0
    9.9856    4.9730   -7.8906 H   0  0  0  0  0  0  0  0  0  0  0  0
    8.5665    7.5618   -7.0640 H   0  0  0  0  0  0  0  0  0  0  0  0
    9.4198    6.4698   -5.9911 H   0  0  0  0  0  0  0  0  0  0  0  0
   12.0858   10.6914   -2.6450 H   0  0  0  0  0  0  0  0  0  0  0  0
   12.6426    8.6234   -1.3410 H   0  0  0  0  0  0  0  0  0  0  0  0
   11.5739    6.1724   -4.7519 H   0  0  0  0  0  0  0  0  0  0  0  0
    9.8890    8.7822   -8.8337 H   0  0  0  0  0  0  0  0  0  0  0  0
   11.6228    8.5083   -8.8998 H   0  0  0  0  0  0  0  0  0  0  0  0
   11.2840    6.1723   -9.5788 H   0  0  0  0  0  0  0  0  0  0  0  0
   10.4604    7.2531  -10.6788 H   0  0  0  0  0  0  0  0  0  0  0  0
  2  1  2  0
  3  2  1  0
  4  3  1  0
  5  4  2  0
  6  5  1  0
  7  6  2  0
  8  3  2  0
  8  7  1  0
  9  8  1  0
 10  9  1  0
 11  2  1  0
 11 10  1  0
 12 11  1  0
 13 12  1  0
 14 13  1  0
 15 14  1  0
 16 15  1  0
 17 16  1  0
 18 17  1  0
 19 18  2  0
 20 19  1  0
 21 20  1  0
 22 21  2  0
 23 22  1  0
 24 23  2  0
 25 24  1  0
 26 24  1  0
 27 18  1  0
 27 21  1  0
 27 26  2  0
 28 17  1  0
 29 14  1  0
 29 28  1  0
 30  5  1  0
 31  6  1  0
 32  7  1  0
 33  9  1  0
 34  9  1  0
 35 10  1  0
 36 10  1  0
 37 12  1  0
 38 12  1  0
 39 13  1  0
 40 13  1  0
 41 15  1  0
 42 15  1  0
 43 16  1  0
 44 16  1  0
 45 22  1  0
 46 23  1  0
 47 26  1  0
 48 28  1  0
 49 28  1  0
 50 29  1  0
 51 29  1  0
M  END
>  <b_m_subgroup_collapsed>  (706) 
0

>  <r_i_docking_score>  (706) 
-7.4919109973515701

>  <s_m_subgroup_title>  (706) 
glide-dock_SP_D22_pv

>  <s_m_subgroupid>  (706) 
glide-dock_SP_D22_pv

>  <Molecule ChEMBL ID>  (706) 
CHEMBL5975498

>  <Standard Type>  (706) 
Ki

>  <Standard Value>  (706) 
10000.0

>  <label>  (706) 
0

$$$$
CHEMBL5758623
     RDKit          3D

 60 62  0  0  1  0  0  0  0  0999 V2000
   10.3104    0.1693  -15.3431 C   0  0  0  0  0  0  0  0  0  0  0  0
    9.0681    0.6875  -16.0782 C   0  0  0  0  0  0  0  0  0  0  0  0
    8.0432    1.3094  -15.1416 C   0  0  0  0  0  0  0  0  0  0  0  0
    6.9028    0.5642  -14.7752 C   0  0  0  0  0  0  0  0  0  0  0  0
    5.9288    1.1253  -13.9290 C   0  0  0  0  0  0  0  0  0  0  0  0
    6.0856    2.4381  -13.4466 C   0  0  0  0  0  0  0  0  0  0  0  0
    7.2459    3.1777  -13.7630 C   0  0  0  0  0  0  0  0  0  0  0  0
    7.4956    4.4120  -13.1421 N   0  0  0  0  0  0  0  0  0  0  0  0
    6.4409    5.3983  -13.0156 C   0  0  0  0  0  0  0  0  0  0  0  0
    7.1079    6.7861  -12.9467 C   0  0  0  0  0  0  0  0  0  0  0  0
    8.0876    6.8863  -11.8471 N   0  0  0  0  0  0  0  0  0  0  0  0
    8.7623    8.2073  -11.8336 C   0  0  0  0  0  0  0  0  0  0  0  0
    9.2859    8.4657  -10.4454 C   0  0  0  0  0  0  0  0  0  0  0  0
   10.5823    8.4805  -10.0971 C   0  0  0  0  0  0  0  0  0  0  0  0
   11.0984    8.6365   -8.6814 C   0  0  0  0  0  0  0  0  0  0  0  0
    9.9911    8.6142   -7.6093 C   0  0  0  0  0  0  0  0  0  0  0  0
   10.5448    8.4566   -6.2808 N   0  0  0  0  0  0  0  0  0  0  0  0
   11.1714    9.4083   -5.5743 C   0  0  0  0  0  0  0  0  0  0  0  0
   11.2883   10.5737   -5.9446 O   0  0  0  0  0  0  0  0  0  0  0  0
   11.6962    8.9500   -4.2590 C   0  0  0  0  0  0  0  0  0  0  0  0
   12.0856    9.6943   -3.2275 N   0  0  0  0  0  0  0  0  0  0  0  0
   12.4774    8.7867   -2.2416 C   0  0  0  0  0  0  0  0  0  0  0  0
   12.3005    7.5062   -2.7099 C   0  0  0  0  0  0  0  0  0  0  0  0
   12.5081    6.1683   -2.1115 C   0  0  0  0  0  0  0  0  0  0  0  0
   11.8248    7.6441   -3.9931 N   0  0  0  0  0  0  0  0  0  0  0  0
    9.0566    5.7508  -11.8027 C   0  0  0  0  0  0  0  0  0  0  0  0
    8.3870    4.3801  -11.9914 C   0  0  0  0  0  0  0  0  0  0  0  0
    8.2192    2.6177  -14.6284 C   0  0  0  0  0  0  0  0  0  0  0  0
    9.6266    3.5417  -15.0492 Cl  0  0  0  0  0  0  0  0  0  0  0  0
   11.0335   -0.2278  -16.0542 H   0  0  0  0  0  0  0  0  0  0  0  0
   10.8068    0.9574  -14.7773 H   0  0  0  0  0  0  0  0  0  0  0  0
   10.0510   -0.6258  -14.6465 H   0  0  0  0  0  0  0  0  0  0  0  0
    8.6050   -0.1349  -16.6252 H   0  0  0  0  0  0  0  0  0  0  0  0
    9.3581    1.4179  -16.8338 H   0  0  0  0  0  0  0  0  0  0  0  0
    6.7694   -0.4422  -15.1471 H   0  0  0  0  0  0  0  0  0  0  0  0
    5.0547    0.5520  -13.6583 H   0  0  0  0  0  0  0  0  0  0  0  0
    5.3412    2.8471  -12.7795 H   0  0  0  0  0  0  0  0  0  0  0  0
    5.8680    5.2111  -12.1052 H   0  0  0  0  0  0  0  0  0  0  0  0
    5.7388    5.3292  -13.8465 H   0  0  0  0  0  0  0  0  0  0  0  0
    6.3526    7.5684  -12.8540 H   0  0  0  0  0  0  0  0  0  0  0  0
    7.6861    6.9717  -13.8468 H   0  0  0  0  0  0  0  0  0  0  0  0
    8.0548    9.0038  -12.0689 H   0  0  0  0  0  0  0  0  0  0  0  0
    9.5628    8.2526  -12.5724 H   0  0  0  0  0  0  0  0  0  0  0  0
    8.5124    8.6182   -9.7067 H   0  0  0  0  0  0  0  0  0  0  0  0
   11.3394    8.3517  -10.8575 H   0  0  0  0  0  0  0  0  0  0  0  0
   11.7924    7.8142   -8.5031 H   0  0  0  0  0  0  0  0  0  0  0  0
   11.6820    9.5531   -8.6150 H   0  0  0  0  0  0  0  0  0  0  0  0
    9.3693    9.5078   -7.6625 H   0  0  0  0  0  0  0  0  0  0  0  0
    9.3295    7.7606   -7.7631 H   0  0  0  0  0  0  0  0  0  0  0  0
   10.4267    7.5502   -5.8577 H   0  0  0  0  0  0  0  0  0  0  0  0
   12.8348    9.1270   -1.2805 H   0  0  0  0  0  0  0  0  0  0  0  0
   13.2221    6.1726   -1.2922 H   0  0  0  0  0  0  0  0  0  0  0  0
   11.5634    5.7763   -1.7401 H   0  0  0  0  0  0  0  0  0  0  0  0
   12.8874    5.4786   -2.8645 H   0  0  0  0  0  0  0  0  0  0  0  0
    9.7917    5.8862  -12.5977 H   0  0  0  0  0  0  0  0  0  0  0  0
    9.6078    5.7593  -10.8618 H   0  0  0  0  0  0  0  0  0  0  0  0
    7.8021    4.1361  -11.1028 H   0  0  0  0  0  0  0  0  0  0  0  0
    9.1446    3.6011  -12.1000 H   0  0  0  0  0  0  0  0  0  0  0  0
    7.5054    6.8898  -11.0063 H   0  0  0  0  0  0  0  0  0  0  0  0
   11.6163    6.8820   -4.6203 H   0  0  0  0  0  0  0  0  0  0  0  0
  2  1  1  0
  3  2  1  0
  4  3  2  0
  5  4  1  0
  6  5  2  0
  7  6  1  0
  8  7  1  0
  9  8  1  0
 10  9  1  0
 11 10  1  0
 12 11  1  0
 13 12  1  0
 14 13  2  0
 15 14  1  0
 16 15  1  0
 17 16  1  0
 18 17  1  0
 19 18  2  0
 20 18  1  0
 21 20  2  0
 22 21  1  0
 23 22  2  0
 24 23  1  0
 25 20  1  0
 25 23  1  0
 26 11  1  0
 27  8  1  0
 27 26  1  0
 28  3  1  0
 28  7  2  0
 29 28  1  0
 30  1  1  0
 31  1  1  0
 32  1  1  0
 33  2  1  0
 34  2  1  0
 35  4  1  0
 36  5  1  0
 37  6  1  0
 38  9  1  0
 39  9  1  0
 40 10  1  0
 41 10  1  0
 42 12  1  0
 43 12  1  0
 44 13  1  0
 45 14  1  0
 46 15  1  0
 47 15  1  0
 48 16  1  0
 49 16  1  0
 50 17  1  0
 51 22  1  0
 52 24  1  0
 53 24  1  0
 54 24  1  0
 55 26  1  0
 56 26  1  0
 57 27  1  0
 58 27  1  0
 59 11  1  0
 60 25  1  0
M  CHG  1  11   1
M  END
>  <b_m_subgroup_collapsed>  (707) 
0

>  <r_i_docking_score>  (707) 
-7.4913140505683504

>  <s_m_subgroup_title>  (707) 
glide-dock_SP_D22_pv

>  <s_m_subgroupid>  (707) 
glide-dock_SP_D22_pv

>  <Molecule ChEMBL ID>  (707) 
CHEMBL5758623

>  <Standard Type>  (707) 
Ki

>  <Standard Value>  (707) 
16.1

>  <label>  (707) 
1

$$$$
CHEMBL418802
     RDKit          3D

 60 65  0  0  1  0  0  0  0  0999 V2000
    5.0144    1.4170  -13.2918 C   0  0  0  0  0  0  0  0  0  0  0  0
    6.0860    2.3330  -13.4388 O   0  0  0  0  0  0  0  0  0  0  0  0
    7.1135    2.0329  -14.2484 C   0  0  0  0  0  0  0  0  0  0  0  0
    7.1622    1.0486  -14.9884 O   0  0  0  0  0  0  0  0  0  0  0  0
    8.1961    3.0100  -14.1676 C   0  0  0  0  0  0  0  0  0  0  0  0
    8.3927    4.0714  -13.3186 C   0  0  0  0  0  0  0  0  0  0  0  0
    9.6495    4.6696  -13.6850 C   0  0  0  0  0  0  0  0  0  0  0  0
   10.3996    5.7665  -13.2012 C   0  0  0  0  0  0  0  0  0  0  0  0
   11.6066    6.1604  -13.8447 C   0  0  0  0  0  0  0  0  0  0  0  0
   12.0879    5.4338  -14.9487 C   0  0  0  0  0  0  0  0  0  0  0  0
   11.3837    4.3082  -15.4154 C   0  0  0  0  0  0  0  0  0  0  0  0
   10.1752    3.9458  -14.7939 C   0  0  0  0  0  0  0  0  0  0  0  0
    9.2696    2.9297  -15.0382 N   0  0  0  0  0  0  0  0  0  0  0  0
   12.3135    7.2612  -13.4238 O   0  0  0  0  0  0  0  0  0  0  0  0
   12.0244    7.6402  -12.0882 C   0  0  0  0  0  0  0  0  0  0  0  0
   10.4947    7.7188  -11.8865 C   0  0  2  0  0  0  0  0  0  0  0  0
    9.9986    8.3436  -10.5719 C   0  0  0  0  0  0  0  0  0  0  0  0
   10.0420    7.4751   -9.3944 N   0  0  0  0  0  0  0  0  0  0  0  0
   11.3980    7.4277   -8.8434 C   0  0  0  0  0  0  0  0  0  0  0  0
   11.4623    6.5738   -7.5724 C   0  0  0  0  0  0  0  0  0  0  0  0
   10.4705    7.0269   -6.5108 C   0  0  0  0  0  0  0  0  0  0  0  0
   11.0035    8.1091   -5.6774 N   0  0  0  0  0  0  0  0  0  0  0  0
   11.2065    9.4217   -5.9500 C   0  0  0  0  0  0  0  0  0  0  0  0
   11.2226    9.9668   -7.0393 O   0  0  0  0  0  0  0  0  0  0  0  0
   11.5047   10.0494   -4.8066 N   0  0  0  0  0  0  0  0  0  0  0  0
   11.7704    9.1002   -3.8365 C   0  0  0  0  0  0  0  0  0  0  0  0
   12.2634    9.2250   -2.5389 C   0  0  0  0  0  0  0  0  0  0  0  0
   12.4859    8.0390   -1.8210 C   0  0  0  0  0  0  0  0  0  0  0  0
   12.1955    6.7730   -2.3808 C   0  0  0  0  0  0  0  0  0  0  0  0
   11.6863    6.6819   -3.6897 C   0  0  0  0  0  0  0  0  0  0  0  0
   11.4880    7.8771   -4.3911 C   0  0  0  0  0  0  0  0  0  0  0  0
    9.0791    7.2892   -7.1038 C   0  0  0  0  0  0  0  0  0  0  0  0
    9.1126    8.0617   -8.4233 C   0  0  0  0  0  0  0  0  0  0  0  0
    9.9161    6.4408  -12.1021 O   0  0  0  0  0  0  0  0  0  0  0  0
    4.1649    1.9249  -12.8351 H   0  0  0  0  0  0  0  0  0  0  0  0
    4.6895    1.0036  -14.2475 H   0  0  0  0  0  0  0  0  0  0  0  0
    5.3097    0.5923  -12.6417 H   0  0  0  0  0  0  0  0  0  0  0  0
    7.7509    4.4012  -12.5162 H   0  0  0  0  0  0  0  0  0  0  0  0
   13.0096    5.7359  -15.4269 H   0  0  0  0  0  0  0  0  0  0  0  0
   11.7593    3.7410  -16.2528 H   0  0  0  0  0  0  0  0  0  0  0  0
    9.3439    2.2060  -15.7379 H   0  0  0  0  0  0  0  0  0  0  0  0
   12.5213    8.5747  -11.8426 H   0  0  0  0  0  0  0  0  0  0  0  0
   12.4842    6.8904  -11.4644 H   0  0  0  0  0  0  0  0  0  0  0  0
   10.0856    8.3711  -12.6505 H   0  0  0  0  0  0  0  0  0  0  0  0
   10.5129    9.2850  -10.3687 H   0  0  0  0  0  0  0  0  0  0  0  0
    8.9548    8.6081  -10.7540 H   0  0  0  0  0  0  0  0  0  0  0  0
   12.0822    6.9731   -9.5435 H   0  0  0  0  0  0  0  0  0  0  0  0
   11.7895    8.4266   -8.6806 H   0  0  0  0  0  0  0  0  0  0  0  0
   11.2271    5.5417   -7.8441 H   0  0  0  0  0  0  0  0  0  0  0  0
   12.4843    6.5717   -7.1840 H   0  0  0  0  0  0  0  0  0  0  0  0
   10.3156    6.1741   -5.8535 H   0  0  0  0  0  0  0  0  0  0  0  0
   12.4857   10.1748   -2.0955 H   0  0  0  0  0  0  0  0  0  0  0  0
   12.8867    8.1058   -0.8217 H   0  0  0  0  0  0  0  0  0  0  0  0
   12.3742    5.8705   -1.8138 H   0  0  0  0  0  0  0  0  0  0  0  0
   11.4622    5.7325   -4.1333 H   0  0  0  0  0  0  0  0  0  0  0  0
    8.5945    6.3311   -7.2975 H   0  0  0  0  0  0  0  0  0  0  0  0
    8.4422    7.8048   -6.3835 H   0  0  0  0  0  0  0  0  0  0  0  0
    9.3430    9.1111   -8.2510 H   0  0  0  0  0  0  0  0  0  0  0  0
    8.1021    8.0437   -8.8266 H   0  0  0  0  0  0  0  0  0  0  0  0
   11.7193   11.0302   -4.7127 H   0  0  0  0  0  0  0  0  0  0  0  0
  2  1  1  0
  3  2  1  0
  4  3  2  0
  5  3  1  0
  6  5  2  0
  7  6  1  0
  8  7  2  0
  9  8  1  0
 10  9  2  0
 11 10  1  0
 12  7  1  0
 12 11  2  0
 13  5  1  0
 13 12  1  0
 14  9  1  0
 15 14  1  0
 16 15  1  0
 17 16  1  0
 18 17  1  0
 19 18  1  0
 20 19  1  0
 21 20  1  0
 22 21  1  0
 23 22  1  0
 24 23  2  0
 25 23  1  0
 26 25  1  0
 27 26  2  0
 28 27  1  0
 29 28  2  0
 30 29  1  0
 31 22  1  0
 31 26  1  0
 31 30  2  0
 32 21  1  0
 33 18  1  0
 33 32  1  0
 34  8  1  0
 34 16  1  0
 35  1  1  0
 36  1  1  0
 37  1  1  0
 38  6  1  0
 39 10  1  0
 40 11  1  0
 41 13  1  0
 42 15  1  0
 43 15  1  0
 16 44  1  6
 45 17  1  0
 46 17  1  0
 47 19  1  0
 48 19  1  0
 49 20  1  0
 50 20  1  0
 51 21  1  0
 52 27  1  0
 53 28  1  0
 54 29  1  0
 55 30  1  0
 56 32  1  0
 57 32  1  0
 58 33  1  0
 59 33  1  0
 60 25  1  0
M  END
>  <b_m_subgroup_collapsed>  (708) 
0

>  <r_i_docking_score>  (708) 
-7.4888812836451297

>  <s_m_subgroup_title>  (708) 
glide-dock_SP_D22_pv

>  <s_m_subgroupid>  (708) 
glide-dock_SP_D22_pv

>  <Molecule ChEMBL ID>  (708) 
CHEMBL418802

>  <Standard Type>  (708) 
Ki

>  <Standard Value>  (708) 
6.7

>  <label>  (708) 
1

$$$$
CHEMBL6053631
     RDKit          3D

 51 55  0  0  1  0  0  0  0  0999 V2000
   10.8037    1.7100  -15.1102 C   0  0  0  0  0  0  0  0  0  0  0  0
    9.3213    1.9056  -14.9783 C   0  0  0  0  0  0  0  0  0  0  0  0
    8.4686    1.1161  -15.6300 N   0  0  0  0  0  0  0  0  0  0  0  0
    7.1645    1.5370  -15.2913 O   0  0  0  0  0  0  0  0  0  0  0  0
    7.2880    2.5739  -14.4268 C   0  0  0  0  0  0  0  0  0  0  0  0
    8.5870    2.8525  -14.2236 C   0  0  0  0  0  0  0  0  0  0  0  0
    9.0359    3.9669  -13.3396 C   0  0  0  0  0  0  0  0  0  0  0  0
   10.2251    4.2791  -13.2767 O   0  0  0  0  0  0  0  0  0  0  0  0
    8.0386    4.5757  -12.6387 N   0  0  0  0  0  0  0  0  0  0  0  0
    8.3494    5.6676  -11.7107 C   0  0  0  0  0  0  0  0  0  0  0  0
    8.8925    5.1290  -10.3728 C   0  0  0  0  0  0  0  0  0  0  0  0
    9.1425    6.2112   -9.4253 N   0  0  0  0  0  0  0  0  0  0  0  0
    9.2012    5.6693   -8.0678 C   0  0  0  0  0  0  0  0  0  0  0  0
    9.3872    6.8038   -7.0473 C   0  0  0  0  0  0  0  0  0  0  0  0
   10.6214    7.5267   -7.3309 N   0  0  0  0  0  0  0  0  0  0  0  0
   10.9508    8.4588   -6.3387 C   0  0  0  0  0  0  0  0  0  0  0  0
   10.8871    9.7763   -6.4969 N   0  0  0  0  0  0  0  0  0  0  0  0
   11.2844   10.3608   -5.2625 O   0  0  0  0  0  0  0  0  0  0  0  0
   11.6240    9.3638   -4.3607 C   0  0  0  0  0  0  0  0  0  0  0  0
   12.0855    9.4197   -3.0397 C   0  0  0  0  0  0  0  0  0  0  0  0
   12.3479    8.2030   -2.3772 C   0  0  0  0  0  0  0  0  0  0  0  0
   12.1413    6.9723   -3.0440 C   0  0  0  0  0  0  0  0  0  0  0  0
   11.6833    6.9416   -4.3817 C   0  0  0  0  0  0  0  0  0  0  0  0
   11.4098    8.1621   -5.0381 C   0  0  0  0  0  0  0  0  0  0  0  0
   10.6197    8.0442   -8.6981 C   0  0  0  0  0  0  0  0  0  0  0  0
   10.4038    6.9017   -9.7086 C   0  0  0  0  0  0  0  0  0  0  0  0
    6.6095    4.1466  -12.6325 C   0  0  0  0  0  0  0  0  0  0  0  0
    6.1350    3.2869  -13.8388 C   0  0  0  0  0  0  0  0  0  0  0  0
   11.2436    2.4806  -15.7434 H   0  0  0  0  0  0  0  0  0  0  0  0
   11.2865    1.7668  -14.1352 H   0  0  0  0  0  0  0  0  0  0  0  0
   11.0463    0.7397  -15.5454 H   0  0  0  0  0  0  0  0  0  0  0  0
    7.4534    6.2544  -11.5159 H   0  0  0  0  0  0  0  0  0  0  0  0
    9.0544    6.3555  -12.1790 H   0  0  0  0  0  0  0  0  0  0  0  0
    9.7908    4.5264  -10.5138 H   0  0  0  0  0  0  0  0  0  0  0  0
    8.1330    4.4656   -9.9568 H   0  0  0  0  0  0  0  0  0  0  0  0
   10.0327    4.9720   -7.9910 H   0  0  0  0  0  0  0  0  0  0  0  0
    8.2820    5.1254   -7.8449 H   0  0  0  0  0  0  0  0  0  0  0  0
    9.4090    6.3909   -6.0393 H   0  0  0  0  0  0  0  0  0  0  0  0
    8.5366    7.4879   -7.0905 H   0  0  0  0  0  0  0  0  0  0  0  0
   12.2312   10.3684   -2.5471 H   0  0  0  0  0  0  0  0  0  0  0  0
   12.7126    8.2139   -1.3603 H   0  0  0  0  0  0  0  0  0  0  0  0
   12.3398    6.0424   -2.5292 H   0  0  0  0  0  0  0  0  0  0  0  0
   11.5349    6.0002   -4.8888 H   0  0  0  0  0  0  0  0  0  0  0  0
    9.8338    8.7930   -8.8116 H   0  0  0  0  0  0  0  0  0  0  0  0
   11.5694    8.5403   -8.9033 H   0  0  0  0  0  0  0  0  0  0  0  0
   11.2345    6.2000   -9.6540 H   0  0  0  0  0  0  0  0  0  0  0  0
   10.3941    7.3129  -10.7169 H   0  0  0  0  0  0  0  0  0  0  0  0
    6.4864    3.5520  -11.7258 H   0  0  0  0  0  0  0  0  0  0  0  0
    5.9389    4.9989  -12.5156 H   0  0  0  0  0  0  0  0  0  0  0  0
    5.6936    3.9313  -14.5996 H   0  0  0  0  0  0  0  0  0  0  0  0
    5.3594    2.5852  -13.5307 H   0  0  0  0  0  0  0  0  0  0  0  0
  2  1  1  0
  3  2  2  0
  4  3  1  0
  5  4  1  0
  6  2  1  0
  6  5  2  0
  7  6  1  0
  8  7  2  0
  9  7  1  0
 10  9  1  0
 11 10  1  0
 12 11  1  0
 13 12  1  0
 14 13  1  0
 15 14  1  0
 16 15  1  0
 17 16  2  0
 18 17  1  0
 19 18  1  0
 20 19  2  0
 21 20  1  0
 22 21  2  0
 23 22  1  0
 24 16  1  0
 24 19  1  0
 24 23  2  0
 25 15  1  0
 26 12  1  0
 26 25  1  0
 27  9  1  0
 28  5  1  0
 28 27  1  0
 29  1  1  0
 30  1  1  0
 31  1  1  0
 32 10  1  0
 33 10  1  0
 34 11  1  0
 35 11  1  0
 36 13  1  0
 37 13  1  0
 38 14  1  0
 39 14  1  0
 40 20  1  0
 41 21  1  0
 42 22  1  0
 43 23  1  0
 44 25  1  0
 45 25  1  0
 46 26  1  0
 47 26  1  0
 48 27  1  0
 49 27  1  0
 50 28  1  0
 51 28  1  0
M  END
>  <b_m_subgroup_collapsed>  (709) 
0

>  <r_i_docking_score>  (709) 
-7.4833444253464698

>  <s_m_subgroup_title>  (709) 
glide-dock_SP_D22_pv

>  <s_m_subgroupid>  (709) 
glide-dock_SP_D22_pv

>  <Molecule ChEMBL ID>  (709) 
CHEMBL6053631

>  <Standard Type>  (709) 
Ki

>  <Standard Value>  (709) 
48923.0

>  <label>  (709) 
0

$$$$
CHEMBL5722961
     RDKit          3D

 43 46  0  0  1  0  0  0  0  0999 V2000
   12.7307    8.6472   -1.6091 C   0  0  0  0  0  0  0  0  0  0  0  0
   12.2027    8.2418   -2.9655 C   0  0  0  0  0  0  0  0  0  0  0  0
   11.7610    6.9287   -3.1980 C   0  0  0  0  0  0  0  0  0  0  0  0
   11.2860    6.5723   -4.4725 C   0  0  0  0  0  0  0  0  0  0  0  0
   11.2442    7.4957   -5.5239 C   0  0  0  0  0  0  0  0  0  0  0  0
   10.7794    7.1199   -6.7934 N   0  0  0  0  0  0  0  0  0  0  0  0
   10.8008    7.9961   -7.8676 C   0  0  0  0  0  0  0  0  0  0  0  0
   10.2282    7.4903   -9.1836 C   0  0  0  0  0  0  0  0  0  0  0  0
   11.2592    7.3724  -10.2068 N   0  0  0  0  0  0  0  0  0  0  0  0
   10.6822    7.3025  -11.5487 C   0  0  0  0  0  0  0  0  0  0  0  0
    9.7909    6.1708  -11.9859 C   0  0  0  0  0  0  0  0  0  0  0  0
    8.4860    5.9720  -11.6197 C   0  0  0  0  0  0  0  0  0  0  0  0
    7.7894    4.5723  -12.3784 S   0  0  0  0  0  0  0  0  0  0  0  0
    9.3314    4.2768  -13.1848 C   0  0  0  0  0  0  0  0  0  0  0  0
    9.5143    3.1145  -14.0738 C   0  0  0  0  0  0  0  0  0  0  0  0
    8.4684    2.2977  -14.2471 N   0  0  0  0  0  0  0  0  0  0  0  0
    8.6378    1.2160  -15.0313 C   0  0  0  0  0  0  0  0  0  0  0  0
    9.8592    0.9554  -15.6730 C   0  0  0  0  0  0  0  0  0  0  0  0
   10.8860    1.8864  -15.4458 C   0  0  0  0  0  0  0  0  0  0  0  0
   10.7128    2.9561  -14.6465 N   0  0  0  0  0  0  0  0  0  0  0  0
   10.2521    5.2073  -12.8912 N   0  0  0  0  0  0  0  0  0  0  0  0
   11.2402    9.2616   -7.7225 C   0  0  0  0  0  0  0  0  0  0  0  0
   11.6601    9.7872   -6.4061 C   0  0  0  0  0  0  0  0  0  0  0  0
   11.9387   10.9723   -6.2469 O   0  0  0  0  0  0  0  0  0  0  0  0
   11.6860    8.8150   -5.2899 C   0  0  0  0  0  0  0  0  0  0  0  0
   12.1625    9.1795   -4.0116 C   0  0  0  0  0  0  0  0  0  0  0  0
   12.8860    7.7724   -0.9836 H   0  0  0  0  0  0  0  0  0  0  0  0
   13.6860    9.1568   -1.7128 H   0  0  0  0  0  0  0  0  0  0  0  0
   12.0367    9.3208   -1.1073 H   0  0  0  0  0  0  0  0  0  0  0  0
   11.7782    6.1906   -2.4087 H   0  0  0  0  0  0  0  0  0  0  0  0
   10.9324    5.5746   -4.6468 H   0  0  0  0  0  0  0  0  0  0  0  0
   10.4218    6.1835   -6.9233 H   0  0  0  0  0  0  0  0  0  0  0  0
    9.4556    8.1925   -9.5026 H   0  0  0  0  0  0  0  0  0  0  0  0
    9.7412    6.5243   -9.0425 H   0  0  0  0  0  0  0  0  0  0  0  0
   11.8452    8.1947  -10.1723 H   0  0  0  0  0  0  0  0  0  0  0  0
   11.5304    7.3496  -12.2325 H   0  0  0  0  0  0  0  0  0  0  0  0
   10.1486    8.2392  -11.7147 H   0  0  0  0  0  0  0  0  0  0  0  0
    7.8828    6.5723  -10.9579 H   0  0  0  0  0  0  0  0  0  0  0  0
    7.7908    0.5567  -15.1517 H   0  0  0  0  0  0  0  0  0  0  0  0
    9.9980    0.0920  -16.3056 H   0  0  0  0  0  0  0  0  0  0  0  0
   11.8581    1.7676  -15.9012 H   0  0  0  0  0  0  0  0  0  0  0  0
   11.2581    9.9302   -8.5681 H   0  0  0  0  0  0  0  0  0  0  0  0
   12.5228   10.1723   -3.8202 H   0  0  0  0  0  0  0  0  0  0  0  0
  2  1  1  0
  3  2  2  0
  4  3  1  0
  5  4  2  0
  6  5  1  0
  7  6  1  0
  8  7  1  0
  9  8  1  0
 10  9  1  0
 11 10  1  0
 12 11  2  0
 13 12  1  0
 14 13  1  0
 15 14  1  0
 16 15  2  0
 17 16  1  0
 18 17  2  0
 19 18  1  0
 20 15  1  0
 20 19  2  0
 21 11  1  0
 21 14  2  0
 22  7  2  0
 23 22  1  0
 24 23  2  0
 25  5  1  0
 25 23  1  0
 26  2  1  0
 26 25  2  0
 27  1  1  0
 28  1  1  0
 29  1  1  0
 30  3  1  0
 31  4  1  0
 32  6  1  0
 33  8  1  0
 34  8  1  0
 35  9  1  0
 36 10  1  0
 37 10  1  0
 38 12  1  0
 39 17  1  0
 40 18  1  0
 41 19  1  0
 42 22  1  0
 43 26  1  0
M  END
>  <b_m_subgroup_collapsed>  (710) 
0

>  <r_i_docking_score>  (710) 
-7.4832055679603204

>  <s_m_subgroup_title>  (710) 
glide-dock_SP_D22_pv

>  <s_m_subgroupid>  (710) 
glide-dock_SP_D22_pv

>  <Molecule ChEMBL ID>  (710) 
CHEMBL5722961

>  <Standard Type>  (710) 
Ki

>  <Standard Value>  (710) 
10000.0

>  <label>  (710) 
0

$$$$
CHEMBL5280364
     RDKit          3D

 53 56  0  0  1  0  0  0  0  0999 V2000
   13.0829    7.3694  -16.5688 C   0  0  0  0  0  0  0  0  0  0  0  0
   13.3128    6.9716  -15.1100 C   0  0  0  0  0  0  0  0  0  0  0  0
   12.1485    6.3700  -14.5789 O   0  0  0  0  0  0  0  0  0  0  0  0
   11.7422    6.6348  -13.3207 C   0  0  0  0  0  0  0  0  0  0  0  0
   12.3185    7.3740  -12.5202 O   0  0  0  0  0  0  0  0  0  0  0  0
   10.4525    6.0081  -13.0423 C   0  0  0  0  0  0  0  0  0  0  0  0
   10.1218    4.8491  -13.7211 N   0  0  0  0  0  0  0  0  0  0  0  0
    8.8244    4.4854  -13.4636 C   0  0  0  0  0  0  0  0  0  0  0  0
    8.0299    3.4429  -13.9677 C   0  0  0  0  0  0  0  0  0  0  0  0
    6.6889    3.3503  -13.5620 C   0  0  0  0  0  0  0  0  0  0  0  0
    6.1716    4.2801  -12.6458 C   0  0  0  0  0  0  0  0  0  0  0  0
    4.8860    4.1723  -12.2568 F   0  0  0  0  0  0  0  0  0  0  0  0
    6.9798    5.3177  -12.1396 C   0  0  0  0  0  0  0  0  0  0  0  0
    8.3317    5.4505  -12.5349 C   0  0  0  0  0  0  0  0  0  0  0  0
    9.3912    6.3886  -12.2461 C   0  0  0  0  0  0  0  0  0  0  0  0
    9.2909    7.6293  -11.3917 C   0  0  0  0  0  0  0  0  0  0  0  0
    9.2861    7.3909   -9.9225 N   0  0  0  0  0  0  0  0  0  0  0  0
    9.2898    8.6761   -9.1782 C   0  0  0  0  0  0  0  0  0  0  0  0
    9.2202    8.4340   -7.6663 C   0  0  0  0  0  0  0  0  0  0  0  0
   10.3657    7.6422   -7.2512 N   0  0  0  0  0  0  0  0  0  0  0  0
   10.9043    7.8638   -5.9624 C   0  0  0  0  0  0  0  0  0  0  0  0
   11.2852    6.7919   -5.1216 C   0  0  0  0  0  0  0  0  0  0  0  0
   11.8060    7.0167   -3.8329 C   0  0  0  0  0  0  0  0  0  0  0  0
   11.9569    8.3300   -3.3561 C   0  0  0  0  0  0  0  0  0  0  0  0
   11.5900    9.4100   -4.1770 C   0  0  0  0  0  0  0  0  0  0  0  0
   11.0853    9.1811   -5.4719 C   0  0  0  0  0  0  0  0  0  0  0  0
   10.4005    6.3334   -7.8952 C   0  0  0  0  0  0  0  0  0  0  0  0
   10.3480    6.4636   -9.4379 C   0  0  0  0  0  0  0  0  0  0  0  0
   13.9964    7.7693  -17.0068 H   0  0  0  0  0  0  0  0  0  0  0  0
   12.7701    6.5143  -17.1673 H   0  0  0  0  0  0  0  0  0  0  0  0
   12.3189    8.1389  -16.6495 H   0  0  0  0  0  0  0  0  0  0  0  0
   13.6143    7.8496  -14.5390 H   0  0  0  0  0  0  0  0  0  0  0  0
   14.1325    6.2557  -15.0474 H   0  0  0  0  0  0  0  0  0  0  0  0
   10.7503    4.4114  -14.3810 H   0  0  0  0  0  0  0  0  0  0  0  0
    8.4383    2.7310  -14.6697 H   0  0  0  0  0  0  0  0  0  0  0  0
    6.0575    2.5623  -13.9453 H   0  0  0  0  0  0  0  0  0  0  0  0
    6.5486    6.0265  -11.4469 H   0  0  0  0  0  0  0  0  0  0  0  0
    8.3760    8.1645  -11.6517 H   0  0  0  0  0  0  0  0  0  0  0  0
   10.0992    8.3194  -11.6298 H   0  0  0  0  0  0  0  0  0  0  0  0
    8.4425    9.2878   -9.4902 H   0  0  0  0  0  0  0  0  0  0  0  0
   10.1913    9.2418   -9.4188 H   0  0  0  0  0  0  0  0  0  0  0  0
    8.3053    7.8938   -7.4159 H   0  0  0  0  0  0  0  0  0  0  0  0
    9.1535    9.3719   -7.1347 H   0  0  0  0  0  0  0  0  0  0  0  0
   11.1687    5.7735   -5.4446 H   0  0  0  0  0  0  0  0  0  0  0  0
   12.0785    6.1783   -3.2082 H   0  0  0  0  0  0  0  0  0  0  0  0
   12.3426    8.5079   -2.3627 H   0  0  0  0  0  0  0  0  0  0  0  0
   11.6845   10.4186   -3.8060 H   0  0  0  0  0  0  0  0  0  0  0  0
   10.8402   10.0380   -6.0793 H   0  0  0  0  0  0  0  0  0  0  0  0
   11.2984    5.7837   -7.6169 H   0  0  0  0  0  0  0  0  0  0  0  0
    9.5486    5.7517   -7.5428 H   0  0  0  0  0  0  0  0  0  0  0  0
   10.2048    5.4736   -9.8705 H   0  0  0  0  0  0  0  0  0  0  0  0
   11.3100    6.8311   -9.7946 H   0  0  0  0  0  0  0  0  0  0  0  0
    8.3853    6.9706   -9.7153 H   0  0  0  0  0  0  0  0  0  0  0  0
  2  1  1  0
  3  2  1  0
  4  3  1  0
  5  4  2  0
  6  4  1  0
  7  6  1  0
  8  7  1  0
  9  8  2  0
 10  9  1  0
 11 10  2  0
 12 11  1  0
 13 11  1  0
 14  8  1  0
 14 13  2  0
 15  6  2  0
 15 14  1  0
 16 15  1  0
 17 16  1  0
 18 17  1  0
 19 18  1  0
 20 19  1  0
 21 20  1  0
 22 21  2  0
 23 22  1  0
 24 23  2  0
 25 24  1  0
 26 21  1  0
 26 25  2  0
 27 20  1  0
 28 17  1  0
 28 27  1  0
 29  1  1  0
 30  1  1  0
 31  1  1  0
 32  2  1  0
 33  2  1  0
 34  7  1  0
 35  9  1  0
 36 10  1  0
 37 13  1  0
 38 16  1  0
 39 16  1  0
 40 18  1  0
 41 18  1  0
 42 19  1  0
 43 19  1  0
 44 22  1  0
 45 23  1  0
 46 24  1  0
 47 25  1  0
 48 26  1  0
 49 27  1  0
 50 27  1  0
 51 28  1  0
 52 28  1  0
 53 17  1  0
M  CHG  1  17   1
M  END
>  <b_m_subgroup_collapsed>  (711) 
0

>  <r_i_docking_score>  (711) 
-7.4785396991409501

>  <s_m_subgroup_title>  (711) 
glide-dock_SP_D22_pv

>  <s_m_subgroupid>  (711) 
glide-dock_SP_D22_pv

>  <Molecule ChEMBL ID>  (711) 
CHEMBL5280364

>  <Standard Type>  (711) 
Ki

>  <Standard Value>  (711) 
22000.0

>  <label>  (711) 
0

$$$$
CHEMBL116367
     RDKit          3D

 37 40  0  0  1  0  0  0  0  0999 V2000
   12.9615    6.8118  -16.3014 C   0  0  0  0  0  0  0  0  0  0  0  0
   12.0860    6.3653  -15.1422 C   0  0  0  0  0  0  0  0  0  0  0  0
   11.2666    5.2355  -15.2988 C   0  0  0  0  0  0  0  0  0  0  0  0
   10.4391    4.8288  -14.2445 C   0  0  0  0  0  0  0  0  0  0  0  0
   10.4396    5.5381  -13.0278 C   0  0  0  0  0  0  0  0  0  0  0  0
   11.2775    6.6676  -12.8168 C   0  0  0  0  0  0  0  0  0  0  0  0
   12.0863    7.0752  -13.9180 C   0  0  0  0  0  0  0  0  0  0  0  0
   12.8860    8.1723  -13.8469 O   0  0  0  0  0  0  0  0  0  0  0  0
   11.2798    7.3004  -11.4536 C   0  0  0  0  0  0  0  0  0  0  0  0
   12.3682    8.0384  -10.9152 C   0  0  0  0  0  0  0  0  0  0  0  0
   12.4338    8.4432   -9.5675 C   0  0  0  0  0  0  0  0  0  0  0  0
   11.4002    8.1532   -8.6776 C   0  0  0  0  0  0  0  0  0  0  0  0
   10.2941    7.4342   -9.1364 C   0  0  0  0  0  0  0  0  0  0  0  0
   10.2512    7.0389  -10.5039 C   0  0  0  0  0  0  0  0  0  0  0  0
    9.0586    6.2361  -11.0469 C   0  0  1  0  0  0  0  0  0  0  0  0
    9.5103    5.0680  -11.9289 C   0  0  0  0  0  0  0  0  0  0  0  0
    8.0860    5.7723  -10.0439 N   0  0  0  0  0  0  0  0  0  0  0  0
    8.5933    5.6285   -8.6784 C   0  0  0  0  0  0  0  0  0  0  0  0
    9.1624    6.9691   -8.2449 C   0  0  0  0  0  0  0  0  0  0  0  0
   14.0129    6.7993  -16.0120 H   0  0  0  0  0  0  0  0  0  0  0  0
   12.6957    7.8226  -16.6136 H   0  0  0  0  0  0  0  0  0  0  0  0
   12.8452    6.1554  -17.1642 H   0  0  0  0  0  0  0  0  0  0  0  0
   11.2596    4.6848  -16.2281 H   0  0  0  0  0  0  0  0  0  0  0  0
    9.8014    3.9663  -14.3746 H   0  0  0  0  0  0  0  0  0  0  0  0
   13.4053    8.2851  -14.6273 H   0  0  0  0  0  0  0  0  0  0  0  0
   13.2345    8.2599  -11.5161 H   0  0  0  0  0  0  0  0  0  0  0  0
   13.2961    8.9723   -9.1950 H   0  0  0  0  0  0  0  0  0  0  0  0
   11.4719    8.4562   -7.6432 H   0  0  0  0  0  0  0  0  0  0  0  0
    8.4996    6.9247  -11.6833 H   0  0  0  0  0  0  0  0  0  0  0  0
    8.6439    4.5709  -12.3681 H   0  0  0  0  0  0  0  0  0  0  0  0
   10.0369    4.3208  -11.3332 H   0  0  0  0  0  0  0  0  0  0  0  0
    7.3743    6.5085  -10.0040 H   0  0  0  0  0  0  0  0  0  0  0  0
    7.7782    5.3367   -8.0156 H   0  0  0  0  0  0  0  0  0  0  0  0
    9.3508    4.8441   -8.6382 H   0  0  0  0  0  0  0  0  0  0  0  0
    9.5287    6.8879   -7.2207 H   0  0  0  0  0  0  0  0  0  0  0  0
    8.4020    7.7468   -8.2326 H   0  0  0  0  0  0  0  0  0  0  0  0
    7.6207    4.9272  -10.3426 H   0  0  0  0  0  0  0  0  0  0  0  0
  2  1  1  0
  3  2  2  0
  4  3  1  0
  5  4  2  0
  6  5  1  0
  7  2  1  0
  7  6  2  0
  8  7  1  0
  9  6  1  0
 10  9  1  0
 11 10  2  0
 12 11  1  0
 13 12  2  0
 14  9  2  0
 14 13  1  0
 15 14  1  0
 16  5  1  0
 16 15  1  0
 17 15  1  0
 18 17  1  0
 19 13  1  0
 19 18  1  0
 20  1  1  0
 21  1  1  0
 22  1  1  0
 23  3  1  0
 24  4  1  0
 25  8  1  0
 26 10  1  0
 27 11  1  0
 28 12  1  0
 15 29  1  6
 30 16  1  0
 31 16  1  0
 32 17  1  0
 33 18  1  0
 34 18  1  0
 35 19  1  0
 36 19  1  0
 37 17  1  0
M  CHG  1  17   1
M  END
>  <b_m_subgroup_collapsed>  (712) 
0

>  <r_i_docking_score>  (712) 
-7.47747749546176

>  <s_m_subgroup_title>  (712) 
glide-dock_SP_D22_pv

>  <s_m_subgroupid>  (712) 
glide-dock_SP_D22_pv

>  <Molecule ChEMBL ID>  (712) 
CHEMBL116367

>  <Standard Type>  (712) 
Ki

>  <Standard Value>  (712) 
10000.0

>  <label>  (712) 
0

$$$$
CHEMBL3929237
     RDKit          3D

 57 61  0  0  1  0  0  0  0  0999 V2000
    4.4860    0.1669  -13.4469 O   0  0  0  0  0  0  0  0  0  0  0  0
    5.4113    0.2759  -14.2469 C   0  0  0  0  0  0  0  0  0  0  0  0
    5.5798   -0.5887  -15.2600 N   0  0  0  0  0  0  0  0  0  0  0  0
    6.6117   -0.4654  -16.2870 C   0  0  0  0  0  0  0  0  0  0  0  0
    7.9187    0.1149  -15.7115 C   0  0  0  0  0  0  0  0  0  0  0  0
    7.6292    1.3311  -14.8530 C   0  0  0  0  0  0  0  0  0  0  0  0
    8.5708    2.3716  -14.7486 C   0  0  0  0  0  0  0  0  0  0  0  0
    8.2703    3.5240  -14.0000 C   0  0  0  0  0  0  0  0  0  0  0  0
    7.0124    3.6585  -13.3599 C   0  0  0  0  0  0  0  0  0  0  0  0
    6.6221    4.7659  -12.6373 O   0  0  0  0  0  0  0  0  0  0  0  0
    7.5747    5.7790  -12.3192 C   0  0  0  0  0  0  0  0  0  0  0  0
    8.3931    5.4111  -11.0657 C   0  0  0  0  0  0  0  0  0  0  0  0
    9.3838    6.5252  -10.6612 C   0  0  0  0  0  0  0  0  0  0  0  0
    9.9062    6.3734   -9.2974 N   0  0  0  0  0  0  0  0  0  0  0  0
    8.8860    6.8424   -8.3455 C   0  0  0  0  0  0  0  0  0  0  0  0
    9.3631    6.7978   -6.8814 C   0  0  0  0  0  0  0  0  0  0  0  0
   10.6647    7.4224   -6.7424 N   0  0  0  0  0  0  0  0  0  0  0  0
   10.9569    8.2960   -5.7001 C   0  0  0  0  0  0  0  0  0  0  0  0
   10.6668    9.6457   -5.9209 C   0  0  0  0  0  0  0  0  0  0  0  0
   10.8860   10.5723   -4.9014 C   0  0  0  0  0  0  0  0  0  0  0  0
   11.4288   10.1723   -3.6769 C   0  0  0  0  0  0  0  0  0  0  0  0
   11.7658    8.8447   -3.4707 C   0  0  0  0  0  0  0  0  0  0  0  0
   12.4860    8.1723   -2.0282 S   0  0  0  0  0  0  0  0  0  0  0  0
   12.4007    6.5898   -2.7202 C   0  0  0  0  0  0  0  0  0  0  0  0
   11.8978    6.5644   -3.9978 C   0  0  0  0  0  0  0  0  0  0  0  0
   11.5288    7.8612   -4.4740 C   0  0  0  0  0  0  0  0  0  0  0  0
   11.6802    7.1055   -7.7132 C   0  0  0  0  0  0  0  0  0  0  0  0
   11.0892    7.2284   -9.1369 C   0  0  0  0  0  0  0  0  0  0  0  0
    6.0860    2.5948  -13.4469 C   0  0  0  0  0  0  0  0  0  0  0  0
    6.3897    1.4227  -14.1792 C   0  0  0  0  0  0  0  0  0  0  0  0
    4.9370   -1.3638  -15.3364 H   0  0  0  0  0  0  0  0  0  0  0  0
    6.7795   -1.4277  -16.7699 H   0  0  0  0  0  0  0  0  0  0  0  0
    6.2269    0.2029  -17.0586 H   0  0  0  0  0  0  0  0  0  0  0  0
    8.6065    0.3707  -16.5180 H   0  0  0  0  0  0  0  0  0  0  0  0
    8.4182   -0.6276  -15.0880 H   0  0  0  0  0  0  0  0  0  0  0  0
    9.5243    2.2945  -15.2503 H   0  0  0  0  0  0  0  0  0  0  0  0
    9.0244    4.2925  -13.9487 H   0  0  0  0  0  0  0  0  0  0  0  0
    6.9978    6.6786  -12.1159 H   0  0  0  0  0  0  0  0  0  0  0  0
    8.2077    6.0509  -13.1626 H   0  0  0  0  0  0  0  0  0  0  0  0
    8.9391    4.4814  -11.2268 H   0  0  0  0  0  0  0  0  0  0  0  0
    7.6860    5.2080  -10.2638 H   0  0  0  0  0  0  0  0  0  0  0  0
    8.9132    7.5047  -10.7676 H   0  0  0  0  0  0  0  0  0  0  0  0
   10.2102    6.5071  -11.3728 H   0  0  0  0  0  0  0  0  0  0  0  0
    8.0011    6.2149   -8.4243 H   0  0  0  0  0  0  0  0  0  0  0  0
    8.5784    7.8599   -8.5926 H   0  0  0  0  0  0  0  0  0  0  0  0
    9.4413    5.7723   -6.5454 H   0  0  0  0  0  0  0  0  0  0  0  0
    8.6291    7.2932   -6.2469 H   0  0  0  0  0  0  0  0  0  0  0  0
   10.2535    9.9589   -6.8680 H   0  0  0  0  0  0  0  0  0  0  0  0
   10.6581   11.6102   -5.0469 H   0  0  0  0  0  0  0  0  0  0  0  0
   11.6354   10.8940   -2.8999 H   0  0  0  0  0  0  0  0  0  0  0  0
   12.7409    5.7494   -2.1351 H   0  0  0  0  0  0  0  0  0  0  0  0
   11.7702    5.6892   -4.6088 H   0  0  0  0  0  0  0  0  0  0  0  0
   12.5116    7.8009   -7.6164 H   0  0  0  0  0  0  0  0  0  0  0  0
   12.0430    6.1125   -7.4469 H   0  0  0  0  0  0  0  0  0  0  0  0
   11.8490    6.9689   -9.8733 H   0  0  0  0  0  0  0  0  0  0  0  0
   10.8191    8.2681   -9.3315 H   0  0  0  0  0  0  0  0  0  0  0  0
    5.1350    2.6849  -12.9415 H   0  0  0  0  0  0  0  0  0  0  0  0
  2  1  2  0
  3  2  1  0
  4  3  1  0
  5  4  1  0
  6  5  1  0
  7  6  1  0
  8  7  2  0
  9  8  1  0
 10  9  1  0
 11 10  1  0
 12 11  1  0
 13 12  1  0
 14 13  1  0
 15 14  1  0
 16 15  1  0
 17 16  1  0
 18 17  1  0
 19 18  1  0
 20 19  2  0
 21 20  1  0
 22 21  2  0
 23 22  1  0
 24 23  1  0
 25 24  2  0
 26 18  2  0
 26 22  1  0
 26 25  1  0
 27 17  1  0
 28 14  1  0
 28 27  1  0
 29  9  2  0
 30  2  1  0
 30  6  2  0
 30 29  1  0
 31  3  1  0
 32  4  1  0
 33  4  1  0
 34  5  1  0
 35  5  1  0
 36  7  1  0
 37  8  1  0
 38 11  1  0
 39 11  1  0
 40 12  1  0
 41 12  1  0
 42 13  1  0
 43 13  1  0
 44 15  1  0
 45 15  1  0
 46 16  1  0
 47 16  1  0
 48 19  1  0
 49 20  1  0
 50 21  1  0
 51 24  1  0
 52 25  1  0
 53 27  1  0
 54 27  1  0
 55 28  1  0
 56 28  1  0
 57 29  1  0
M  END
>  <b_m_subgroup_collapsed>  (713) 
0

>  <r_i_docking_score>  (713) 
-7.4745890084120399

>  <s_m_subgroup_title>  (713) 
glide-dock_SP_D22_pv

>  <s_m_subgroupid>  (713) 
glide-dock_SP_D22_pv

>  <Molecule ChEMBL ID>  (713) 
CHEMBL3929237

>  <Standard Type>  (713) 
Ki

>  <Standard Value>  (713) 
35.2

>  <label>  (713) 
1

$$$$
CHEMBL126313
     RDKit          3D

 60 63  0  0  1  0  0  0  0  0999 V2000
    8.5757    2.0394  -17.9460 C   0  0  0  0  0  0  0  0  0  0  0  0
    8.0752    2.3976  -16.6658 O   0  0  0  0  0  0  0  0  0  0  0  0
    7.2972    1.4875  -15.9742 C   0  0  0  0  0  0  0  0  0  0  0  0
    6.8722    0.2648  -16.5528 C   0  0  0  0  0  0  0  0  0  0  0  0
    6.0605   -0.6278  -15.8344 C   0  0  0  0  0  0  0  0  0  0  0  0
    5.6756   -0.3290  -14.5199 C   0  0  0  0  0  0  0  0  0  0  0  0
    6.0854    0.8782  -13.9318 C   0  0  0  0  0  0  0  0  0  0  0  0
    6.8862    1.8058  -14.6470 C   0  0  0  0  0  0  0  0  0  0  0  0
    7.2490    3.0368  -14.0539 N   0  0  0  0  0  0  0  0  0  0  0  0
    8.6826    3.2618  -13.8757 C   0  0  0  0  0  0  0  0  0  0  0  0
    8.9708    4.7484  -13.6157 C   0  0  0  0  0  0  0  0  0  0  0  0
    8.1683    5.2633  -12.4772 N   0  0  0  0  0  0  0  0  0  0  0  0
    8.4324    6.6882  -12.1723 C   0  0  0  0  0  0  0  0  0  0  0  0
    9.8176    6.9681  -11.5615 C   0  0  0  0  0  0  0  0  0  0  0  0
    9.8920    8.3924  -10.9689 C   0  0  0  0  0  0  0  0  0  0  0  0
   11.2512    8.7487  -10.3090 C   0  0  0  0  0  0  0  0  0  0  0  0
   11.2083    8.8501   -8.8517 N   0  0  0  0  0  0  0  0  0  0  0  0
   10.9146    7.8434   -8.0218 C   0  0  0  0  0  0  0  0  0  0  0  0
   10.4860    6.7630   -8.4281 O   0  0  0  0  0  0  0  0  0  0  0  0
   11.2187    8.0471   -6.5862 C   0  0  0  0  0  0  0  0  0  0  0  0
   11.2299    6.5724   -5.6921 S   0  0  0  0  0  0  0  0  0  0  0  0
   11.7286    7.3534   -4.2285 C   0  0  0  0  0  0  0  0  0  0  0  0
   12.0852    6.7507   -3.0130 C   0  0  0  0  0  0  0  0  0  0  0  0
   12.4860    7.5505   -1.9381 C   0  0  0  0  0  0  0  0  0  0  0  0
   12.4664    8.9416   -2.0498 C   0  0  0  0  0  0  0  0  0  0  0  0
   12.0862    9.5166   -3.2690 C   0  0  0  0  0  0  0  0  0  0  0  0
   11.7695    8.7606   -4.4147 C   0  0  0  0  0  0  0  0  0  0  0  0
   11.5118    9.1317   -5.7908 C   0  0  0  0  0  0  0  0  0  0  0  0
   11.6846   10.7484   -6.2469 Cl  0  0  0  0  0  0  0  0  0  0  0  0
    6.7103    5.0241  -12.6564 C   0  0  0  0  0  0  0  0  0  0  0  0
    6.3883    3.5619  -12.9916 C   0  0  0  0  0  0  0  0  0  0  0  0
    9.2096    2.8429  -18.3205 H   0  0  0  0  0  0  0  0  0  0  0  0
    9.1842    1.1355  -17.8984 H   0  0  0  0  0  0  0  0  0  0  0  0
    7.7696    1.8952  -18.6657 H   0  0  0  0  0  0  0  0  0  0  0  0
    7.1494   -0.0171  -17.5566 H   0  0  0  0  0  0  0  0  0  0  0  0
    5.7499   -1.5590  -16.2866 H   0  0  0  0  0  0  0  0  0  0  0  0
    5.0674   -1.0284  -13.9660 H   0  0  0  0  0  0  0  0  0  0  0  0
    5.7686    1.0709  -12.9188 H   0  0  0  0  0  0  0  0  0  0  0  0
    9.0450    2.6567  -13.0470 H   0  0  0  0  0  0  0  0  0  0  0  0
    9.2597    2.9377  -14.7391 H   0  0  0  0  0  0  0  0  0  0  0  0
   10.0346    4.8745  -13.4152 H   0  0  0  0  0  0  0  0  0  0  0  0
    8.7440    5.3297  -14.5115 H   0  0  0  0  0  0  0  0  0  0  0  0
    8.2487    7.3114  -13.0468 H   0  0  0  0  0  0  0  0  0  0  0  0
    7.6861    6.9727  -11.4469 H   0  0  0  0  0  0  0  0  0  0  0  0
   10.0245    6.2280  -10.7907 H   0  0  0  0  0  0  0  0  0  0  0  0
   10.5939    6.8508  -12.3180 H   0  0  0  0  0  0  0  0  0  0  0  0
    9.6867    9.0810  -11.7871 H   0  0  0  0  0  0  0  0  0  0  0  0
    9.0777    8.5459  -10.2579 H   0  0  0  0  0  0  0  0  0  0  0  0
   12.0271    8.0402  -10.6032 H   0  0  0  0  0  0  0  0  0  0  0  0
   11.5980    9.7245  -10.6472 H   0  0  0  0  0  0  0  0  0  0  0  0
   11.5577    9.7026   -8.4385 H   0  0  0  0  0  0  0  0  0  0  0  0
   12.0883    5.6790   -2.9175 H   0  0  0  0  0  0  0  0  0  0  0  0
   12.8860    7.0963   -1.0469 H   0  0  0  0  0  0  0  0  0  0  0  0
   12.7627    9.5636   -1.2174 H   0  0  0  0  0  0  0  0  0  0  0  0
   12.0826   10.5723   -3.3383 H   0  0  0  0  0  0  0  0  0  0  0  0
    6.1723    5.3081  -11.7499 H   0  0  0  0  0  0  0  0  0  0  0  0
    6.3290    5.6658  -13.4466 H   0  0  0  0  0  0  0  0  0  0  0  0
    5.3438    3.4884  -13.2979 H   0  0  0  0  0  0  0  0  0  0  0  0
    6.4861    2.9703  -12.0838 H   0  0  0  0  0  0  0  0  0  0  0  0
    8.4359    4.7347  -11.6590 H   0  0  0  0  0  0  0  0  0  0  0  0
  2  1  1  0
  3  2  1  0
  4  3  2  0
  5  4  1  0
  6  5  2  0
  7  6  1  0
  8  3  1  0
  8  7  2  0
  9  8  1  0
 10  9  1  0
 11 10  1  0
 12 11  1  0
 13 12  1  0
 14 13  1  0
 15 14  1  0
 16 15  1  0
 17 16  1  0
 18 17  1  0
 19 18  2  0
 20 18  1  0
 21 20  1  0
 22 21  1  0
 23 22  2  0
 24 23  1  0
 25 24  2  0
 26 25  1  0
 27 22  1  0
 27 26  2  0
 28 20  2  0
 28 27  1  0
 29 28  1  0
 30 12  1  0
 31  9  1  0
 31 30  1  0
 32  1  1  0
 33  1  1  0
 34  1  1  0
 35  4  1  0
 36  5  1  0
 37  6  1  0
 38  7  1  0
 39 10  1  0
 40 10  1  0
 41 11  1  0
 42 11  1  0
 43 13  1  0
 44 13  1  0
 45 14  1  0
 46 14  1  0
 47 15  1  0
 48 15  1  0
 49 16  1  0
 50 16  1  0
 51 17  1  0
 52 23  1  0
 53 24  1  0
 54 25  1  0
 55 26  1  0
 56 30  1  0
 57 30  1  0
 58 31  1  0
 59 31  1  0
 60 12  1  0
M  CHG  1  12   1
M  END
>  <b_m_subgroup_collapsed>  (714) 
0

>  <r_i_docking_score>  (714) 
-7.4723146984295497

>  <s_m_subgroup_title>  (714) 
glide-dock_SP_D22_pv

>  <s_m_subgroupid>  (714) 
glide-dock_SP_D22_pv

>  <Molecule ChEMBL ID>  (714) 
CHEMBL126313

>  <Standard Type>  (714) 
Ki

>  <Standard Value>  (714) 
71.9

>  <label>  (714) 
1

$$$$
CHEMBL1813593
     RDKit          3D

 65 68  0  0  1  0  0  0  0  0999 V2000
   11.8075   11.0741   -6.1775 C   0  0  0  0  0  0  0  0  0  0  0  0
   11.2671    9.7993   -6.3981 O   0  0  0  0  0  0  0  0  0  0  0  0
   11.3892    8.8835   -5.3746 C   0  0  0  0  0  0  0  0  0  0  0  0
   11.9632    9.1886   -4.1124 C   0  0  0  0  0  0  0  0  0  0  0  0
   12.1180    8.2134   -3.1164 C   0  0  0  0  0  0  0  0  0  0  0  0
   12.6825    8.6058   -1.7659 C   0  0  0  0  0  0  0  0  0  0  0  0
   11.7530    6.8902   -3.3992 C   0  0  0  0  0  0  0  0  0  0  0  0
   11.1865    6.5803   -4.6489 C   0  0  0  0  0  0  0  0  0  0  0  0
   10.9425    7.5688   -5.6278 C   0  0  0  0  0  0  0  0  0  0  0  0
   10.2783    7.2690   -6.8372 N   0  0  0  0  0  0  0  0  0  0  0  0
   10.3595    5.9590   -7.4604 C   0  0  0  0  0  0  0  0  0  0  0  0
   10.3333    6.0806   -8.9981 C   0  0  0  0  0  0  0  0  0  0  0  0
    9.2761    6.9995   -9.4937 N   0  0  0  0  0  0  0  0  0  0  0  0
    9.2329    7.0943  -10.9749 C   0  0  0  0  0  0  0  0  0  0  0  0
    8.2727    6.0532  -11.5996 C   0  0  0  0  0  0  0  0  0  0  0  0
    8.8191    5.4123  -12.8847 C   0  0  0  0  0  0  0  0  0  0  0  0
    9.7628    4.2366  -12.5919 C   0  0  0  0  0  0  0  0  0  0  0  0
   10.5084    3.8566  -13.7396 O   0  0  0  0  0  0  0  0  0  0  0  0
    9.9977    2.9041  -14.5945 C   0  0  0  0  0  0  0  0  0  0  0  0
    8.6658    2.4208  -14.5644 C   0  0  0  0  0  0  0  0  0  0  0  0
    8.2405    1.4370  -15.4785 C   0  0  0  0  0  0  0  0  0  0  0  0
    9.1433    0.9208  -16.4277 C   0  0  0  0  0  0  0  0  0  0  0  0
   10.4722    1.3921  -16.4608 C   0  0  0  0  0  0  0  0  0  0  0  0
   10.8869    2.3870  -15.5564 C   0  0  0  0  0  0  0  0  0  0  0  0
   11.3900    0.8749  -17.4084 N   0  0  0  0  0  0  0  0  0  0  0  0
   11.1733   -0.2285  -18.1420 C   0  0  0  0  0  0  0  0  0  0  0  0
   11.9837   -0.6275  -18.9735 O   0  0  0  0  0  0  0  0  0  0  0  0
    9.8853   -1.0200  -17.8748 C   0  0  0  0  0  0  0  0  0  0  0  0
    8.7132   -0.1126  -17.4519 C   0  0  0  0  0  0  0  0  0  0  0  0
    9.2949    8.3126   -8.8022 C   0  0  0  0  0  0  0  0  0  0  0  0
    9.1623    8.0948   -7.2883 C   0  0  0  0  0  0  0  0  0  0  0  0
   11.6858   11.7221   -7.0420 H   0  0  0  0  0  0  0  0  0  0  0  0
   11.2861   11.5335   -5.3362 H   0  0  0  0  0  0  0  0  0  0  0  0
   12.8747   10.9725   -5.9814 H   0  0  0  0  0  0  0  0  0  0  0  0
   12.3056   10.1723   -3.8665 H   0  0  0  0  0  0  0  0  0  0  0  0
   12.7452    7.7682   -1.0777 H   0  0  0  0  0  0  0  0  0  0  0  0
   13.6875    9.0005   -1.8750 H   0  0  0  0  0  0  0  0  0  0  0  0
   12.0669    9.3779   -1.3058 H   0  0  0  0  0  0  0  0  0  0  0  0
   11.8798    6.1130   -2.6591 H   0  0  0  0  0  0  0  0  0  0  0  0
   10.8859    5.5694   -4.8162 H   0  0  0  0  0  0  0  0  0  0  0  0
    9.5048    5.3728   -7.1265 H   0  0  0  0  0  0  0  0  0  0  0  0
   11.2696    5.4411   -7.1523 H   0  0  0  0  0  0  0  0  0  0  0  0
   10.2138    5.0938   -9.4441 H   0  0  0  0  0  0  0  0  0  0  0  0
   11.2861    6.4761   -9.3403 H   0  0  0  0  0  0  0  0  0  0  0  0
   10.2434    7.0000  -11.3760 H   0  0  0  0  0  0  0  0  0  0  0  0
    8.8917    8.0858  -11.2772 H   0  0  0  0  0  0  0  0  0  0  0  0
    7.3356    6.5585  -11.8466 H   0  0  0  0  0  0  0  0  0  0  0  0
    8.0076    5.2718  -10.8861 H   0  0  0  0  0  0  0  0  0  0  0  0
    9.3455    6.1701  -13.4612 H   0  0  0  0  0  0  0  0  0  0  0  0
    7.9918    5.0758  -13.5084 H   0  0  0  0  0  0  0  0  0  0  0  0
    9.2484    3.3914  -12.1381 H   0  0  0  0  0  0  0  0  0  0  0  0
   10.4858    4.5521  -11.8481 H   0  0  0  0  0  0  0  0  0  0  0  0
    7.9472    2.7894  -13.8521 H   0  0  0  0  0  0  0  0  0  0  0  0
    7.2200    1.0828  -15.4510 H   0  0  0  0  0  0  0  0  0  0  0  0
   11.9048    2.7486  -15.5811 H   0  0  0  0  0  0  0  0  0  0  0  0
   12.2730    1.3502  -17.5199 H   0  0  0  0  0  0  0  0  0  0  0  0
    9.6170   -1.6113  -18.7511 H   0  0  0  0  0  0  0  0  0  0  0  0
   10.1031   -1.7266  -17.0740 H   0  0  0  0  0  0  0  0  0  0  0  0
    7.8996   -0.7158  -17.0481 H   0  0  0  0  0  0  0  0  0  0  0  0
    8.3141    0.4100  -18.3218 H   0  0  0  0  0  0  0  0  0  0  0  0
   10.2236    8.8407   -9.0298 H   0  0  0  0  0  0  0  0  0  0  0  0
    8.4823    8.9441   -9.1585 H   0  0  0  0  0  0  0  0  0  0  0  0
    8.2294    7.5752   -7.0646 H   0  0  0  0  0  0  0  0  0  0  0  0
    9.0957    9.0400   -6.7588 H   0  0  0  0  0  0  0  0  0  0  0  0
    8.3783    6.6125   -9.2284 H   0  0  0  0  0  0  0  0  0  0  0  0
  2  1  1  0
  3  2  1  0
  4  3  1  0
  5  4  2  0
  6  5  1  0
  7  5  1  0
  8  7  2  0
  9  3  2  0
  9  8  1  0
 10  9  1  0
 11 10  1  0
 12 11  1  0
 13 12  1  0
 14 13  1  0
 15 14  1  0
 16 15  1  0
 17 16  1  0
 18 17  1  0
 19 18  1  0
 20 19  1  0
 21 20  2  0
 22 21  1  0
 23 22  2  0
 24 19  2  0
 24 23  1  0
 25 23  1  0
 26 25  1  0
 27 26  2  0
 28 26  1  0
 29 22  1  0
 29 28  1  0
 30 13  1  0
 31 10  1  0
 31 30  1  0
 32  1  1  0
 33  1  1  0
 34  1  1  0
 35  4  1  0
 36  6  1  0
 37  6  1  0
 38  6  1  0
 39  7  1  0
 40  8  1  0
 41 11  1  0
 42 11  1  0
 43 12  1  0
 44 12  1  0
 45 14  1  0
 46 14  1  0
 47 15  1  0
 48 15  1  0
 49 16  1  0
 50 16  1  0
 51 17  1  0
 52 17  1  0
 53 20  1  0
 54 21  1  0
 55 24  1  0
 56 25  1  0
 57 28  1  0
 58 28  1  0
 59 29  1  0
 60 29  1  0
 61 30  1  0
 62 30  1  0
 63 31  1  0
 64 31  1  0
 65 13  1  0
M  CHG  1  13   1
M  END
>  <b_m_subgroup_collapsed>  (715) 
0

>  <r_i_docking_score>  (715) 
-7.4702707838770799

>  <s_m_subgroup_title>  (715) 
glide-dock_SP_D22_pv

>  <s_m_subgroupid>  (715) 
glide-dock_SP_D22_pv

>  <Molecule ChEMBL ID>  (715) 
CHEMBL1813593

>  <Standard Type>  (715) 
Ki

>  <Standard Value>  (715) 
4.6

>  <label>  (715) 
1

$$$$
CHEMBL550222
     RDKit          3D

 60 63  0  0  1  0  0  0  0  0999 V2000
    3.7971   -0.5663  -14.3381 C   0  0  0  0  0  0  0  0  0  0  0  0
    5.4695   -0.0437  -13.8480 S   0  0  0  0  0  0  0  0  0  0  0  0
    6.3159    0.4411  -15.3327 C   0  0  0  0  0  0  0  0  0  0  0  0
    6.0931   -0.3264  -16.4977 C   0  0  0  0  0  0  0  0  0  0  0  0
    6.7574   -0.0216  -17.6990 C   0  0  0  0  0  0  0  0  0  0  0  0
    7.6489    1.0598  -17.7456 C   0  0  0  0  0  0  0  0  0  0  0  0
    7.8731    1.8331  -16.5926 C   0  0  0  0  0  0  0  0  0  0  0  0
    7.2165    1.5472  -15.3722 C   0  0  0  0  0  0  0  0  0  0  0  0
    7.4826    2.3837  -14.2627 N   0  0  0  0  0  0  0  0  0  0  0  0
    8.8604    2.7506  -13.9453 C   0  0  0  0  0  0  0  0  0  0  0  0
    8.9793    4.2670  -13.7458 C   0  0  0  0  0  0  0  0  0  0  0  0
    7.9921    4.7760  -12.7527 N   0  0  0  0  0  0  0  0  0  0  0  0
    8.0966    6.2412  -12.5141 C   0  0  0  0  0  0  0  0  0  0  0  0
    9.4648    6.7262  -11.9878 C   0  0  0  0  0  0  0  0  0  0  0  0
    9.8326    6.2700  -10.5666 C   0  0  0  0  0  0  0  0  0  0  0  0
    8.8857    6.8376   -9.4959 C   0  0  0  0  0  0  0  0  0  0  0  0
    9.5501    7.0196   -8.2140 N   0  0  0  0  0  0  0  0  0  0  0  0
   10.3050    8.0901   -7.9266 C   0  0  0  0  0  0  0  0  0  0  0  0
   10.5584    8.9775   -8.7396 O   0  0  0  0  0  0  0  0  0  0  0  0
   10.7813    8.1307   -6.5230 C   0  0  0  0  0  0  0  0  0  0  0  0
   11.1785    6.9724   -5.8017 C   0  0  0  0  0  0  0  0  0  0  0  0
   11.5830    7.4295   -4.5848 C   0  0  0  0  0  0  0  0  0  0  0  0
   12.0865    6.8468   -3.3973 C   0  0  0  0  0  0  0  0  0  0  0  0
   12.4061    7.6578   -2.3351 C   0  0  0  0  0  0  0  0  0  0  0  0
   12.2038    9.0558   -2.4096 C   0  0  0  0  0  0  0  0  0  0  0  0
   11.6859    9.6221   -3.5502 C   0  0  0  0  0  0  0  0  0  0  0  0
   11.4081    8.8249   -4.6152 N   0  0  0  0  0  0  0  0  0  0  0  0
   10.9172    9.2404   -5.8221 N   0  0  0  0  0  0  0  0  0  0  0  0
    6.5939    4.4074  -13.1128 C   0  0  0  0  0  0  0  0  0  0  0  0
    6.4027    2.9186  -13.4380 C   0  0  0  0  0  0  0  0  0  0  0  0
    3.1769   -0.7352  -13.4558 H   0  0  0  0  0  0  0  0  0  0  0  0
    3.3183    0.2030  -14.9472 H   0  0  0  0  0  0  0  0  0  0  0  0
    3.8252   -1.4958  -14.9108 H   0  0  0  0  0  0  0  0  0  0  0  0
    5.4296   -1.1780  -16.4766 H   0  0  0  0  0  0  0  0  0  0  0  0
    6.5855   -0.6265  -18.5774 H   0  0  0  0  0  0  0  0  0  0  0  0
    8.1636    1.2946  -18.6662 H   0  0  0  0  0  0  0  0  0  0  0  0
    8.5457    2.6735  -16.6679 H   0  0  0  0  0  0  0  0  0  0  0  0
    9.1946    2.2310  -13.0474 H   0  0  0  0  0  0  0  0  0  0  0  0
    9.5541    2.4283  -14.7200 H   0  0  0  0  0  0  0  0  0  0  0  0
    9.9989    4.4753  -13.4219 H   0  0  0  0  0  0  0  0  0  0  0  0
    8.8345    4.7807  -14.6967 H   0  0  0  0  0  0  0  0  0  0  0  0
    7.8843    6.7581  -13.4468 H   0  0  0  0  0  0  0  0  0  0  0  0
    7.3046    6.5581  -11.8381 H   0  0  0  0  0  0  0  0  0  0  0  0
   10.2679    6.4691  -12.6744 H   0  0  0  0  0  0  0  0  0  0  0  0
    9.4497    7.8160  -11.9943 H   0  0  0  0  0  0  0  0  0  0  0  0
    9.8682    5.1810  -10.4981 H   0  0  0  0  0  0  0  0  0  0  0  0
   10.8479    6.6113  -10.3708 H   0  0  0  0  0  0  0  0  0  0  0  0
    8.4860    7.8015   -9.8134 H   0  0  0  0  0  0  0  0  0  0  0  0
    8.0324    6.1723   -9.3623 H   0  0  0  0  0  0  0  0  0  0  0  0
    9.3470    6.3671   -7.4707 H   0  0  0  0  0  0  0  0  0  0  0  0
   11.1769    5.9510   -6.1473 H   0  0  0  0  0  0  0  0  0  0  0  0
   12.2192    5.7724   -3.3412 H   0  0  0  0  0  0  0  0  0  0  0  0
   12.8190    7.2136   -1.4383 H   0  0  0  0  0  0  0  0  0  0  0  0
   12.4545    9.6892   -1.5624 H   0  0  0  0  0  0  0  0  0  0  0  0
   11.4813   10.6773   -3.6539 H   0  0  0  0  0  0  0  0  0  0  0  0
    5.9158    4.6987  -12.3097 H   0  0  0  0  0  0  0  0  0  0  0  0
    6.2915    4.9722  -13.9910 H   0  0  0  0  0  0  0  0  0  0  0  0
    5.4476    2.7994  -13.9459 H   0  0  0  0  0  0  0  0  0  0  0  0
    6.3139    2.3462  -12.5190 H   0  0  0  0  0  0  0  0  0  0  0  0
    8.1903    4.3144  -11.8746 H   0  0  0  0  0  0  0  0  0  0  0  0
  2  1  1  0
  3  2  1  0
  4  3  2  0
  5  4  1  0
  6  5  2  0
  7  6  1  0
  8  3  1  0
  8  7  2  0
  9  8  1  0
 10  9  1  0
 11 10  1  0
 12 11  1  0
 13 12  1  0
 14 13  1  0
 15 14  1  0
 16 15  1  0
 17 16  1  0
 18 17  1  0
 19 18  2  0
 20 18  1  0
 21 20  1  0
 22 21  2  0
 23 22  1  0
 24 23  2  0
 25 24  1  0
 26 25  2  0
 27 22  1  0
 27 26  1  0
 28 20  2  0
 28 27  1  0
 29 12  1  0
 30  9  1  0
 30 29  1  0
 31  1  1  0
 32  1  1  0
 33  1  1  0
 34  4  1  0
 35  5  1  0
 36  6  1  0
 37  7  1  0
 38 10  1  0
 39 10  1  0
 40 11  1  0
 41 11  1  0
 42 13  1  0
 43 13  1  0
 44 14  1  0
 45 14  1  0
 46 15  1  0
 47 15  1  0
 48 16  1  0
 49 16  1  0
 50 17  1  0
 51 21  1  0
 52 23  1  0
 53 24  1  0
 54 25  1  0
 55 26  1  0
 56 29  1  0
 57 29  1  0
 58 30  1  0
 59 30  1  0
 60 12  1  0
M  CHG  1  12   1
M  END
>  <b_m_subgroup_collapsed>  (716) 
0

>  <r_i_docking_score>  (716) 
-7.47004085349199

>  <s_m_subgroup_title>  (716) 
glide-dock_SP_D22_pv

>  <s_m_subgroupid>  (716) 
glide-dock_SP_D22_pv

>  <Molecule ChEMBL ID>  (716) 
CHEMBL550222

>  <Standard Type>  (716) 
Ki

>  <Standard Value>  (716) 
16.0

>  <label>  (716) 
1

$$$$
CHEMBL424458
     RDKit          3D

 66 68  0  0  1  0  0  0  0  0999 V2000
   11.4866   -0.1231  -17.9835 C   0  0  0  0  0  0  0  0  0  0  0  0
   11.3303    1.3579  -18.3366 C   0  0  0  0  0  0  0  0  0  0  0  0
   10.6528    2.1478  -17.2056 C   0  0  0  0  0  0  0  0  0  0  0  0
   10.6396    3.6086  -17.4838 N   0  0  0  0  0  0  0  0  0  0  0  0
    9.5298    4.0107  -18.3957 C   0  0  0  0  0  0  0  0  0  0  0  0
    9.8585    5.2721  -19.2183 C   0  0  0  0  0  0  0  0  0  0  0  0
    8.7610    5.6080  -20.2348 C   0  0  0  0  0  0  0  0  0  0  0  0
   10.7592    4.4730  -16.2719 C   0  0  2  0  0  0  0  0  0  0  0  0
   12.1857    4.4597  -15.6970 C   0  0  0  0  0  0  0  0  0  0  0  0
   12.3631    5.4637  -14.5451 C   0  0  0  0  0  0  0  0  0  0  0  0
   11.1093    5.7525  -13.7190 C   0  0  0  0  0  0  0  0  0  0  0  0
    9.8735    5.1301  -14.0144 C   0  0  0  0  0  0  0  0  0  0  0  0
    8.7309    5.4369  -13.2532 C   0  0  0  0  0  0  0  0  0  0  0  0
    8.8196    6.3476  -12.1879 C   0  0  0  0  0  0  0  0  0  0  0  0
   10.0552    6.9314  -11.8406 C   0  0  0  0  0  0  0  0  0  0  0  0
   10.1086    7.7188  -10.5352 C   0  0  0  0  0  0  0  0  0  0  0  0
   10.9612    6.9796   -9.4930 C   0  0  0  0  0  0  0  0  0  0  0  0
   11.0036    7.5985   -8.1111 C   0  0  0  0  0  0  0  0  0  0  0  0
   10.7017    6.8161   -6.9762 C   0  0  0  0  0  0  0  0  0  0  0  0
   10.8880    7.3444   -5.6834 C   0  0  0  0  0  0  0  0  0  0  0  0
   11.3861    8.6560   -5.5184 C   0  0  0  0  0  0  0  0  0  0  0  0
   11.7076    9.2194   -4.1458 C   0  0  0  0  0  0  0  0  0  0  0  0
   10.8330   10.1723   -3.8472 F   0  0  0  0  0  0  0  0  0  0  0  0
   11.6858    8.2840   -3.1962 F   0  0  0  0  0  0  0  0  0  0  0  0
   12.9188    9.7665   -4.1672 F   0  0  0  0  0  0  0  0  0  0  0  0
   11.6361    9.4497   -6.6545 C   0  0  0  0  0  0  0  0  0  0  0  0
   11.4474    8.9236   -7.9461 C   0  0  0  0  0  0  0  0  0  0  0  0
   11.2083    6.6465  -12.6285 C   0  0  0  0  0  0  0  0  0  0  0  0
   12.4853    6.9723  -12.2382 O   0  0  0  0  0  0  0  0  0  0  0  0
   12.9350    8.3021  -12.2230 C   0  0  0  0  0  0  0  0  0  0  0  0
    9.7639    4.1326  -15.1465 C   0  0  0  0  0  0  0  0  0  0  0  0
   11.9928   -0.6671  -18.7809 H   0  0  0  0  0  0  0  0  0  0  0  0
   12.0805   -0.2283  -17.0757 H   0  0  0  0  0  0  0  0  0  0  0  0
   10.5204   -0.5996  -17.8116 H   0  0  0  0  0  0  0  0  0  0  0  0
   10.7667    1.4495  -19.2651 H   0  0  0  0  0  0  0  0  0  0  0  0
   12.3202    1.7731  -18.5328 H   0  0  0  0  0  0  0  0  0  0  0  0
   11.2039    1.9371  -16.2891 H   0  0  0  0  0  0  0  0  0  0  0  0
    9.6359    1.7873  -17.0334 H   0  0  0  0  0  0  0  0  0  0  0  0
    9.3324    3.2047  -19.1013 H   0  0  0  0  0  0  0  0  0  0  0  0
    8.6066    4.1514  -17.8349 H   0  0  0  0  0  0  0  0  0  0  0  0
    9.9970    6.1376  -18.5735 H   0  0  0  0  0  0  0  0  0  0  0  0
   10.7997    5.1324  -19.7483 H   0  0  0  0  0  0  0  0  0  0  0  0
    9.0136    6.5129  -20.7887 H   0  0  0  0  0  0  0  0  0  0  0  0
    8.6318    4.8039  -20.9580 H   0  0  0  0  0  0  0  0  0  0  0  0
    7.8011    5.7800  -19.7469 H   0  0  0  0  0  0  0  0  0  0  0  0
   10.5654    5.5006  -16.5775 H   0  0  0  0  0  0  0  0  0  0  0  0
   12.9298    4.6540  -16.4695 H   0  0  0  0  0  0  0  0  0  0  0  0
   12.4099    3.4683  -15.3069 H   0  0  0  0  0  0  0  0  0  0  0  0
   12.7060    6.4154  -14.9505 H   0  0  0  0  0  0  0  0  0  0  0  0
   13.1506    5.1085  -13.8830 H   0  0  0  0  0  0  0  0  0  0  0  0
    7.7807    4.9729  -13.4752 H   0  0  0  0  0  0  0  0  0  0  0  0
    7.9397    6.5513  -11.5946 H   0  0  0  0  0  0  0  0  0  0  0  0
    9.0975    7.8357  -10.1405 H   0  0  0  0  0  0  0  0  0  0  0  0
   10.4649    8.7297  -10.7206 H   0  0  0  0  0  0  0  0  0  0  0  0
   11.9911    6.9532   -9.8430 H   0  0  0  0  0  0  0  0  0  0  0  0
   10.6235    5.9457   -9.4151 H   0  0  0  0  0  0  0  0  0  0  0  0
   10.3686    5.7909   -7.0877 H   0  0  0  0  0  0  0  0  0  0  0  0
   10.6856    6.7193   -4.8256 H   0  0  0  0  0  0  0  0  0  0  0  0
   12.0126   10.4543   -6.5352 H   0  0  0  0  0  0  0  0  0  0  0  0
   11.6863    9.5214   -8.8127 H   0  0  0  0  0  0  0  0  0  0  0  0
   13.9944    8.2788  -11.9733 H   0  0  0  0  0  0  0  0  0  0  0  0
   12.8860    8.7390  -13.2207 H   0  0  0  0  0  0  0  0  0  0  0  0
   12.4755    8.9180  -11.4471 H   0  0  0  0  0  0  0  0  0  0  0  0
    9.9625    3.1453  -14.7276 H   0  0  0  0  0  0  0  0  0  0  0  0
    8.7363    4.1150  -15.4901 H   0  0  0  0  0  0  0  0  0  0  0  0
   11.4863    3.7822  -18.0080 H   0  0  0  0  0  0  0  0  0  0  0  0
  2  1  1  0
  3  2  1  0
  4  3  1  0
  5  4  1  0
  6  5  1  0
  7  6  1  0
  8  4  1  0
  9  8  1  0
 10  9  1  0
 11 10  1  0
 12 11  2  0
 13 12  1  0
 14 13  2  0
 15 14  1  0
 16 15  1  0
 17 16  1  0
 18 17  1  0
 19 18  1  0
 20 19  2  0
 21 20  1  0
 22 21  1  0
 23 22  1  0
 24 22  1  0
 25 22  1  0
 26 21  2  0
 27 18  2  0
 27 26  1  0
 28 11  1  0
 28 15  2  0
 29 28  1  0
 30 29  1  0
 31  8  1  0
 31 12  1  0
 32  1  1  0
 33  1  1  0
 34  1  1  0
 35  2  1  0
 36  2  1  0
 37  3  1  0
 38  3  1  0
 39  5  1  0
 40  5  1  0
 41  6  1  0
 42  6  1  0
 43  7  1  0
 44  7  1  0
 45  7  1  0
  8 46  1  6
 47  9  1  0
 48  9  1  0
 49 10  1  0
 50 10  1  0
 51 13  1  0
 52 14  1  0
 53 16  1  0
 54 16  1  0
 55 17  1  0
 56 17  1  0
 57 19  1  0
 58 20  1  0
 59 26  1  0
 60 27  1  0
 61 30  1  0
 62 30  1  0
 63 30  1  0
 64 31  1  0
 65 31  1  0
 66  4  1  0
M  CHG  1   4   1
M  END
>  <b_m_subgroup_collapsed>  (717) 
0

>  <r_i_docking_score>  (717) 
-7.4691059424495201

>  <s_m_subgroup_title>  (717) 
glide-dock_SP_D22_pv

>  <s_m_subgroupid>  (717) 
glide-dock_SP_D22_pv

>  <Molecule ChEMBL ID>  (717) 
CHEMBL424458

>  <Standard Type>  (717) 
Ki

>  <Standard Value>  (717) 
100.0

>  <label>  (717) 
1

$$$$
CHEMBL487760
     RDKit          3D

 67 70  0  0  1  0  0  0  0  0999 V2000
    3.0546   -0.8681  -14.2053 C   0  0  0  0  0  0  0  0  0  0  0  0
    4.3253   -0.3565  -13.8466 O   0  0  0  0  0  0  0  0  0  0  0  0
    5.2706   -0.2272  -14.8388 C   0  0  0  0  0  0  0  0  0  0  0  0
    5.0827   -0.6462  -16.1799 C   0  0  0  0  0  0  0  0  0  0  0  0
    6.0984   -0.4463  -17.1347 C   0  0  0  0  0  0  0  0  0  0  0  0
    7.3025    0.1800  -16.7658 C   0  0  0  0  0  0  0  0  0  0  0  0
    7.4966    0.6084  -15.4364 C   0  0  0  0  0  0  0  0  0  0  0  0
    8.7758    1.3279  -15.0540 C   0  0  0  0  0  0  0  0  0  0  0  0
    8.7509    2.7934  -15.5133 C   0  0  0  0  0  0  0  0  0  0  0  0
   10.0510    3.5237  -15.2265 C   0  0  0  0  0  0  0  0  0  0  0  0
   11.1197    3.3787  -16.1359 C   0  0  0  0  0  0  0  0  0  0  0  0
   12.3368    4.0440  -15.9169 C   0  0  0  0  0  0  0  0  0  0  0  0
   12.4939    4.8471  -14.7765 C   0  0  0  0  0  0  0  0  0  0  0  0
   11.4374    4.9814  -13.8567 C   0  0  0  0  0  0  0  0  0  0  0  0
   10.1944    4.3347  -14.0742 C   0  0  0  0  0  0  0  0  0  0  0  0
    9.1012    4.4546  -13.2358 O   0  0  0  0  0  0  0  0  0  0  0  0
    9.2150    5.1549  -12.0002 C   0  0  0  0  0  0  0  0  0  0  0  0
    9.1717    6.6863  -12.1783 C   0  0  0  0  0  0  0  0  0  0  0  0
    9.1987    7.4488  -10.8471 C   0  0  0  0  0  0  0  0  0  0  0  0
   10.5975    7.5490  -10.2087 C   0  0  0  0  0  0  0  0  0  0  0  0
   10.5332    8.1337   -8.8710 N   0  0  0  0  0  0  0  0  0  0  0  0
   10.0558    7.1288   -7.9100 C   0  0  0  0  0  0  0  0  0  0  0  0
    9.9564    7.7383   -6.5052 C   0  0  0  0  0  0  0  0  0  0  0  0
   11.2519    8.2660   -6.0982 N   0  0  0  0  0  0  0  0  0  0  0  0
   11.6403    8.2042   -4.7762 C   0  0  0  0  0  0  0  0  0  0  0  0
   11.6868    6.9836   -4.2376 N   0  0  0  0  0  0  0  0  0  0  0  0
   12.0865    6.8913   -2.9573 C   0  0  0  0  0  0  0  0  0  0  0  0
   12.4109    8.0325   -2.2083 C   0  0  0  0  0  0  0  0  0  0  0  0
   12.2861    9.2630   -2.8698 C   0  0  0  0  0  0  0  0  0  0  0  0
   11.9193    9.3561   -4.1617 N   0  0  0  0  0  0  0  0  0  0  0  0
   11.8388    9.2021   -7.0474 C   0  0  0  0  0  0  0  0  0  0  0  0
   11.8720    8.5719   -8.4573 C   0  0  0  0  0  0  0  0  0  0  0  0
    6.4834    0.3935  -14.4800 C   0  0  0  0  0  0  0  0  0  0  0  0
    2.4784   -1.0273  -13.2960 H   0  0  0  0  0  0  0  0  0  0  0  0
    2.5083   -0.1743  -14.8464 H   0  0  0  0  0  0  0  0  0  0  0  0
    3.1410   -1.8274  -14.7056 H   0  0  0  0  0  0  0  0  0  0  0  0
    4.1714   -1.1224  -16.5059 H   0  0  0  0  0  0  0  0  0  0  0  0
    5.9520   -0.7768  -18.1525 H   0  0  0  0  0  0  0  0  0  0  0  0
    8.0742    0.3343  -17.5053 H   0  0  0  0  0  0  0  0  0  0  0  0
    9.6211    0.8018  -15.5008 H   0  0  0  0  0  0  0  0  0  0  0  0
    8.9149    1.2775  -13.9731 H   0  0  0  0  0  0  0  0  0  0  0  0
    7.9149    3.3133  -15.0460 H   0  0  0  0  0  0  0  0  0  0  0  0
    8.5661    2.8372  -16.5881 H   0  0  0  0  0  0  0  0  0  0  0  0
   11.0062    2.7542  -17.0107 H   0  0  0  0  0  0  0  0  0  0  0  0
   13.1524    3.9326  -16.6170 H   0  0  0  0  0  0  0  0  0  0  0  0
   13.4290    5.3598  -14.6078 H   0  0  0  0  0  0  0  0  0  0  0  0
   11.6134    5.6064  -12.9993 H   0  0  0  0  0  0  0  0  0  0  0  0
   10.0878    4.8236  -11.4420 H   0  0  0  0  0  0  0  0  0  0  0  0
    8.3608    4.8527  -11.3935 H   0  0  0  0  0  0  0  0  0  0  0  0
    8.2554    6.9424  -12.7104 H   0  0  0  0  0  0  0  0  0  0  0  0
    9.9938    7.0383  -12.7917 H   0  0  0  0  0  0  0  0  0  0  0  0
    8.4860    6.9728  -10.1788 H   0  0  0  0  0  0  0  0  0  0  0  0
    8.8200    8.4593  -11.0076 H   0  0  0  0  0  0  0  0  0  0  0  0
   11.2184    8.1757  -10.8514 H   0  0  0  0  0  0  0  0  0  0  0  0
   11.0795    6.5725  -10.1630 H   0  0  0  0  0  0  0  0  0  0  0  0
   10.7250    6.2670   -7.8974 H   0  0  0  0  0  0  0  0  0  0  0  0
    9.0707    6.7570   -8.1853 H   0  0  0  0  0  0  0  0  0  0  0  0
    9.6045    6.9787   -5.8057 H   0  0  0  0  0  0  0  0  0  0  0  0
    9.2188    8.5444   -6.4941 H   0  0  0  0  0  0  0  0  0  0  0  0
   12.1341    5.9029   -2.5233 H   0  0  0  0  0  0  0  0  0  0  0  0
   12.7248    7.9765   -1.1771 H   0  0  0  0  0  0  0  0  0  0  0  0
   12.4859   10.1748   -2.3428 H   0  0  0  0  0  0  0  0  0  0  0  0
   11.2764   10.1342   -7.0475 H   0  0  0  0  0  0  0  0  0  0  0  0
   12.8543    9.4494   -6.7377 H   0  0  0  0  0  0  0  0  0  0  0  0
   12.5648    7.7319   -8.4731 H   0  0  0  0  0  0  0  0  0  0  0  0
   12.2468    9.3053   -9.1728 H   0  0  0  0  0  0  0  0  0  0  0  0
    6.6258    0.7317  -13.4628 H   0  0  0  0  0  0  0  0  0  0  0  0
  2  1  1  0
  3  2  1  0
  4  3  1  0
  5  4  2  0
  6  5  1  0
  7  6  2  0
  8  7  1  0
  9  8  1  0
 10  9  1  0
 11 10  2  0
 12 11  1  0
 13 12  2  0
 14 13  1  0
 15 10  1  0
 15 14  2  0
 16 15  1  0
 17 16  1  0
 18 17  1  0
 19 18  1  0
 20 19  1  0
 21 20  1  0
 22 21  1  0
 23 22  1  0
 24 23  1  0
 25 24  1  0
 26 25  2  0
 27 26  1  0
 28 27  2  0
 29 28  1  0
 30 25  1  0
 30 29  2  0
 31 24  1  0
 32 21  1  0
 32 31  1  0
 33  3  2  0
 33  7  1  0
 34  1  1  0
 35  1  1  0
 36  1  1  0
 37  4  1  0
 38  5  1  0
 39  6  1  0
 40  8  1  0
 41  8  1  0
 42  9  1  0
 43  9  1  0
 44 11  1  0
 45 12  1  0
 46 13  1  0
 47 14  1  0
 48 17  1  0
 49 17  1  0
 50 18  1  0
 51 18  1  0
 52 19  1  0
 53 19  1  0
 54 20  1  0
 55 20  1  0
 56 22  1  0
 57 22  1  0
 58 23  1  0
 59 23  1  0
 60 27  1  0
 61 28  1  0
 62 29  1  0
 63 31  1  0
 64 31  1  0
 65 32  1  0
 66 32  1  0
 67 33  1  0
M  END
>  <b_m_subgroup_collapsed>  (718) 
0

>  <r_i_docking_score>  (718) 
-7.4678849009682802

>  <s_m_subgroup_title>  (718) 
glide-dock_SP_D22_pv

>  <s_m_subgroupid>  (718) 
glide-dock_SP_D22_pv

>  <Molecule ChEMBL ID>  (718) 
CHEMBL487760

>  <Standard Type>  (718) 
Ki

>  <Standard Value>  (718) 
854000.0

>  <label>  (718) 
0

$$$$
CHEMBL5804691
     RDKit          3D

 54 58  0  0  1  0  0  0  0  0999 V2000
    8.9571   -0.6268  -17.4467 C   0  0  0  0  0  0  0  0  0  0  0  0
    7.9437    0.0661  -16.7228 O   0  0  0  0  0  0  0  0  0  0  0  0
    8.3197    1.0054  -15.8265 C   0  0  0  0  0  0  0  0  0  0  0  0
    9.6242    1.2165  -15.6107 N   0  0  0  0  0  0  0  0  0  0  0  0
    9.9500    2.2119  -14.7616 C   0  0  0  0  0  0  0  0  0  0  0  0
    8.9640    2.9993  -14.1355 C   0  0  0  0  0  0  0  0  0  0  0  0
    7.6282    2.6632  -14.4149 C   0  0  0  0  0  0  0  0  0  0  0  0
    7.3062    1.6692  -15.2670 N   0  0  0  0  0  0  0  0  0  0  0  0
    6.4946    3.4464  -13.7857 C   0  0  0  0  0  0  0  0  0  0  0  0
    6.9299    4.1728  -12.4960 C   0  0  0  0  0  0  0  0  0  0  0  0
    8.3052    4.7046  -12.5306 N   0  0  0  0  0  0  0  0  0  0  0  0
    8.5762    5.8250  -11.6241 C   0  0  0  0  0  0  0  0  0  0  0  0
    9.0634    5.3079  -10.2583 C   0  0  0  0  0  0  0  0  0  0  0  0
    9.7900    6.3259   -9.5046 N   0  0  0  0  0  0  0  0  0  0  0  0
    8.9108    7.4172   -9.0768 C   0  0  0  0  0  0  0  0  0  0  0  0
    9.6842    8.4695   -8.2563 C   0  0  0  0  0  0  0  0  0  0  0  0
   10.3957    7.8457   -7.1420 N   0  0  0  0  0  0  0  0  0  0  0  0
   10.9026    8.7010   -6.1514 C   0  0  0  0  0  0  0  0  0  0  0  0
   10.8860   10.0301   -6.2457 N   0  0  0  0  0  0  0  0  0  0  0  0
   11.2860   10.5442   -4.9859 O   0  0  0  0  0  0  0  0  0  0  0  0
   11.6337    9.4908   -4.1477 C   0  0  0  0  0  0  0  0  0  0  0  0
   12.0858    9.4740   -2.8231 C   0  0  0  0  0  0  0  0  0  0  0  0
   12.3296    8.2255   -2.2181 C   0  0  0  0  0  0  0  0  0  0  0  0
   12.0859    7.0291   -2.9297 C   0  0  0  0  0  0  0  0  0  0  0  0
   11.6119    7.0681   -4.2596 C   0  0  0  0  0  0  0  0  0  0  0  0
   11.3953    8.3243   -4.8796 C   0  0  0  0  0  0  0  0  0  0  0  0
   11.2228    6.7317   -7.5789 C   0  0  0  0  0  0  0  0  0  0  0  0
   10.3265    5.7081   -8.2949 C   0  0  0  0  0  0  0  0  0  0  0  0
    9.3141    4.1571  -13.2522 C   0  0  0  0  0  0  0  0  0  0  0  0
   10.4786    4.5568  -13.2097 O   0  0  0  0  0  0  0  0  0  0  0  0
    8.4952   -1.3802  -18.0840 H   0  0  0  0  0  0  0  0  0  0  0  0
    9.5159    0.0542  -18.0898 H   0  0  0  0  0  0  0  0  0  0  0  0
    9.6564   -1.1385  -16.7835 H   0  0  0  0  0  0  0  0  0  0  0  0
   11.0048    2.3875  -14.6057 H   0  0  0  0  0  0  0  0  0  0  0  0
    6.1355    4.1703  -14.5153 H   0  0  0  0  0  0  0  0  0  0  0  0
    5.6562    2.7817  -13.5737 H   0  0  0  0  0  0  0  0  0  0  0  0
    6.8852    3.4676  -11.6650 H   0  0  0  0  0  0  0  0  0  0  0  0
    6.2052    4.9533  -12.2587 H   0  0  0  0  0  0  0  0  0  0  0  0
    9.3218    6.4903  -12.0639 H   0  0  0  0  0  0  0  0  0  0  0  0
    7.6861    6.4398  -11.5003 H   0  0  0  0  0  0  0  0  0  0  0  0
    8.2232    4.9218   -9.6783 H   0  0  0  0  0  0  0  0  0  0  0  0
    9.7392    4.4679  -10.4225 H   0  0  0  0  0  0  0  0  0  0  0  0
    8.4866    7.9111   -9.9485 H   0  0  0  0  0  0  0  0  0  0  0  0
    8.0914    7.0091   -8.4866 H   0  0  0  0  0  0  0  0  0  0  0  0
   10.3965    8.9935   -8.8948 H   0  0  0  0  0  0  0  0  0  0  0  0
    8.9783    9.2120   -7.8823 H   0  0  0  0  0  0  0  0  0  0  0  0
   12.2224   10.3953   -2.2807 H   0  0  0  0  0  0  0  0  0  0  0  0
   12.6814    8.1855   -1.1989 H   0  0  0  0  0  0  0  0  0  0  0  0
   12.2468    6.0749   -2.4486 H   0  0  0  0  0  0  0  0  0  0  0  0
   11.3869    6.1409   -4.7613 H   0  0  0  0  0  0  0  0  0  0  0  0
   11.9877    7.1140   -8.2556 H   0  0  0  0  0  0  0  0  0  0  0  0
   11.7506    6.2502   -6.7626 H   0  0  0  0  0  0  0  0  0  0  0  0
    9.5194    5.3767   -7.6384 H   0  0  0  0  0  0  0  0  0  0  0  0
   10.8860    4.8163   -8.5614 H   0  0  0  0  0  0  0  0  0  0  0  0
  2  1  1  0
  3  2  1  0
  4  3  2  0
  5  4  1  0
  6  5  2  0
  7  6  1  0
  8  3  1  0
  8  7  2  0
  9  7  1  0
 10  9  1  0
 11 10  1  0
 12 11  1  0
 13 12  1  0
 14 13  1  0
 15 14  1  0
 16 15  1  0
 17 16  1  0
 18 17  1  0
 19 18  2  0
 20 19  1  0
 21 20  1  0
 22 21  2  0
 23 22  1  0
 24 23  2  0
 25 24  1  0
 26 18  1  0
 26 21  1  0
 26 25  2  0
 27 17  1  0
 28 14  1  0
 28 27  1  0
 29  6  1  0
 29 11  1  0
 30 29  2  0
 31  1  1  0
 32  1  1  0
 33  1  1  0
 34  5  1  0
 35  9  1  0
 36  9  1  0
 37 10  1  0
 38 10  1  0
 39 12  1  0
 40 12  1  0
 41 13  1  0
 42 13  1  0
 43 15  1  0
 44 15  1  0
 45 16  1  0
 46 16  1  0
 47 22  1  0
 48 23  1  0
 49 24  1  0
 50 25  1  0
 51 27  1  0
 52 27  1  0
 53 28  1  0
 54 28  1  0
M  END
>  <b_m_subgroup_collapsed>  (719) 
0

>  <r_i_docking_score>  (719) 
-7.4673766263435004

>  <s_m_subgroup_title>  (719) 
glide-dock_SP_D22_pv

>  <s_m_subgroupid>  (719) 
glide-dock_SP_D22_pv

>  <Molecule ChEMBL ID>  (719) 
CHEMBL5804691

>  <Standard Type>  (719) 
Ki

>  <Standard Value>  (719) 
10000.0

>  <label>  (719) 
0

$$$$
CHEMBL4068455
     RDKit          3D

 73 77  0  0  1  0  0  0  0  0999 V2000
    6.0880   -0.8423  -14.4382 C   0  0  0  0  0  0  0  0  0  0  0  0
    6.9512   -0.2284  -15.5482 C   0  0  0  0  0  0  0  0  0  0  0  0
    8.4515   -0.1600  -15.1606 C   0  0  0  0  0  0  0  0  0  0  0  0
    9.1995    0.9843  -15.6788 N   0  0  0  0  0  0  0  0  0  0  0  0
    8.9728    1.2912  -17.0987 C   0  0  0  0  0  0  0  0  0  0  0  0
    9.3990    0.1374  -18.0282 C   0  0  0  0  0  0  0  0  0  0  0  0
   10.9165   -0.0894  -18.0424 C   0  0  0  0  0  0  0  0  0  0  0  0
    9.1777    2.1038  -14.7331 C   0  0  2  0  0  0  0  0  0  0  0  0
    7.7676    2.7056  -14.5075 C   0  0  0  0  0  0  0  0  0  0  0  0
    7.7380    3.9384  -13.6314 C   0  0  0  0  0  0  0  0  0  0  0  0
    6.6497    4.5307  -12.9614 C   0  0  0  0  0  0  0  0  0  0  0  0
    6.8434    5.7391  -12.2471 C   0  0  0  0  0  0  0  0  0  0  0  0
    8.1133    6.3743  -12.1879 C   0  0  0  0  0  0  0  0  0  0  0  0
    9.2063    5.7720  -12.8426 C   0  0  0  0  0  0  0  0  0  0  0  0
    8.9591    4.6033  -13.5149 C   0  0  0  0  0  0  0  0  0  0  0  0
   10.1718    4.2499  -14.1077 N   0  0  0  0  0  0  0  0  0  0  0  0
   11.1068    5.1831  -13.8461 C   0  0  0  0  0  0  0  0  0  0  0  0
   12.2419    5.2102  -14.3199 O   0  0  0  0  0  0  0  0  0  0  0  0
   10.5457    6.1234  -13.0468 N   0  0  0  0  0  0  0  0  0  0  0  0
   11.0636    7.4735  -12.8765 C   0  0  0  0  0  0  0  0  0  0  0  0
   12.2463    7.5415  -11.9146 C   0  0  0  0  0  0  0  0  0  0  0  0
   11.8540    7.4809  -10.4378 C   0  0  0  0  0  0  0  0  0  0  0  0
   11.0370    8.6935   -9.9525 C   0  0  0  0  0  0  0  0  0  0  0  0
   10.9733    8.7234   -8.5028 N   0  0  0  0  0  0  0  0  0  0  0  0
   10.4576    7.7573   -7.7305 C   0  0  0  0  0  0  0  0  0  0  0  0
    9.8029    6.8063   -8.1521 O   0  0  0  0  0  0  0  0  0  0  0  0
   10.8870    7.8156   -6.3317 C   0  0  0  0  0  0  0  0  0  0  0  0
   11.2859    6.8287   -5.4713 C   0  0  0  0  0  0  0  0  0  0  0  0
   11.6860    7.4691   -4.2560 C   0  0  0  0  0  0  0  0  0  0  0  0
   12.2044    7.0209   -3.0215 C   0  0  0  0  0  0  0  0  0  0  0  0
   12.4857    7.9328   -1.9870 C   0  0  0  0  0  0  0  0  0  0  0  0
   12.2215    9.3010   -2.1537 C   0  0  0  0  0  0  0  0  0  0  0  0
   11.6862    9.7721   -3.3624 C   0  0  0  0  0  0  0  0  0  0  0  0
   11.4518    8.8679   -4.4044 C   0  0  0  0  0  0  0  0  0  0  0  0
   10.9708    9.0372   -5.6833 N   0  0  0  0  0  0  0  0  0  0  0  0
   10.2719    3.1458  -15.0432 C   0  0  0  0  0  0  0  0  0  0  0  0
    5.0528   -0.9465  -14.7640 H   0  0  0  0  0  0  0  0  0  0  0  0
    6.4497   -1.8282  -14.1554 H   0  0  0  0  0  0  0  0  0  0  0  0
    6.0952   -0.2211  -13.5428 H   0  0  0  0  0  0  0  0  0  0  0  0
    6.5341    0.7454  -15.7931 H   0  0  0  0  0  0  0  0  0  0  0  0
    6.8433   -0.8227  -16.4561 H   0  0  0  0  0  0  0  0  0  0  0  0
    8.9839   -1.0276  -15.5311 H   0  0  0  0  0  0  0  0  0  0  0  0
    8.5571   -0.2047  -14.0768 H   0  0  0  0  0  0  0  0  0  0  0  0
    7.9289    1.5465  -17.2740 H   0  0  0  0  0  0  0  0  0  0  0  0
    9.5426    2.1671  -17.4011 H   0  0  0  0  0  0  0  0  0  0  0  0
    8.8847   -0.7886  -17.7734 H   0  0  0  0  0  0  0  0  0  0  0  0
    9.0783    0.3746  -19.0433 H   0  0  0  0  0  0  0  0  0  0  0  0
   11.1836   -0.9120  -18.7068 H   0  0  0  0  0  0  0  0  0  0  0  0
   11.4447    0.8020  -18.3829 H   0  0  0  0  0  0  0  0  0  0  0  0
   11.2854   -0.3333  -17.0470 H   0  0  0  0  0  0  0  0  0  0  0  0
    9.4775    1.6909  -13.7692 H   0  0  0  0  0  0  0  0  0  0  0  0
    7.1193    1.9809  -14.0182 H   0  0  0  0  0  0  0  0  0  0  0  0
    7.3023    2.9680  -15.4531 H   0  0  0  0  0  0  0  0  0  0  0  0
    5.6706    4.0748  -12.9953 H   0  0  0  0  0  0  0  0  0  0  0  0
    6.0048    6.1719  -11.7218 H   0  0  0  0  0  0  0  0  0  0  0  0
    8.2278    7.2993  -11.6400 H   0  0  0  0  0  0  0  0  0  0  0  0
   10.2673    8.1596  -12.5901 H   0  0  0  0  0  0  0  0  0  0  0  0
   11.4103    7.8163  -13.8530 H   0  0  0  0  0  0  0  0  0  0  0  0
   12.8462    8.4355  -12.0955 H   0  0  0  0  0  0  0  0  0  0  0  0
   12.8861    6.7025  -12.1625 H   0  0  0  0  0  0  0  0  0  0  0  0
   12.7667    7.3997   -9.8471 H   0  0  0  0  0  0  0  0  0  0  0  0
   11.2853    6.5723  -10.2524 H   0  0  0  0  0  0  0  0  0  0  0  0
   10.0259    8.6853  -10.3634 H   0  0  0  0  0  0  0  0  0  0  0  0
   11.5137    9.6196  -10.2740 H   0  0  0  0  0  0  0  0  0  0  0  0
   11.5455    9.4143   -8.0422 H   0  0  0  0  0  0  0  0  0  0  0  0
   11.3323    5.7725   -5.6786 H   0  0  0  0  0  0  0  0  0  0  0  0
   12.3817    5.9653   -2.8726 H   0  0  0  0  0  0  0  0  0  0  0  0
   12.8863    7.5853   -1.0470 H   0  0  0  0  0  0  0  0  0  0  0  0
   12.4274    9.9848   -1.3438 H   0  0  0  0  0  0  0  0  0  0  0  0
   11.4586   10.8176   -3.4790 H   0  0  0  0  0  0  0  0  0  0  0  0
   10.6905    9.9090   -6.1057 H   0  0  0  0  0  0  0  0  0  0  0  0
   10.1682    3.5782  -16.0364 H   0  0  0  0  0  0  0  0  0  0  0  0
   11.2609    2.6888  -14.9872 H   0  0  0  0  0  0  0  0  0  0  0  0
  2  1  1  0
  3  2  1  0
  4  3  1  0
  5  4  1  0
  6  5  1  0
  7  6  1  0
  8  4  1  0
  9  8  1  0
 10  9  1  0
 11 10  1  0
 12 11  2  0
 13 12  1  0
 14 13  2  0
 15 10  2  0
 15 14  1  0
 16 15  1  0
 17 16  1  0
 18 17  2  0
 19 14  1  0
 19 17  1  0
 20 19  1  0
 21 20  1  0
 22 21  1  0
 23 22  1  0
 24 23  1  0
 25 24  1  0
 26 25  2  0
 27 25  1  0
 28 27  2  0
 29 28  1  0
 30 29  2  0
 31 30  1  0
 32 31  2  0
 33 32  1  0
 34 29  1  0
 34 33  2  0
 35 27  1  0
 35 34  1  0
 36  8  1  0
 36 16  1  0
 37  1  1  0
 38  1  1  0
 39  1  1  0
 40  2  1  0
 41  2  1  0
 42  3  1  0
 43  3  1  0
 44  5  1  0
 45  5  1  0
 46  6  1  0
 47  6  1  0
 48  7  1  0
 49  7  1  0
 50  7  1  0
  8 51  1  1
 52  9  1  0
 53  9  1  0
 54 11  1  0
 55 12  1  0
 56 13  1  0
 57 20  1  0
 58 20  1  0
 59 21  1  0
 60 21  1  0
 61 22  1  0
 62 22  1  0
 63 23  1  0
 64 23  1  0
 65 24  1  0
 66 28  1  0
 67 30  1  0
 68 31  1  0
 69 32  1  0
 70 33  1  0
 71 35  1  0
 72 36  1  0
 73 36  1  0
M  END
>  <b_m_subgroup_collapsed>  (720) 
0

>  <r_i_docking_score>  (720) 
-7.4658571148105102

>  <s_m_subgroup_title>  (720) 
glide-dock_SP_D22_pv

>  <s_m_subgroupid>  (720) 
glide-dock_SP_D22_pv

>  <Molecule ChEMBL ID>  (720) 
CHEMBL4068455

>  <Standard Type>  (720) 
Ki

>  <Standard Value>  (720) 
86.8

>  <label>  (720) 
1

$$$$
CHEMBL3323005
     RDKit          3D

 59 62  0  0  1  0  0  0  0  0999 V2000
   13.7326    3.8916  -19.0084 C   0  0  0  0  0  0  0  0  0  0  0  0
   12.8362    3.0151  -18.1607 C   0  0  0  0  0  0  0  0  0  0  0  0
   12.4686    3.5104  -16.9816 N   0  0  0  0  0  0  0  0  0  0  0  0
   11.6742    2.7473  -16.2017 C   0  0  0  0  0  0  0  0  0  0  0  0
   11.2946    3.2630  -14.9496 N   0  0  0  0  0  0  0  0  0  0  0  0
   10.1831    2.7215  -14.1788 C   0  0  0  0  0  0  0  0  0  0  0  0
    9.2178    3.8500  -13.7916 C   0  0  0  0  0  0  0  0  0  0  0  0
    9.9244    4.9025  -13.0509 N   0  0  0  0  0  0  0  0  0  0  0  0
    8.9676    5.9498  -12.7000 C   0  0  0  0  0  0  0  0  0  0  0  0
    8.1375    5.5797  -11.4551 C   0  0  0  0  0  0  0  0  0  0  0  0
    8.8735    5.7520  -10.1146 C   0  0  0  0  0  0  0  0  0  0  0  0
    9.3583    7.1882   -9.8724 C   0  0  0  0  0  0  0  0  0  0  0  0
    9.8932    7.3371   -8.5327 N   0  0  0  0  0  0  0  0  0  0  0  0
   10.5999    8.4001   -8.1306 C   0  0  0  0  0  0  0  0  0  0  0  0
   10.8935    9.3422   -8.8648 O   0  0  0  0  0  0  0  0  0  0  0  0
   10.9759    8.3472   -6.6978 C   0  0  0  0  0  0  0  0  0  0  0  0
   11.2523    7.2003   -6.0052 C   0  0  0  0  0  0  0  0  0  0  0  0
   11.5771    7.5877   -4.7217 N   0  0  0  0  0  0  0  0  0  0  0  0
   11.9335    6.8497   -3.6392 C   0  0  0  0  0  0  0  0  0  0  0  0
   12.2033    7.4833   -2.4525 C   0  0  0  0  0  0  0  0  0  0  0  0
   12.1029    8.8901   -2.3565 C   0  0  0  0  0  0  0  0  0  0  0  0
   11.7355    9.6380   -3.4488 C   0  0  0  0  0  0  0  0  0  0  0  0
   11.4732    9.0001   -4.6892 C   0  0  0  0  0  0  0  0  0  0  0  0
   11.1189    9.4665   -5.8828 N   0  0  0  0  0  0  0  0  0  0  0  0
   10.9560    5.4716  -13.9261 C   0  0  0  0  0  0  0  0  0  0  0  0
   11.9787    4.3904  -14.3191 C   0  0  0  0  0  0  0  0  0  0  0  0
   11.2506    1.4748  -16.6382 C   0  0  0  0  0  0  0  0  0  0  0  0
   11.6895    1.0541  -17.9087 C   0  0  0  0  0  0  0  0  0  0  0  0
   11.3025   -0.3007  -18.4887 C   0  0  0  0  0  0  0  0  0  0  0  0
   10.6743   -0.1375  -19.6548 F   0  0  0  0  0  0  0  0  0  0  0  0
   12.3985   -1.0267  -18.6880 F   0  0  0  0  0  0  0  0  0  0  0  0
   10.4910   -0.9712  -17.6679 F   0  0  0  0  0  0  0  0  0  0  0  0
   12.4904    1.8348  -18.6682 N   0  0  0  0  0  0  0  0  0  0  0  0
   14.3402    3.2935  -19.6869 H   0  0  0  0  0  0  0  0  0  0  0  0
   13.1303    4.5799  -19.5997 H   0  0  0  0  0  0  0  0  0  0  0  0
   14.4041    4.4765  -18.3802 H   0  0  0  0  0  0  0  0  0  0  0  0
    9.6152    1.9737  -14.7255 H   0  0  0  0  0  0  0  0  0  0  0  0
   10.5777    2.2359  -13.2886 H   0  0  0  0  0  0  0  0  0  0  0  0
    8.7601    4.2628  -14.6927 H   0  0  0  0  0  0  0  0  0  0  0  0
    8.4118    3.4308  -13.1898 H   0  0  0  0  0  0  0  0  0  0  0  0
    9.4824    6.8932  -12.5206 H   0  0  0  0  0  0  0  0  0  0  0  0
    8.3018    6.1385  -13.5460 H   0  0  0  0  0  0  0  0  0  0  0  0
    7.2497    6.2065  -11.4458 H   0  0  0  0  0  0  0  0  0  0  0  0
    7.7539    4.5644  -11.5258 H   0  0  0  0  0  0  0  0  0  0  0  0
    8.1855    5.4689   -9.3155 H   0  0  0  0  0  0  0  0  0  0  0  0
    9.7147    5.0579  -10.0600 H   0  0  0  0  0  0  0  0  0  0  0  0
   10.1315    7.4504  -10.5950 H   0  0  0  0  0  0  0  0  0  0  0  0
    8.5447    7.9034   -9.9950 H   0  0  0  0  0  0  0  0  0  0  0  0
    9.6504    6.6403   -7.8438 H   0  0  0  0  0  0  0  0  0  0  0  0
   11.2650    6.1566   -6.2818 H   0  0  0  0  0  0  0  0  0  0  0  0
   11.9764    5.7733   -3.7676 H   0  0  0  0  0  0  0  0  0  0  0  0
   12.4886    6.8909   -1.5908 H   0  0  0  0  0  0  0  0  0  0  0  0
   12.3140    9.3905   -1.4169 H   0  0  0  0  0  0  0  0  0  0  0  0
   11.6372   10.7133   -3.3727 H   0  0  0  0  0  0  0  0  0  0  0  0
   10.5053    5.8972  -14.8240 H   0  0  0  0  0  0  0  0  0  0  0  0
   11.4714    6.2815  -13.4060 H   0  0  0  0  0  0  0  0  0  0  0  0
   12.4948    4.0321  -13.4293 H   0  0  0  0  0  0  0  0  0  0  0  0
   12.7473    4.8307  -14.9526 H   0  0  0  0  0  0  0  0  0  0  0  0
   10.6387    0.8226  -16.0357 H   0  0  0  0  0  0  0  0  0  0  0  0
  2  1  1  0
  3  2  2  0
  4  3  1  0
  5  4  1  0
  6  5  1  0
  7  6  1  0
  8  7  1  0
  9  8  1  0
 10  9  1  0
 11 10  1  0
 12 11  1  0
 13 12  1  0
 14 13  1  0
 15 14  2  0
 16 14  1  0
 17 16  2  0
 18 17  1  0
 19 18  1  0
 20 19  2  0
 21 20  1  0
 22 21  2  0
 23 18  1  0
 23 22  1  0
 24 16  1  0
 24 23  2  0
 25  8  1  0
 26  5  1  0
 26 25  1  0
 27  4  2  0
 28 27  1  0
 29 28  1  0
 30 29  1  0
 31 29  1  0
 32 29  1  0
 33  2  1  0
 33 28  2  0
 34  1  1  0
 35  1  1  0
 36  1  1  0
 37  6  1  0
 38  6  1  0
 39  7  1  0
 40  7  1  0
 41  9  1  0
 42  9  1  0
 43 10  1  0
 44 10  1  0
 45 11  1  0
 46 11  1  0
 47 12  1  0
 48 12  1  0
 49 13  1  0
 50 17  1  0
 51 19  1  0
 52 20  1  0
 53 21  1  0
 54 22  1  0
 55 25  1  0
 56 25  1  0
 57 26  1  0
 58 26  1  0
 59 27  1  0
M  END
>  <b_m_subgroup_collapsed>  (721) 
0

>  <r_i_docking_score>  (721) 
-7.46492711589101

>  <s_m_subgroup_title>  (721) 
glide-dock_SP_D22_pv

>  <s_m_subgroupid>  (721) 
glide-dock_SP_D22_pv

>  <Molecule ChEMBL ID>  (721) 
CHEMBL3323005

>  <Standard Type>  (721) 
Ki

>  <Standard Value>  (721) 
24938.0

>  <label>  (721) 
0

$$$$
CHEMBL328925
     RDKit          3D

 46 49  0  0  1  0  0  0  0  0999 V2000
   12.4864    4.8405  -13.8466 O   0  0  0  0  0  0  0  0  0  0  0  0
   11.3377    5.6523  -13.7441 C   0  0  0  0  0  0  0  0  0  0  0  0
   10.1442    4.7533  -13.8907 C   0  0  0  0  0  0  0  0  0  0  0  0
   10.0739    3.5817  -14.6914 C   0  0  0  0  0  0  0  0  0  0  0  0
    8.9089    2.9778  -14.6819 N   0  0  0  0  0  0  0  0  0  0  0  0
    8.1522    3.7494  -13.8457 N   0  0  0  0  0  0  0  0  0  0  0  0
    6.8474    3.5083  -13.5438 C   0  0  0  0  0  0  0  0  0  0  0  0
    6.1924    4.3648  -12.6949 C   0  0  0  0  0  0  0  0  0  0  0  0
    6.8672    5.4826  -12.1520 C   0  0  0  0  0  0  0  0  0  0  0  0
    8.1911    5.7285  -12.4500 C   0  0  0  0  0  0  0  0  0  0  0  0
    8.8523    6.9623  -11.8532 C   0  0  0  0  0  0  0  0  0  0  0  0
    9.7903    6.7090  -10.7636 N   0  0  0  0  0  0  0  0  0  0  0  0
    9.0936    6.2370   -9.5570 C   0  0  0  0  0  0  0  0  0  0  0  0
   10.0854    6.0112   -8.3963 C   0  0  0  0  0  0  0  0  0  0  0  0
   10.8844    7.2126   -8.1835 N   0  0  0  0  0  0  0  0  0  0  0  0
   11.1485    7.7198   -6.9006 C   0  0  0  0  0  0  0  0  0  0  0  0
   11.2922    9.1099   -6.6995 C   0  0  0  0  0  0  0  0  0  0  0  0
   11.5796    9.6256   -5.4233 C   0  0  0  0  0  0  0  0  0  0  0  0
   11.7343    8.7497   -4.3314 C   0  0  0  0  0  0  0  0  0  0  0  0
   12.0867    9.3712   -2.7644 Cl  0  0  0  0  0  0  0  0  0  0  0  0
   11.5980    7.3622   -4.5182 C   0  0  0  0  0  0  0  0  0  0  0  0
   11.2864    6.8539   -5.7931 C   0  0  0  0  0  0  0  0  0  0  0  0
   11.5048    7.7740   -9.3765 C   0  0  0  0  0  0  0  0  0  0  0  0
   10.4359    7.9882  -10.4508 C   0  0  0  0  0  0  0  0  0  0  0  0
    8.8856    4.8465  -13.3347 C   0  0  0  0  0  0  0  0  0  0  0  0
   13.2465    5.3723  -13.6498 H   0  0  0  0  0  0  0  0  0  0  0  0
   11.3620    6.1573  -12.7825 H   0  0  0  0  0  0  0  0  0  0  0  0
   11.3551    6.4156  -14.5219 H   0  0  0  0  0  0  0  0  0  0  0  0
   10.8708    3.1707  -15.2930 H   0  0  0  0  0  0  0  0  0  0  0  0
    6.3855    2.6382  -13.9981 H   0  0  0  0  0  0  0  0  0  0  0  0
    5.1540    4.1819  -12.4398 H   0  0  0  0  0  0  0  0  0  0  0  0
    6.3366    6.1621  -11.4860 H   0  0  0  0  0  0  0  0  0  0  0  0
    9.3908    7.4680  -12.6471 H   0  0  0  0  0  0  0  0  0  0  0  0
    8.0866    7.6676  -11.5279 H   0  0  0  0  0  0  0  0  0  0  0  0
    8.3455    6.9675   -9.2501 H   0  0  0  0  0  0  0  0  0  0  0  0
    8.5607    5.3087   -9.7685 H   0  0  0  0  0  0  0  0  0  0  0  0
    9.5233    5.7500   -7.4991 H   0  0  0  0  0  0  0  0  0  0  0  0
   10.7458    5.1738   -8.6225 H   0  0  0  0  0  0  0  0  0  0  0  0
   11.1726    9.7948   -7.5235 H   0  0  0  0  0  0  0  0  0  0  0  0
   11.6827   10.6908   -5.2897 H   0  0  0  0  0  0  0  0  0  0  0  0
   11.7172    6.6881   -3.6829 H   0  0  0  0  0  0  0  0  0  0  0  0
   11.1925    5.7870   -5.9191 H   0  0  0  0  0  0  0  0  0  0  0  0
   12.0334    8.7060   -9.1764 H   0  0  0  0  0  0  0  0  0  0  0  0
   12.2502    7.0798   -9.7608 H   0  0  0  0  0  0  0  0  0  0  0  0
   10.9132    8.3880  -11.3454 H   0  0  0  0  0  0  0  0  0  0  0  0
    9.7002    8.7243  -10.1179 H   0  0  0  0  0  0  0  0  0  0  0  0
  2  1  1  0
  3  2  1  0
  4  3  1  0
  5  4  2  0
  6  5  1  0
  7  6  1  0
  8  7  2  0
  9  8  1  0
 10  9  2  0
 11 10  1  0
 12 11  1  0
 13 12  1  0
 14 13  1  0
 15 14  1  0
 16 15  1  0
 17 16  1  0
 18 17  2  0
 19 18  1  0
 20 19  1  0
 21 19  2  0
 22 16  2  0
 22 21  1  0
 23 15  1  0
 24 12  1  0
 24 23  1  0
 25  3  2  0
 25  6  1  0
 25 10  1  0
 26  1  1  0
 27  2  1  0
 28  2  1  0
 29  4  1  0
 30  7  1  0
 31  8  1  0
 32  9  1  0
 33 11  1  0
 34 11  1  0
 35 13  1  0
 36 13  1  0
 37 14  1  0
 38 14  1  0
 39 17  1  0
 40 18  1  0
 41 21  1  0
 42 22  1  0
 43 23  1  0
 44 23  1  0
 45 24  1  0
 46 24  1  0
M  END
>  <b_m_subgroup_collapsed>  (722) 
0

>  <r_i_docking_score>  (722) 
-7.4639261942238297

>  <s_m_subgroup_title>  (722) 
glide-dock_SP_D22_pv

>  <s_m_subgroupid>  (722) 
glide-dock_SP_D22_pv

>  <Molecule ChEMBL ID>  (722) 
CHEMBL328925

>  <Standard Type>  (722) 
Ki

>  <Standard Value>  (722) 
39000.0

>  <label>  (722) 
0

$$$$
CHEMBL3588916
     RDKit          3D

 64 68  0  0  1  0  0  0  0  0999 V2000
   11.9228   10.8157   -6.2481 C   0  0  0  0  0  0  0  0  0  0  0  0
   10.9582   10.4580   -5.2762 O   0  0  0  0  0  0  0  0  0  0  0  0
   11.3132    9.3481   -4.5575 C   0  0  0  0  0  0  0  0  0  0  0  0
   11.7188    9.5554   -3.2252 C   0  0  0  0  0  0  0  0  0  0  0  0
   12.1086    8.4766   -2.4144 C   0  0  0  0  0  0  0  0  0  0  0  0
   12.0900    7.1734   -2.9365 C   0  0  0  0  0  0  0  0  0  0  0  0
   11.6860    6.9589   -4.2663 C   0  0  0  0  0  0  0  0  0  0  0  0
   11.2860    8.0308   -5.0997 C   0  0  0  0  0  0  0  0  0  0  0  0
   10.8316    7.7538   -6.4108 N   0  0  0  0  0  0  0  0  0  0  0  0
    9.7105    8.4772   -7.0111 C   0  0  0  0  0  0  0  0  0  0  0  0
    8.7451    7.5417   -7.7625 C   0  0  0  0  0  0  0  0  0  0  0  0
    9.4438    6.5505   -8.6240 N   0  0  0  0  0  0  0  0  0  0  0  0
    8.5119    5.6208   -9.3101 C   0  0  0  0  0  0  0  0  0  0  0  0
    9.1318    4.8623  -10.4986 C   0  0  0  0  0  0  0  0  0  0  0  0
    9.5549    5.7832  -11.6619 C   0  0  0  0  0  0  0  0  0  0  0  0
    9.8483    5.0511  -12.9886 C   0  0  0  0  0  0  0  0  0  0  0  0
    8.7112    4.1895  -13.4580 C   0  0  0  0  0  0  0  0  0  0  0  0
    8.7278    2.9216  -13.9684 C   0  0  0  0  0  0  0  0  0  0  0  0
    7.3912    2.6485  -14.1902 N   0  0  0  0  0  0  0  0  0  0  0  0
    6.7974    1.4738  -14.6891 C   0  0  0  0  0  0  0  0  0  0  0  0
    5.7390    0.8544  -13.9850 C   0  0  0  0  0  0  0  0  0  0  0  0
    5.0465   -0.2294  -14.5622 C   0  0  0  0  0  0  0  0  0  0  0  0
    5.4175   -0.6939  -15.8410 C   0  0  0  0  0  0  0  0  0  0  0  0
    4.7271   -1.7461  -16.4782 C   0  0  0  0  0  0  0  0  0  0  0  0
    5.0472   -2.1967  -17.7094 N   0  0  0  0  0  0  0  0  0  0  0  0
    6.0833   -1.6226  -18.3523 C   0  0  0  0  0  0  0  0  0  0  0  0
    6.8404   -0.5678  -17.8085 C   0  0  0  0  0  0  0  0  0  0  0  0
    6.4994   -0.0954  -16.5274 C   0  0  0  0  0  0  0  0  0  0  0  0
    7.2009    0.9766  -15.9444 C   0  0  0  0  0  0  0  0  0  0  0  0
    6.6103    3.6998  -13.8468 N   0  0  0  0  0  0  0  0  0  0  0  0
    7.3954    4.6448  -13.4467 N   0  0  0  0  0  0  0  0  0  0  0  0
   10.4440    5.8181   -7.8299 C   0  0  0  0  0  0  0  0  0  0  0  0
   11.4961    6.7576   -7.2371 C   0  0  0  0  0  0  0  0  0  0  0  0
   11.6861   11.7723   -6.7041 H   0  0  0  0  0  0  0  0  0  0  0  0
   12.9196   10.9053   -5.8466 H   0  0  0  0  0  0  0  0  0  0  0  0
   11.9867   10.0838   -7.0468 H   0  0  0  0  0  0  0  0  0  0  0  0
   11.7317   10.5570   -2.8195 H   0  0  0  0  0  0  0  0  0  0  0  0
   12.4135    8.6525   -1.3931 H   0  0  0  0  0  0  0  0  0  0  0  0
   12.3766    6.3351   -2.3176 H   0  0  0  0  0  0  0  0  0  0  0  0
   11.6480    5.9415   -4.6254 H   0  0  0  0  0  0  0  0  0  0  0  0
   10.0913    9.2222   -7.7083 H   0  0  0  0  0  0  0  0  0  0  0  0
    9.1420    9.0010   -6.2468 H   0  0  0  0  0  0  0  0  0  0  0  0
    8.0907    8.1599   -8.3692 H   0  0  0  0  0  0  0  0  0  0  0  0
    8.1119    7.0161   -7.0456 H   0  0  0  0  0  0  0  0  0  0  0  0
    7.6716    6.1723   -9.7027 H   0  0  0  0  0  0  0  0  0  0  0  0
    8.0966    4.9156   -8.5888 H   0  0  0  0  0  0  0  0  0  0  0  0
    8.3639    4.1734  -10.8468 H   0  0  0  0  0  0  0  0  0  0  0  0
    9.9630    4.2261  -10.1976 H   0  0  0  0  0  0  0  0  0  0  0  0
   10.4273    6.3694  -11.3733 H   0  0  0  0  0  0  0  0  0  0  0  0
    8.7577    6.5071  -11.8450 H   0  0  0  0  0  0  0  0  0  0  0  0
   10.7383    4.4362  -12.8596 H   0  0  0  0  0  0  0  0  0  0  0  0
   10.0991    5.7786  -13.7593 H   0  0  0  0  0  0  0  0  0  0  0  0
    9.5229    2.2143  -14.1515 H   0  0  0  0  0  0  0  0  0  0  0  0
    5.4284    1.2384  -13.0235 H   0  0  0  0  0  0  0  0  0  0  0  0
    4.2157   -0.6835  -14.0424 H   0  0  0  0  0  0  0  0  0  0  0  0
    3.8887   -2.2279  -15.9966 H   0  0  0  0  0  0  0  0  0  0  0  0
    6.3102   -2.0115  -19.3334 H   0  0  0  0  0  0  0  0  0  0  0  0
    7.6577   -0.1396  -18.3673 H   0  0  0  0  0  0  0  0  0  0  0  0
    8.0075    1.4532  -16.4803 H   0  0  0  0  0  0  0  0  0  0  0  0
    9.8895    5.3723   -7.0163 H   0  0  0  0  0  0  0  0  0  0  0  0
   10.8860    5.0085   -8.3985 H   0  0  0  0  0  0  0  0  0  0  0  0
   12.0460    7.2699   -8.0279 H   0  0  0  0  0  0  0  0  0  0  0  0
   12.2272    6.1730   -6.6800 H   0  0  0  0  0  0  0  0  0  0  0  0
    9.9258    7.0742   -9.3394 H   0  0  0  0  0  0  0  0  0  0  0  0
  2  1  1  0
  3  2  1  0
  4  3  2  0
  5  4  1  0
  6  5  2  0
  7  6  1  0
  8  3  1  0
  8  7  2  0
  9  8  1  0
 10  9  1  0
 11 10  1  0
 12 11  1  0
 13 12  1  0
 14 13  1  0
 15 14  1  0
 16 15  1  0
 17 16  1  0
 18 17  2  0
 19 18  1  0
 20 19  1  0
 21 20  1  0
 22 21  2  0
 23 22  1  0
 24 23  2  0
 25 24  1  0
 26 25  2  0
 27 26  1  0
 28 23  1  0
 28 27  2  0
 29 20  2  0
 29 28  1  0
 30 19  1  0
 31 17  1  0
 31 30  2  0
 32 12  1  0
 33  9  1  0
 33 32  1  0
 34  1  1  0
 35  1  1  0
 36  1  1  0
 37  4  1  0
 38  5  1  0
 39  6  1  0
 40  7  1  0
 41 10  1  0
 42 10  1  0
 43 11  1  0
 44 11  1  0
 45 13  1  0
 46 13  1  0
 47 14  1  0
 48 14  1  0
 49 15  1  0
 50 15  1  0
 51 16  1  0
 52 16  1  0
 53 18  1  0
 54 21  1  0
 55 22  1  0
 56 24  1  0
 57 26  1  0
 58 27  1  0
 59 29  1  0
 60 32  1  0
 61 32  1  0
 62 33  1  0
 63 33  1  0
 64 12  1  0
M  CHG  1  12   1
M  END
>  <b_m_subgroup_collapsed>  (723) 
0

>  <r_i_docking_score>  (723) 
-7.4626500139702596

>  <s_m_subgroup_title>  (723) 
glide-dock_SP_D22_pv

>  <s_m_subgroupid>  (723) 
glide-dock_SP_D22_pv

>  <Molecule ChEMBL ID>  (723) 
CHEMBL3588916

>  <Standard Type>  (723) 
Ki

>  <Standard Value>  (723) 
83.4

>  <label>  (723) 
1

$$$$
CHEMBL5435054
     RDKit          3D

 62 64  0  0  1  0  0  0  0  0999 V2000
    3.7424   -0.8215  -14.6238 C   0  0  0  0  0  0  0  0  0  0  0  0
    5.2330   -0.6398  -14.9322 C   0  0  0  0  0  0  0  0  0  0  0  0
    5.6726    0.5747  -14.3379 O   0  0  0  0  0  0  0  0  0  0  0  0
    6.9171    1.0623  -14.6798 C   0  0  0  0  0  0  0  0  0  0  0  0
    7.8756    0.3541  -15.4405 C   0  0  0  0  0  0  0  0  0  0  0  0
    9.1345    0.9230  -15.7205 C   0  0  0  0  0  0  0  0  0  0  0  0
    9.4524    2.2179  -15.2645 C   0  0  0  0  0  0  0  0  0  0  0  0
    8.5139    2.9660  -14.5210 C   0  0  0  0  0  0  0  0  0  0  0  0
    8.4602    4.2693  -13.9275 C   0  0  0  0  0  0  0  0  0  0  0  0
    7.2196    4.3620  -13.3356 C   0  0  0  0  0  0  0  0  0  0  0  0
    6.5487    5.4543  -12.5703 C   0  0  0  0  0  0  0  0  0  0  0  0
    7.4548    6.5724  -12.2468 N   0  0  0  0  0  0  0  0  0  0  0  0
    8.4862    6.2627  -11.2335 C   0  0  0  0  0  0  0  0  0  0  0  0
    9.1469    7.5480  -10.6952 C   0  0  0  0  0  0  0  0  0  0  0  0
    9.4312    7.4708   -9.1818 C   0  0  1  0  0  0  0  0  0  0  0  0
   10.6329    6.5659   -8.8675 C   0  0  0  0  0  0  0  0  0  0  0  0
   10.8491    6.4521   -7.3534 C   0  0  0  0  0  0  0  0  0  0  0  0
   11.0801    7.8354   -6.7241 C   0  0  2  0  0  0  0  0  0  0  0  0
   11.2860    7.6705   -5.2898 N   0  0  0  0  0  0  0  0  0  0  0  0
   11.7571    8.6072   -4.4521 C   0  0  0  0  0  0  0  0  0  0  0  0
   11.9506    9.7720   -4.8018 O   0  0  0  0  0  0  0  0  0  0  0  0
   11.9615    8.1666   -3.1883 N   0  0  0  0  0  0  0  0  0  0  0  0
   11.9677    6.7519   -2.7920 C   0  0  0  0  0  0  0  0  0  0  0  0
   12.2717    9.1168   -2.1225 C   0  0  0  0  0  0  0  0  0  0  0  0
    9.8946    8.7704   -7.0419 C   0  0  0  0  0  0  0  0  0  0  0  0
    9.6391    8.8621   -8.5569 C   0  0  0  0  0  0  0  0  0  0  0  0
    6.4817    3.2261  -13.5188 O   0  0  0  0  0  0  0  0  0  0  0  0
    7.2636    2.3542  -14.2469 C   0  0  0  0  0  0  0  0  0  0  0  0
    3.3683   -1.7551  -15.0464 H   0  0  0  0  0  0  0  0  0  0  0  0
    3.5579   -0.8424  -13.5502 H   0  0  0  0  0  0  0  0  0  0  0  0
    3.1548   -0.0052  -15.0446 H   0  0  0  0  0  0  0  0  0  0  0  0
    5.3690   -0.6129  -16.0143 H   0  0  0  0  0  0  0  0  0  0  0  0
    5.8048   -1.4811  -14.5368 H   0  0  0  0  0  0  0  0  0  0  0  0
    7.6667   -0.6278  -15.8219 H   0  0  0  0  0  0  0  0  0  0  0  0
    9.8582    0.3619  -16.2943 H   0  0  0  0  0  0  0  0  0  0  0  0
   10.4185    2.6433  -15.4916 H   0  0  0  0  0  0  0  0  0  0  0  0
    9.2494    5.0047  -13.9603 H   0  0  0  0  0  0  0  0  0  0  0  0
    5.7092    5.8427  -13.1469 H   0  0  0  0  0  0  0  0  0  0  0  0
    6.1202    5.0569  -11.6489 H   0  0  0  0  0  0  0  0  0  0  0  0
    7.8576    6.9780  -13.0769 H   0  0  0  0  0  0  0  0  0  0  0  0
    7.9886    5.7367  -10.4169 H   0  0  0  0  0  0  0  0  0  0  0  0
    9.2417    5.5806  -11.6219 H   0  0  0  0  0  0  0  0  0  0  0  0
   10.0560    7.7749  -11.2536 H   0  0  0  0  0  0  0  0  0  0  0  0
    8.4861    8.3978  -10.8690 H   0  0  0  0  0  0  0  0  0  0  0  0
    8.5475    7.0494   -8.6973 H   0  0  0  0  0  0  0  0  0  0  0  0
   10.4805    5.5707   -9.2863 H   0  0  0  0  0  0  0  0  0  0  0  0
   11.5291    6.9722   -9.3385 H   0  0  0  0  0  0  0  0  0  0  0  0
   11.6896    5.7921   -7.1407 H   0  0  0  0  0  0  0  0  0  0  0  0
    9.9742    5.9839   -6.9007 H   0  0  0  0  0  0  0  0  0  0  0  0
   11.9885    8.2657   -7.1518 H   0  0  0  0  0  0  0  0  0  0  0  0
   11.1225    6.7514   -4.9079 H   0  0  0  0  0  0  0  0  0  0  0  0
   12.4841    6.1297   -3.5227 H   0  0  0  0  0  0  0  0  0  0  0  0
   12.4858    6.5994   -1.8454 H   0  0  0  0  0  0  0  0  0  0  0  0
   10.9502    6.3764   -2.6773 H   0  0  0  0  0  0  0  0  0  0  0  0
   11.6984   10.0372   -2.2469 H   0  0  0  0  0  0  0  0  0  0  0  0
   12.0372    8.7190   -1.1357 H   0  0  0  0  0  0  0  0  0  0  0  0
   13.3302    9.3705   -2.1422 H   0  0  0  0  0  0  0  0  0  0  0  0
   10.0866    9.7696   -6.6524 H   0  0  0  0  0  0  0  0  0  0  0  0
    8.9916    8.4101   -6.5454 H   0  0  0  0  0  0  0  0  0  0  0  0
   10.4714    9.3720   -9.0430 H   0  0  0  0  0  0  0  0  0  0  0  0
    8.7526    9.4723   -8.7295 H   0  0  0  0  0  0  0  0  0  0  0  0
    6.8863    7.2647  -11.7500 H   0  0  0  0  0  0  0  0  0  0  0  0
  2  1  1  0
  3  2  1  0
  4  3  1  0
  5  4  1  0
  6  5  2  0
  7  6  1  0
  8  7  2  0
  9  8  1  0
 10  9  2  0
 11 10  1  0
 12 11  1  0
 13 12  1  0
 14 13  1  0
 15 14  1  0
 16 15  1  0
 17 16  1  0
 18 17  1  0
 19 18  1  0
 20 19  1  0
 21 20  2  0
 22 20  1  0
 23 22  1  0
 24 22  1  0
 25 18  1  0
 26 15  1  0
 26 25  1  0
 27 10  1  0
 28  4  2  0
 28  8  1  0
 28 27  1  0
 29  1  1  0
 30  1  1  0
 31  1  1  0
 32  2  1  0
 33  2  1  0
 34  5  1  0
 35  6  1  0
 36  7  1  0
 37  9  1  0
 38 11  1  0
 39 11  1  0
 40 12  1  0
 41 13  1  0
 42 13  1  0
 43 14  1  0
 44 14  1  0
 15 45  1  1
 46 16  1  0
 47 16  1  0
 48 17  1  0
 49 17  1  0
 18 50  1  6
 51 19  1  0
 52 23  1  0
 53 23  1  0
 54 23  1  0
 55 24  1  0
 56 24  1  0
 57 24  1  0
 58 25  1  0
 59 25  1  0
 60 26  1  0
 61 26  1  0
 62 12  1  0
M  CHG  1  12   1
M  END
>  <b_m_subgroup_collapsed>  (724) 
0

>  <r_i_docking_score>  (724) 
-7.4624098844319198

>  <s_m_subgroup_title>  (724) 
glide-dock_SP_D22_pv

>  <s_m_subgroupid>  (724) 
glide-dock_SP_D22_pv

>  <Molecule ChEMBL ID>  (724) 
CHEMBL5435054

>  <Standard Type>  (724) 
Ki

>  <Standard Value>  (724) 
100.0

>  <label>  (724) 
1

$$$$
CHEMBL381472
     RDKit          3D

 44 46  0  0  1  0  0  0  0  0999 V2000
   10.0245    6.7150  -10.2974 O   0  0  0  0  0  0  0  0  0  0  0  0
    9.2387    5.8863   -9.8371 C   0  0  0  0  0  0  0  0  0  0  0  0
    8.6130    4.8308  -10.7456 C   0  0  0  0  0  0  0  0  0  0  0  0
    7.9621    5.4475  -12.0000 C   0  0  0  0  0  0  0  0  0  0  0  0
    8.1490    4.5705  -13.2401 C   0  0  0  0  0  0  0  0  0  0  0  0
    7.1686    3.9790  -13.6931 O   0  0  0  0  0  0  0  0  0  0  0  0
    9.5174    4.4472  -13.8229 C   0  0  0  0  0  0  0  0  0  0  0  0
   10.5704    5.3211  -13.4623 C   0  0  0  0  0  0  0  0  0  0  0  0
   11.8461    5.1856  -14.0472 C   0  0  0  0  0  0  0  0  0  0  0  0
   12.0834    4.1739  -14.9949 C   0  0  0  0  0  0  0  0  0  0  0  0
   11.0446    3.2967  -15.3613 C   0  0  0  0  0  0  0  0  0  0  0  0
    9.7682    3.4373  -14.7821 C   0  0  0  0  0  0  0  0  0  0  0  0
    8.8812    5.8440   -8.5474 N   0  0  0  0  0  0  0  0  0  0  0  0
    9.2000    6.8702   -7.5672 C   0  0  0  0  0  0  0  0  0  0  0  0
   10.6811    6.8459   -7.1593 C   0  0  0  0  0  0  0  0  0  0  0  0
   11.0092    7.9615   -6.2197 C   0  0  0  0  0  0  0  0  0  0  0  0
   10.9587    9.2966   -6.5178 C   0  0  0  0  0  0  0  0  0  0  0  0
   11.3268   10.0252   -5.4001 N   0  0  0  0  0  0  0  0  0  0  0  0
   11.6503    9.1789   -4.3581 C   0  0  0  0  0  0  0  0  0  0  0  0
   12.0859    9.4128   -3.0420 C   0  0  0  0  0  0  0  0  0  0  0  0
   12.3267    8.3231   -2.1867 C   0  0  0  0  0  0  0  0  0  0  0  0
   12.1197    7.0100   -2.6468 C   0  0  0  0  0  0  0  0  0  0  0  0
   11.6867    6.7859   -3.9683 C   0  0  0  0  0  0  0  0  0  0  0  0
   11.4425    7.8602   -4.8552 C   0  0  0  0  0  0  0  0  0  0  0  0
    7.8671    4.2525  -10.2004 H   0  0  0  0  0  0  0  0  0  0  0  0
    9.4121    4.1365  -11.0093 H   0  0  0  0  0  0  0  0  0  0  0  0
    8.3510    6.4440  -12.2109 H   0  0  0  0  0  0  0  0  0  0  0  0
    6.8939    5.5860  -11.8227 H   0  0  0  0  0  0  0  0  0  0  0  0
   10.4241    6.1175  -12.7505 H   0  0  0  0  0  0  0  0  0  0  0  0
   12.6436    5.8613  -13.7691 H   0  0  0  0  0  0  0  0  0  0  0  0
   13.0603    4.0701  -15.4458 H   0  0  0  0  0  0  0  0  0  0  0  0
   11.2262    2.5168  -16.0865 H   0  0  0  0  0  0  0  0  0  0  0  0
    8.9827    2.7552  -15.0774 H   0  0  0  0  0  0  0  0  0  0  0  0
    8.2042    5.1477   -8.2712 H   0  0  0  0  0  0  0  0  0  0  0  0
    8.9264    7.8430   -7.9798 H   0  0  0  0  0  0  0  0  0  0  0  0
    8.5677    6.7191   -6.6909 H   0  0  0  0  0  0  0  0  0  0  0  0
   10.9243    5.8831   -6.7104 H   0  0  0  0  0  0  0  0  0  0  0  0
   11.3160    6.9323   -8.0420 H   0  0  0  0  0  0  0  0  0  0  0  0
   10.6847    9.7729   -7.4464 H   0  0  0  0  0  0  0  0  0  0  0  0
   11.3729   11.0332   -5.3876 H   0  0  0  0  0  0  0  0  0  0  0  0
   12.2228   10.4212   -2.6797 H   0  0  0  0  0  0  0  0  0  0  0  0
   12.6567    8.5005   -1.1733 H   0  0  0  0  0  0  0  0  0  0  0  0
   12.2943    6.1698   -1.9894 H   0  0  0  0  0  0  0  0  0  0  0  0
   11.5309    5.7724   -4.3084 H   0  0  0  0  0  0  0  0  0  0  0  0
  2  1  2  0
  3  2  1  0
  4  3  1  0
  5  4  1  0
  6  5  2  0
  7  5  1  0
  8  7  2  0
  9  8  1  0
 10  9  2  0
 11 10  1  0
 12  7  1  0
 12 11  2  0
 13  2  1  0
 14 13  1  0
 15 14  1  0
 16 15  1  0
 17 16  2  0
 18 17  1  0
 19 18  1  0
 20 19  2  0
 21 20  1  0
 22 21  2  0
 23 22  1  0
 24 16  1  0
 24 19  1  0
 24 23  2  0
 25  3  1  0
 26  3  1  0
 27  4  1  0
 28  4  1  0
 29  8  1  0
 30  9  1  0
 31 10  1  0
 32 11  1  0
 33 12  1  0
 34 13  1  0
 35 14  1  0
 36 14  1  0
 37 15  1  0
 38 15  1  0
 39 17  1  0
 40 18  1  0
 41 20  1  0
 42 21  1  0
 43 22  1  0
 44 23  1  0
M  END
>  <b_m_subgroup_collapsed>  (725) 
0

>  <r_i_docking_score>  (725) 
-7.4613298063112197

>  <s_m_subgroup_title>  (725) 
glide-dock_SP_D22_pv

>  <s_m_subgroupid>  (725) 
glide-dock_SP_D22_pv

>  <Molecule ChEMBL ID>  (725) 
CHEMBL381472

>  <Standard Type>  (725) 
Ki

>  <Standard Value>  (725) 
10000.0

>  <label>  (725) 
0

$$$$
CHEMBL221129
     RDKit          3D

 78 81  0  0  1  0  0  0  0  0999 V2000
    5.6822    0.7758  -13.4189 C   0  0  0  0  0  0  0  0  0  0  0  0
    6.9345    0.3459  -14.1901 C   0  0  0  0  0  0  0  0  0  0  0  0
    7.1716    1.1828  -15.4558 C   0  0  0  0  0  0  0  0  0  0  0  0
    8.4173    0.7850  -16.1911 C   0  0  0  0  0  0  0  0  0  0  0  0
    9.7174    1.2265  -16.1555 C   0  0  0  0  0  0  0  0  0  0  0  0
   10.2935    2.3467  -15.3605 C   0  0  0  0  0  0  0  0  0  0  0  0
   11.2953    2.9670  -15.7179 O   0  0  0  0  0  0  0  0  0  0  0  0
    9.6684    2.5723  -14.1965 N   0  0  0  0  0  0  0  0  0  0  0  0
   10.0935    3.5076  -13.1684 C   0  0  0  0  0  0  0  0  0  0  0  0
    9.1774    4.7409  -13.0892 C   0  0  0  0  0  0  0  0  0  0  0  0
    9.6278    5.6658  -11.9503 C   0  0  0  0  0  0  0  0  0  0  0  0
    8.7298    6.8918  -11.7241 C   0  0  0  0  0  0  0  0  0  0  0  0
    9.2867    7.9400  -10.7330 C   0  0  0  0  0  0  0  0  0  0  0  0
    9.2965    7.4971   -9.3083 N   0  0  0  0  0  0  0  0  0  0  0  0
   10.5508    6.7884   -8.9124 C   0  0  0  0  0  0  0  0  0  0  0  0
   10.4526    6.2196   -7.4871 C   0  0  0  0  0  0  0  0  0  0  0  0
   10.0855    7.2780   -6.5651 N   0  0  0  0  0  0  0  0  0  0  0  0
   10.9261    7.5926   -5.4774 C   0  0  0  0  0  0  0  0  0  0  0  0
   11.2838    6.5882   -4.5536 C   0  0  0  0  0  0  0  0  0  0  0  0
   12.0537    6.8746   -3.4104 C   0  0  0  0  0  0  0  0  0  0  0  0
   12.4856    8.1852   -3.1824 C   0  0  0  0  0  0  0  0  0  0  0  0
   12.1795    9.1879   -4.1172 C   0  0  0  0  0  0  0  0  0  0  0  0
   11.4207    8.9024   -5.2864 C   0  0  0  0  0  0  0  0  0  0  0  0
   11.1638    9.8260   -6.2752 O   0  0  0  0  0  0  0  0  0  0  0  0
   11.7740   11.0855   -6.1433 C   0  0  0  0  0  0  0  0  0  0  0  0
    8.9347    8.1114   -6.9115 C   0  0  0  0  0  0  0  0  0  0  0  0
    9.0261    8.6124   -8.3651 C   0  0  0  0  0  0  0  0  0  0  0  0
   10.4707    0.4650  -17.0507 N   0  0  0  0  0  0  0  0  0  0  0  0
    9.7077   -0.4092  -17.6214 N   0  0  0  0  0  0  0  0  0  0  0  0
    8.4580   -0.2271  -17.1362 N   0  0  0  0  0  0  0  0  0  0  0  0
    7.3720   -1.0570  -17.6367 C   0  0  0  0  0  0  0  0  0  0  0  0
    6.5345   -0.3396  -18.6843 C   0  0  0  0  0  0  0  0  0  0  0  0
    7.1837    0.2377  -19.7990 C   0  0  0  0  0  0  0  0  0  0  0  0
    6.4460    0.8932  -20.7985 C   0  0  0  0  0  0  0  0  0  0  0  0
    5.0477    0.9706  -20.6938 C   0  0  0  0  0  0  0  0  0  0  0  0
    4.3870    0.3942  -19.5943 C   0  0  0  0  0  0  0  0  0  0  0  0
    5.1197   -0.2611  -18.5876 C   0  0  0  0  0  0  0  0  0  0  0  0
    4.1619   -1.0277  -17.1258 Br  0  0  0  0  0  0  0  0  0  0  0  0
    5.5556    0.1738  -12.5192 H   0  0  0  0  0  0  0  0  0  0  0  0
    5.7489    1.8193  -13.1075 H   0  0  0  0  0  0  0  0  0  0  0  0
    4.7841    0.6606  -14.0282 H   0  0  0  0  0  0  0  0  0  0  0  0
    6.8437   -0.7088  -14.4574 H   0  0  0  0  0  0  0  0  0  0  0  0
    7.7996    0.4132  -13.5309 H   0  0  0  0  0  0  0  0  0  0  0  0
    7.2096    2.2426  -15.2026 H   0  0  0  0  0  0  0  0  0  0  0  0
    6.3123    1.0820  -16.1187 H   0  0  0  0  0  0  0  0  0  0  0  0
    8.8850    1.9725  -13.9773 H   0  0  0  0  0  0  0  0  0  0  0  0
   10.0815    2.9725  -12.2181 H   0  0  0  0  0  0  0  0  0  0  0  0
   11.1277    3.8211  -13.3275 H   0  0  0  0  0  0  0  0  0  0  0  0
    9.1915    5.2748  -14.0387 H   0  0  0  0  0  0  0  0  0  0  0  0
    8.1495    4.4221  -12.9208 H   0  0  0  0  0  0  0  0  0  0  0  0
    9.6491    5.0649  -11.0437 H   0  0  0  0  0  0  0  0  0  0  0  0
   10.6459    5.9988  -12.1510 H   0  0  0  0  0  0  0  0  0  0  0  0
    8.5871    7.3951  -12.6781 H   0  0  0  0  0  0  0  0  0  0  0  0
    7.7318    6.5716  -11.4300 H   0  0  0  0  0  0  0  0  0  0  0  0
   10.2757    8.2823  -11.0341 H   0  0  0  0  0  0  0  0  0  0  0  0
    8.6353    8.8119  -10.8182 H   0  0  0  0  0  0  0  0  0  0  0  0
   10.7995    5.9829   -9.5903 H   0  0  0  0  0  0  0  0  0  0  0  0
   11.3849    7.4895   -8.9646 H   0  0  0  0  0  0  0  0  0  0  0  0
    9.6979    5.4323   -7.4451 H   0  0  0  0  0  0  0  0  0  0  0  0
   11.4059    5.7707   -7.1990 H   0  0  0  0  0  0  0  0  0  0  0  0
   10.8910    5.5985   -4.6722 H   0  0  0  0  0  0  0  0  0  0  0  0
   12.2814    6.0915   -2.7013 H   0  0  0  0  0  0  0  0  0  0  0  0
   13.0651    8.4249   -2.3005 H   0  0  0  0  0  0  0  0  0  0  0  0
   12.5617   10.1710   -3.9041 H   0  0  0  0  0  0  0  0  0  0  0  0
   11.6835   11.6839   -7.0465 H   0  0  0  0  0  0  0  0  0  0  0  0
   11.2878   11.6093   -5.3192 H   0  0  0  0  0  0  0  0  0  0  0  0
   12.8438   10.9722   -5.9646 H   0  0  0  0  0  0  0  0  0  0  0  0
    8.0379    7.5108   -6.7731 H   0  0  0  0  0  0  0  0  0  0  0  0
    8.8324    8.9657   -6.2472 H   0  0  0  0  0  0  0  0  0  0  0  0
    9.8202    9.3563   -8.4520 H   0  0  0  0  0  0  0  0  0  0  0  0
    8.1049    9.1296   -8.6235 H   0  0  0  0  0  0  0  0  0  0  0  0
    6.7742   -1.3785  -16.7876 H   0  0  0  0  0  0  0  0  0  0  0  0
    7.7854   -1.9617  -18.0839 H   0  0  0  0  0  0  0  0  0  0  0  0
    8.2584    0.1795  -19.8985 H   0  0  0  0  0  0  0  0  0  0  0  0
    6.9498    1.3296  -21.6484 H   0  0  0  0  0  0  0  0  0  0  0  0
    4.4863    1.4733  -21.4623 H   0  0  0  0  0  0  0  0  0  0  0  0
    3.3094    0.4487  -19.5251 H   0  0  0  0  0  0  0  0  0  0  0  0
    8.5127    6.8657   -9.2052 H   0  0  0  0  0  0  0  0  0  0  0  0
  2  1  1  0
  3  2  1  0
  4  3  1  0
  5  4  2  0
  6  5  1  0
  7  6  2  0
  8  6  1  0
  9  8  1  0
 10  9  1  0
 11 10  1  0
 12 11  1  0
 13 12  1  0
 14 13  1  0
 15 14  1  0
 16 15  1  0
 17 16  1  0
 18 17  1  0
 19 18  2  0
 20 19  1  0
 21 20  2  0
 22 21  1  0
 23 18  1  0
 23 22  2  0
 24 23  1  0
 25 24  1  0
 26 17  1  0
 27 14  1  0
 27 26  1  0
 28  5  1  0
 29 28  2  0
 30  4  1  0
 30 29  1  0
 31 30  1  0
 32 31  1  0
 33 32  2  0
 34 33  1  0
 35 34  2  0
 36 35  1  0
 37 32  1  0
 37 36  2  0
 38 37  1  0
 39  1  1  0
 40  1  1  0
 41  1  1  0
 42  2  1  0
 43  2  1  0
 44  3  1  0
 45  3  1  0
 46  8  1  0
 47  9  1  0
 48  9  1  0
 49 10  1  0
 50 10  1  0
 51 11  1  0
 52 11  1  0
 53 12  1  0
 54 12  1  0
 55 13  1  0
 56 13  1  0
 57 15  1  0
 58 15  1  0
 59 16  1  0
 60 16  1  0
 61 19  1  0
 62 20  1  0
 63 21  1  0
 64 22  1  0
 65 25  1  0
 66 25  1  0
 67 25  1  0
 68 26  1  0
 69 26  1  0
 70 27  1  0
 71 27  1  0
 72 31  1  0
 73 31  1  0
 74 33  1  0
 75 34  1  0
 76 35  1  0
 77 36  1  0
 78 14  1  0
M  CHG  1  14   1
M  END
>  <b_m_subgroup_collapsed>  (726) 
0

>  <r_i_docking_score>  (726) 
-7.4611985059102404

>  <s_m_subgroup_title>  (726) 
glide-dock_SP_D22_pv

>  <s_m_subgroupid>  (726) 
glide-dock_SP_D22_pv

>  <Molecule ChEMBL ID>  (726) 
CHEMBL221129

>  <Standard Type>  (726) 
Ki

>  <Standard Value>  (726) 
0.91

>  <label>  (726) 
1

$$$$
CHEMBL540538
     RDKit          3D

 44 45  0  0  1  0  0  0  0  0999 V2000
    8.8705    8.3865  -12.0953 C   0  0  0  0  0  0  0  0  0  0  0  0
    8.6018    6.8773  -12.2503 C   0  0  0  0  0  0  0  0  0  0  0  0
    8.3192    6.1724  -10.9632 N   0  0  0  0  0  0  0  0  0  0  0  0
    7.8435    4.7751  -11.1480 C   0  0  0  0  0  0  0  0  0  0  0  0
    6.4944    4.6795  -11.8810 C   0  0  0  0  0  0  0  0  0  0  0  0
    9.4356    6.2702   -9.9764 C   0  0  0  0  0  0  0  0  0  0  0  0
    9.2863    7.4969   -9.0435 C   0  0  0  0  0  0  0  0  0  0  0  0
   10.5853    8.0636   -8.4181 C   0  0  1  0  0  0  0  0  0  0  0  0
   11.7840    8.2480   -9.3763 C   0  0  0  0  0  0  0  0  0  0  0  0
   10.2725    9.3697   -7.9599 O   0  0  0  0  0  0  0  0  0  0  0  0
   10.5896    9.4530   -6.6369 C   0  0  0  0  0  0  0  0  0  0  0  0
   11.0193    8.3328   -6.0575 C   0  0  0  0  0  0  0  0  0  0  0  0
   11.5104    8.2061   -4.6746 C   0  0  0  0  0  0  0  0  0  0  0  0
   11.7803    9.3729   -3.9286 C   0  0  0  0  0  0  0  0  0  0  0  0
   12.2495    9.2772   -2.6109 C   0  0  0  0  0  0  0  0  0  0  0  0
   12.4747    8.0200   -2.0324 C   0  0  0  0  0  0  0  0  0  0  0  0
   12.1750    6.8504   -2.7527 C   0  0  0  0  0  0  0  0  0  0  0  0
   11.6865    6.9426   -4.0690 C   0  0  0  0  0  0  0  0  0  0  0  0
   11.0026    7.3602   -7.1333 C   0  0  0  0  0  0  0  0  0  0  0  0
   11.2863    6.1721   -7.0740 O   0  0  0  0  0  0  0  0  0  0  0  0
    8.9178    8.9045  -13.0467 H   0  0  0  0  0  0  0  0  0  0  0  0
    8.0824    8.8843  -11.5325 H   0  0  0  0  0  0  0  0  0  0  0  0
    9.8192    8.5754  -11.6016 H   0  0  0  0  0  0  0  0  0  0  0  0
    9.4374    6.3960  -12.7595 H   0  0  0  0  0  0  0  0  0  0  0  0
    7.7435    6.7801  -12.9138 H   0  0  0  0  0  0  0  0  0  0  0  0
    8.6024    4.1840  -11.6653 H   0  0  0  0  0  0  0  0  0  0  0  0
    7.7040    4.3157  -10.1685 H   0  0  0  0  0  0  0  0  0  0  0  0
    6.0926    3.6698  -11.7955 H   0  0  0  0  0  0  0  0  0  0  0  0
    5.7615    5.3634  -11.4495 H   0  0  0  0  0  0  0  0  0  0  0  0
    6.5789    4.8969  -12.9457 H   0  0  0  0  0  0  0  0  0  0  0  0
   10.3707    6.2809  -10.5323 H   0  0  0  0  0  0  0  0  0  0  0  0
    9.4868    5.3790   -9.3484 H   0  0  0  0  0  0  0  0  0  0  0  0
    8.5730    7.2434   -8.2560 H   0  0  0  0  0  0  0  0  0  0  0  0
    8.8056    8.3238   -9.5548 H   0  0  0  0  0  0  0  0  0  0  0  0
   12.1287    7.3096   -9.8075 H   0  0  0  0  0  0  0  0  0  0  0  0
   11.5405    8.9286  -10.1916 H   0  0  0  0  0  0  0  0  0  0  0  0
   12.6386    8.6820   -8.8543 H   0  0  0  0  0  0  0  0  0  0  0  0
   10.4866   10.4418   -6.2161 H   0  0  0  0  0  0  0  0  0  0  0  0
   11.6457   10.3553   -4.3512 H   0  0  0  0  0  0  0  0  0  0  0  0
   12.4403   10.1718   -2.0428 H   0  0  0  0  0  0  0  0  0  0  0  0
   12.8691    7.9596   -1.0316 H   0  0  0  0  0  0  0  0  0  0  0  0
   12.3224    5.8799   -2.3020 H   0  0  0  0  0  0  0  0  0  0  0  0
   11.4568    6.0320   -4.6001 H   0  0  0  0  0  0  0  0  0  0  0  0
    7.5321    6.6947  -10.5579 H   0  0  0  0  0  0  0  0  0  0  0  0
  2  1  1  0
  3  2  1  0
  4  3  1  0
  5  4  1  0
  6  3  1  0
  7  6  1  0
  8  7  1  6
  9  8  1  0
 10  8  1  0
 11 10  1  0
 12 11  2  0
 13 12  1  0
 14 13  2  0
 15 14  1  0
 16 15  2  0
 17 16  1  0
 18 13  1  0
 18 17  2  0
 19  8  1  0
 19 12  1  0
 20 19  2  0
 21  1  1  0
 22  1  1  0
 23  1  1  0
 24  2  1  0
 25  2  1  0
 26  4  1  0
 27  4  1  0
 28  5  1  0
 29  5  1  0
 30  5  1  0
 31  6  1  0
 32  6  1  0
 33  7  1  0
 34  7  1  0
 35  9  1  0
 36  9  1  0
 37  9  1  0
 38 11  1  0
 39 14  1  0
 40 15  1  0
 41 16  1  0
 42 17  1  0
 43 18  1  0
 44  3  1  0
M  CHG  1   3   1
M  END
>  <b_m_subgroup_collapsed>  (727) 
0

>  <r_i_docking_score>  (727) 
-7.45967220114591

>  <s_m_subgroup_title>  (727) 
glide-dock_SP_D22_pv

>  <s_m_subgroupid>  (727) 
glide-dock_SP_D22_pv

>  <Molecule ChEMBL ID>  (727) 
CHEMBL540538

>  <Standard Type>  (727) 
Ki

>  <Standard Value>  (727) 
10000.0

>  <label>  (727) 
0

$$$$
CHEMBL2207495
     RDKit          3D

 41 43  0  0  1  0  0  0  0  0999 V2000
    6.2597    4.3280  -12.6206 C   0  0  0  0  0  0  0  0  0  0  0  0
    6.8967    5.2902  -11.6109 C   0  0  0  0  0  0  0  0  0  0  0  0
    7.8634    4.5840  -10.6469 C   0  0  0  0  0  0  0  0  0  0  0  0
    8.5357    5.5532   -9.7322 N   0  0  2  0  0  0  0  0  0  0  0  0
    9.9803    5.6284  -10.0280 C   0  0  0  0  0  0  0  0  0  0  0  0
   10.6255    6.7690   -9.2569 C   0  0  0  0  0  0  0  0  0  0  0  0
   10.4842    6.6111   -7.7163 C   0  0  1  0  0  0  0  0  0  0  0  0
   11.0157    7.7468   -6.9284 N   0  0  0  0  0  0  0  0  0  0  0  0
   11.2954    8.9797   -7.4022 C   0  0  0  0  0  0  0  0  0  0  0  0
   11.2860    9.3723   -8.5644 O   0  0  0  0  0  0  0  0  0  0  0  0
   11.6817    9.8464   -6.2081 C   0  0  0  0  0  0  0  0  0  0  0  0
   11.9276   11.0438   -6.2469 O   0  0  0  0  0  0  0  0  0  0  0  0
   11.6913    8.9574   -5.0689 C   0  0  0  0  0  0  0  0  0  0  0  0
   12.0860    9.1940   -3.7399 C   0  0  0  0  0  0  0  0  0  0  0  0
   12.0860    8.0986   -2.8520 C   0  0  0  0  0  0  0  0  0  0  0  0
   11.6863    6.8196   -3.3046 C   0  0  0  0  0  0  0  0  0  0  0  0
   11.2860    6.6214   -4.6469 C   0  0  0  0  0  0  0  0  0  0  0  0
   11.2861    7.7110   -5.5300 C   0  0  0  0  0  0  0  0  0  0  0  0
    8.9910    6.4263   -7.4111 C   0  0  0  0  0  0  0  0  0  0  0  0
    8.3332    5.3299   -8.2723 C   0  0  0  0  0  0  0  0  0  0  0  0
    5.5790    4.8596  -13.2864 H   0  0  0  0  0  0  0  0  0  0  0  0
    7.0159    3.8416  -13.2374 H   0  0  0  0  0  0  0  0  0  0  0  0
    5.6871    3.5509  -12.1130 H   0  0  0  0  0  0  0  0  0  0  0  0
    6.1003    5.7723  -11.0469 H   0  0  0  0  0  0  0  0  0  0  0  0
    7.4178    6.0843  -12.1470 H   0  0  0  0  0  0  0  0  0  0  0  0
    8.6103    4.0739  -11.2568 H   0  0  0  0  0  0  0  0  0  0  0  0
    7.3491    3.7822  -10.1137 H   0  0  0  0  0  0  0  0  0  0  0  0
   10.1251    5.7868  -11.0980 H   0  0  0  0  0  0  0  0  0  0  0  0
   10.4442    4.6809   -9.7574 H   0  0  0  0  0  0  0  0  0  0  0  0
   10.0991    7.6555   -9.6096 H   0  0  0  0  0  0  0  0  0  0  0  0
   11.6711    6.8835   -9.5451 H   0  0  0  0  0  0  0  0  0  0  0  0
   11.0293    5.7161   -7.4164 H   0  0  0  0  0  0  0  0  0  0  0  0
   12.4024   10.1723   -3.4097 H   0  0  0  0  0  0  0  0  0  0  0  0
   12.3882    8.2394   -1.8244 H   0  0  0  0  0  0  0  0  0  0  0  0
   11.6860    5.9849   -2.6183 H   0  0  0  0  0  0  0  0  0  0  0  0
   10.9795    5.6574   -4.9883 H   0  0  0  0  0  0  0  0  0  0  0  0
    8.8443    6.1957   -6.3554 H   0  0  0  0  0  0  0  0  0  0  0  0
    8.4766    7.3723   -7.5854 H   0  0  0  0  0  0  0  0  0  0  0  0
    7.2860    5.3723   -8.0147 H   0  0  0  0  0  0  0  0  0  0  0  0
    8.7029    4.3425   -7.9940 H   0  0  0  0  0  0  0  0  0  0  0  0
    8.1188    6.4573   -9.9332 H   0  0  0  0  0  0  0  0  0  0  0  0
  2  1  1  0
  3  2  1  0
  4  3  1  0
  5  4  1  0
  6  5  1  0
  7  6  1  0
  8  7  1  0
  9  8  1  0
 10  9  2  0
 11  9  1  0
 12 11  2  0
 13 11  1  0
 14 13  2  0
 15 14  1  0
 16 15  2  0
 17 16  1  0
 18  8  1  0
 18 13  1  0
 18 17  2  0
 19  7  1  0
 20  4  1  0
 20 19  1  0
 21  1  1  0
 22  1  1  0
 23  1  1  0
 24  2  1  0
 25  2  1  0
 26  3  1  0
 27  3  1  0
 28  5  1  0
 29  5  1  0
 30  6  1  0
 31  6  1  0
  7 32  1  1
 33 14  1  0
 34 15  1  0
 35 16  1  0
 36 17  1  0
 37 19  1  0
 38 19  1  0
 39 20  1  0
 40 20  1  0
  4 41  1  6
M  CHG  1   4   1
M  END
>  <b_m_subgroup_collapsed>  (728) 
0

>  <r_i_docking_score>  (728) 
-7.4596163010675198

>  <s_m_subgroup_title>  (728) 
glide-dock_SP_D22_pv

>  <s_m_subgroupid>  (728) 
glide-dock_SP_D22_pv

>  <Molecule ChEMBL ID>  (728) 
CHEMBL2207495

>  <Standard Type>  (728) 
Ki

>  <Standard Value>  (728) 
12160.0

>  <label>  (728) 
0

$$$$
CHEMBL230069
     RDKit          3D

 56 59  0  0  1  0  0  0  0  0999 V2000
    8.7437    6.9886   -6.5682 C   0  0  0  0  0  0  0  0  0  0  0  0
    9.7025    7.5322   -7.5957 C   0  0  0  0  0  0  0  0  0  0  0  0
    9.3492    7.4497   -8.9482 C   0  0  0  0  0  0  0  0  0  0  0  0
   10.2269    7.9275   -9.9318 C   0  0  0  0  0  0  0  0  0  0  0  0
    9.7796    7.7722  -11.6463 S   0  0  0  0  0  0  0  0  0  0  0  0
    8.9615    8.9278  -12.0483 O   0  0  0  0  0  0  0  0  0  0  0  0
   10.9768    7.3724  -12.4018 O   0  0  0  0  0  0  0  0  0  0  0  0
    8.6896    6.4314  -11.6335 N   0  0  0  0  0  0  0  0  0  0  0  0
    8.6427    5.2942  -12.4393 C   0  0  0  0  0  0  0  0  0  0  0  0
    9.7790    4.7218  -13.0491 C   0  0  0  0  0  0  0  0  0  0  0  0
    9.6385    3.6164  -13.9034 C   0  0  0  0  0  0  0  0  0  0  0  0
    8.3696    3.0529  -14.1489 C   0  0  0  0  0  0  0  0  0  0  0  0
    7.2401    3.5811  -13.4762 C   0  0  0  0  0  0  0  0  0  0  0  0
    7.3876    4.6992  -12.6331 C   0  0  0  0  0  0  0  0  0  0  0  0
    5.8447    3.0311  -13.6622 C   0  0  0  0  0  0  0  0  0  0  0  0
    5.6731    1.5159  -13.4054 C   0  0  0  0  0  0  0  0  0  0  0  0
    6.2252    0.6254  -14.4597 N   0  0  2  0  0  0  0  0  0  0  0  0
    5.6884   -0.7533  -14.3546 C   0  0  0  0  0  0  0  0  0  0  0  0
    7.7042    0.6120  -14.5464 C   0  0  0  0  0  0  0  0  0  0  0  0
    8.2733    1.9053  -15.1368 C   0  0  0  0  0  0  0  0  0  0  0  0
   11.4675    8.4863   -9.5716 C   0  0  0  0  0  0  0  0  0  0  0  0
   11.8143    8.5724   -8.2092 C   0  0  0  0  0  0  0  0  0  0  0  0
   10.9305    8.1101   -7.2094 C   0  0  0  0  0  0  0  0  0  0  0  0
   11.2900    8.2256   -5.7935 C   0  0  0  0  0  0  0  0  0  0  0  0
   11.3189    9.4874   -5.1654 C   0  0  0  0  0  0  0  0  0  0  0  0
   11.6864    9.5964   -3.8127 C   0  0  0  0  0  0  0  0  0  0  0  0
   12.0428    8.4441   -3.0913 C   0  0  0  0  0  0  0  0  0  0  0  0
   12.4896    8.5727   -1.4469 Cl  0  0  0  0  0  0  0  0  0  0  0  0
   12.0117    7.1806   -3.7014 C   0  0  0  0  0  0  0  0  0  0  0  0
   11.6263    7.0750   -5.0470 C   0  0  0  0  0  0  0  0  0  0  0  0
    7.8373    6.5991   -7.0305 H   0  0  0  0  0  0  0  0  0  0  0  0
    9.2029    6.1722   -6.0157 H   0  0  0  0  0  0  0  0  0  0  0  0
    8.4862    7.7726   -5.8533 H   0  0  0  0  0  0  0  0  0  0  0  0
    8.4032    7.0070   -9.2142 H   0  0  0  0  0  0  0  0  0  0  0  0
    7.8052    6.6768  -11.1941 H   0  0  0  0  0  0  0  0  0  0  0  0
   10.7708    5.1115  -12.8893 H   0  0  0  0  0  0  0  0  0  0  0  0
   10.5199    3.2130  -14.3788 H   0  0  0  0  0  0  0  0  0  0  0  0
    6.5245    5.1254  -12.1409 H   0  0  0  0  0  0  0  0  0  0  0  0
    5.1756    3.5491  -12.9730 H   0  0  0  0  0  0  0  0  0  0  0  0
    5.5377    3.3661  -14.6468 H   0  0  0  0  0  0  0  0  0  0  0  0
    6.0766    1.2384  -12.4295 H   0  0  0  0  0  0  0  0  0  0  0  0
    4.5993    1.3298  -13.3465 H   0  0  0  0  0  0  0  0  0  0  0  0
    6.0444   -1.2415  -13.4475 H   0  0  0  0  0  0  0  0  0  0  0  0
    4.5978   -0.7567  -14.3433 H   0  0  0  0  0  0  0  0  0  0  0  0
    6.0044   -1.3635  -15.2025 H   0  0  0  0  0  0  0  0  0  0  0  0
    8.1604    0.3790  -13.5817 H   0  0  0  0  0  0  0  0  0  0  0  0
    7.9934   -0.1974  -15.2187 H   0  0  0  0  0  0  0  0  0  0  0  0
    7.6891    2.2249  -16.0017 H   0  0  0  0  0  0  0  0  0  0  0  0
    9.2723    1.6936  -15.5214 H   0  0  0  0  0  0  0  0  0  0  0  0
   12.1471    8.8438  -10.3320 H   0  0  0  0  0  0  0  0  0  0  0  0
   12.7686    8.9930   -7.9300 H   0  0  0  0  0  0  0  0  0  0  0  0
   11.0552   10.3739   -5.7242 H   0  0  0  0  0  0  0  0  0  0  0  0
   11.6871   10.5609   -3.3253 H   0  0  0  0  0  0  0  0  0  0  0  0
   12.2739    6.2949   -3.1396 H   0  0  0  0  0  0  0  0  0  0  0  0
   11.6091    6.1027   -5.5163 H   0  0  0  0  0  0  0  0  0  0  0  0
    5.8891    0.9820  -15.3434 H   0  0  0  0  0  0  0  0  0  0  0  0
  2  1  1  0
  3  2  1  0
  4  3  2  0
  5  4  1  0
  6  5  2  0
  7  5  2  0
  8  5  1  0
  9  8  1  0
 10  9  1  0
 11 10  2  0
 12 11  1  0
 13 12  2  0
 14  9  2  0
 14 13  1  0
 15 13  1  0
 16 15  1  0
 17 16  1  0
 18 17  1  0
 19 17  1  0
 20 12  1  0
 20 19  1  0
 21  4  1  0
 22 21  2  0
 23  2  2  0
 23 22  1  0
 24 23  1  0
 25 24  1  0
 26 25  2  0
 27 26  1  0
 28 27  1  0
 29 27  2  0
 30 24  2  0
 30 29  1  0
 31  1  1  0
 32  1  1  0
 33  1  1  0
 34  3  1  0
 35  8  1  0
 36 10  1  0
 37 11  1  0
 38 14  1  0
 39 15  1  0
 40 15  1  0
 41 16  1  0
 42 16  1  0
 43 18  1  0
 44 18  1  0
 45 18  1  0
 46 19  1  0
 47 19  1  0
 48 20  1  0
 49 20  1  0
 50 21  1  0
 51 22  1  0
 52 25  1  0
 53 26  1  0
 54 29  1  0
 55 30  1  0
 17 56  1  6
M  CHG  1  17   1
M  END
>  <b_m_subgroup_collapsed>  (729) 
0

>  <r_i_docking_score>  (729) 
-7.4587120120473802

>  <s_m_subgroup_title>  (729) 
glide-dock_SP_D22_pv

>  <s_m_subgroupid>  (729) 
glide-dock_SP_D22_pv

>  <Molecule ChEMBL ID>  (729) 
CHEMBL230069

>  <Standard Type>  (729) 
Ki

>  <Standard Value>  (729) 
31.62

>  <label>  (729) 
1

$$$$
CHEMBL300555
     RDKit          3D

 54 58  0  0  1  0  0  0  0  0999 V2000
    6.5051    4.2681  -13.1785 O   0  0  0  0  0  0  0  0  0  0  0  0
    7.7317    4.2024  -13.2122 C   0  0  0  0  0  0  0  0  0  0  0  0
    8.4396    3.3074  -13.8893 N   0  0  0  0  0  0  0  0  0  0  0  0
    9.8629    3.4595  -13.6720 C   0  0  0  0  0  0  0  0  0  0  0  0
    9.9786    4.8087  -13.1023 N   0  0  0  0  0  0  0  0  0  0  0  0
   10.8199    5.7110  -13.7894 C   0  0  0  0  0  0  0  0  0  0  0  0
   11.6857    6.5605  -13.0660 C   0  0  0  0  0  0  0  0  0  0  0  0
   12.5906    7.4016  -13.7378 C   0  0  0  0  0  0  0  0  0  0  0  0
   12.6646    7.3980  -15.1412 C   0  0  0  0  0  0  0  0  0  0  0  0
   11.8096    6.5634  -15.8787 C   0  0  0  0  0  0  0  0  0  0  0  0
   10.8877    5.7378  -15.2066 C   0  0  0  0  0  0  0  0  0  0  0  0
    8.6817    5.1458  -12.4752 C   0  0  2  0  0  0  0  0  0  0  0  0
    8.7018    4.7300  -10.9930 C   0  0  0  0  0  0  0  0  0  0  0  0
    9.4313    5.7249  -10.0864 C   0  0  0  0  0  0  0  0  0  0  0  0
    8.9175    7.1163  -10.1866 N   0  0  1  0  0  0  0  0  0  0  0  0
    9.7117    8.0369   -9.3157 C   0  0  0  0  0  0  0  0  0  0  0  0
    9.0069    8.4073   -7.9975 C   0  0  1  0  0  0  0  0  0  0  0  0
    8.6557    7.2190   -7.0790 C   0  0  0  0  0  0  0  0  0  0  0  0
    9.8386    6.6338   -6.5630 O   0  0  0  0  0  0  0  0  0  0  0  0
   10.6026    7.5446   -5.8835 C   0  0  0  0  0  0  0  0  0  0  0  0
   11.3772    7.1184   -4.7875 C   0  0  0  0  0  0  0  0  0  0  0  0
   12.0875    8.0600   -4.0167 C   0  0  0  0  0  0  0  0  0  0  0  0
   12.0444    9.4243   -4.3614 C   0  0  0  0  0  0  0  0  0  0  0  0
   11.3004    9.8462   -5.4817 C   0  0  0  0  0  0  0  0  0  0  0  0
   10.5728    8.9139   -6.2454 C   0  0  0  0  0  0  0  0  0  0  0  0
    9.8050    9.3669   -7.2970 O   0  0  0  0  0  0  0  0  0  0  0  0
    8.8582    7.6020  -11.5928 C   0  0  0  0  0  0  0  0  0  0  0  0
    8.1501    6.6070  -12.5389 C   0  0  0  0  0  0  0  0  0  0  0  0
    8.0396    2.5605  -14.4381 H   0  0  0  0  0  0  0  0  0  0  0  0
   10.4168    3.2839  -14.5937 H   0  0  0  0  0  0  0  0  0  0  0  0
   10.2086    2.7176  -12.9506 H   0  0  0  0  0  0  0  0  0  0  0  0
   11.6833    6.5732  -11.9903 H   0  0  0  0  0  0  0  0  0  0  0  0
   13.2541    8.0363  -13.1689 H   0  0  0  0  0  0  0  0  0  0  0  0
   13.3725    8.0361  -15.6499 H   0  0  0  0  0  0  0  0  0  0  0  0
   11.8527    6.5629  -16.9590 H   0  0  0  0  0  0  0  0  0  0  0  0
   10.2315    5.1190  -15.8000 H   0  0  0  0  0  0  0  0  0  0  0  0
    7.6886    4.5844  -10.6177 H   0  0  0  0  0  0  0  0  0  0  0  0
    9.2178    3.7756  -10.9095 H   0  0  0  0  0  0  0  0  0  0  0  0
   10.4851    5.7310  -10.3423 H   0  0  0  0  0  0  0  0  0  0  0  0
    9.3810    5.3705   -9.0580 H   0  0  0  0  0  0  0  0  0  0  0  0
   10.7022    7.6278   -9.1067 H   0  0  0  0  0  0  0  0  0  0  0  0
    9.8963    8.9713   -9.8475 H   0  0  0  0  0  0  0  0  0  0  0  0
    8.0878    8.9314   -8.2470 H   0  0  0  0  0  0  0  0  0  0  0  0
    8.0451    7.5703   -6.2480 H   0  0  0  0  0  0  0  0  0  0  0  0
    8.0863    6.4531   -7.5986 H   0  0  0  0  0  0  0  0  0  0  0  0
   11.3933    6.0744   -4.5123 H   0  0  0  0  0  0  0  0  0  0  0  0
   12.6613    7.7335   -3.1608 H   0  0  0  0  0  0  0  0  0  0  0  0
   12.5708   10.1633   -3.7686 H   0  0  0  0  0  0  0  0  0  0  0  0
   11.2662   10.8947   -5.7387 H   0  0  0  0  0  0  0  0  0  0  0  0
    9.8483    7.8572  -11.9533 H   0  0  0  0  0  0  0  0  0  0  0  0
    8.3058    8.5430  -11.5889 H   0  0  0  0  0  0  0  0  0  0  0  0
    8.0840    6.9680  -13.5584 H   0  0  0  0  0  0  0  0  0  0  0  0
    7.1018    6.6085  -12.2333 H   0  0  0  0  0  0  0  0  0  0  0  0
    7.9379    7.1517   -9.8875 H   0  0  0  0  0  0  0  0  0  0  0  0
  2  1  2  0
  3  2  1  0
  4  3  1  0
  5  4  1  0
  6  5  1  0
  7  6  2  0
  8  7  1  0
  9  8  2  0
 10  9  1  0
 11  6  1  0
 11 10  2  0
 12  2  1  0
 12  5  1  6
 13 12  1  0
 14 13  1  0
 15 14  1  0
 16 15  1  0
 17 16  1  0
 18 17  1  0
 19 18  1  0
 20 19  1  0
 21 20  2  0
 22 21  1  0
 23 22  2  0
 24 23  1  0
 25 20  1  0
 25 24  2  0
 26 17  1  0
 26 25  1  0
 27 15  1  0
 28 12  1  0
 28 27  1  0
 29  3  1  0
 30  4  1  0
 31  4  1  0
 32  7  1  0
 33  8  1  0
 34  9  1  0
 35 10  1  0
 36 11  1  0
 37 13  1  0
 38 13  1  0
 39 14  1  0
 40 14  1  0
 41 16  1  0
 42 16  1  0
 17 43  1  6
 44 18  1  0
 45 18  1  0
 46 21  1  0
 47 22  1  0
 48 23  1  0
 49 24  1  0
 50 27  1  0
 51 27  1  0
 52 28  1  0
 53 28  1  0
 15 54  1  1
M  CHG  1  15   1
M  END
>  <b_m_subgroup_collapsed>  (730) 
0

>  <r_i_docking_score>  (730) 
-7.4583924694283601

>  <s_m_subgroup_title>  (730) 
glide-dock_SP_D22_pv

>  <s_m_subgroupid>  (730) 
glide-dock_SP_D22_pv

>  <Molecule ChEMBL ID>  (730) 
CHEMBL300555

>  <Standard Type>  (730) 
Ki

>  <Standard Value>  (730) 
6.711

>  <label>  (730) 
1

$$$$
CHEMBL4462915
     RDKit          3D

 58 61  0  0  1  0  0  0  0  0999 V2000
   11.8102   11.0918   -6.2171 C   0  0  0  0  0  0  0  0  0  0  0  0
   11.2200    9.8259   -6.3780 O   0  0  0  0  0  0  0  0  0  0  0  0
   11.4528    8.9047   -5.3783 C   0  0  0  0  0  0  0  0  0  0  0  0
   12.1951    9.1919   -4.1993 C   0  0  0  0  0  0  0  0  0  0  0  0
   12.4684    8.1966   -3.2467 C   0  0  0  0  0  0  0  0  0  0  0  0
   12.0188    6.8892   -3.4703 C   0  0  0  0  0  0  0  0  0  0  0  0
   11.2739    6.6009   -4.6263 C   0  0  0  0  0  0  0  0  0  0  0  0
   10.9468    7.5984   -5.5683 C   0  0  0  0  0  0  0  0  0  0  0  0
   10.1117    7.2930   -6.6609 N   0  0  0  0  0  0  0  0  0  0  0  0
    8.9774    8.1369   -7.0070 C   0  0  0  0  0  0  0  0  0  0  0  0
    9.0929    8.6245   -8.4610 C   0  0  0  0  0  0  0  0  0  0  0  0
    9.2864    7.4834   -9.3969 N   0  0  0  0  0  0  0  0  0  0  0  0
    9.3205    7.9242  -10.8197 C   0  0  0  0  0  0  0  0  0  0  0  0
    8.6978    6.9200  -11.8155 C   0  0  0  0  0  0  0  0  0  0  0  0
    9.5887    5.7227  -12.1950 C   0  0  0  0  0  0  0  0  0  0  0  0
    9.1430    4.9725  -13.4566 C   0  0  0  0  0  0  0  0  0  0  0  0
    7.8064    4.5192  -13.2786 O   0  0  0  0  0  0  0  0  0  0  0  0
    7.4152    3.3258  -13.8469 C   0  0  0  0  0  0  0  0  0  0  0  0
    8.1708    2.5951  -14.7992 C   0  0  0  0  0  0  0  0  0  0  0  0
    7.7073    1.3547  -15.2730 C   0  0  0  0  0  0  0  0  0  0  0  0
    6.4895    0.8401  -14.8002 C   0  0  0  0  0  0  0  0  0  0  0  0
    5.6817   -0.6631  -15.2283 S   0  0  0  0  0  0  0  0  0  0  0  0
    4.3860   -0.2164  -14.1212 C   0  0  0  0  0  0  0  0  0  0  0  0
    3.2840   -1.0267  -13.9681 N   0  0  0  0  0  0  0  0  0  0  0  0
    4.5284    0.9250  -13.4474 N   0  0  0  0  0  0  0  0  0  0  0  0
    5.7059    1.5487  -13.8456 C   0  0  0  0  0  0  0  0  0  0  0  0
    6.1799    2.8060  -13.4133 C   0  0  0  0  0  0  0  0  0  0  0  0
   10.4564    6.6459   -9.0029 C   0  0  0  0  0  0  0  0  0  0  0  0
   10.3870    6.1718   -7.5389 C   0  0  0  0  0  0  0  0  0  0  0  0
   11.6855   11.7550   -7.0611 H   0  0  0  0  0  0  0  0  0  0  0  0
   11.3305   11.5674   -5.3582 H   0  0  0  0  0  0  0  0  0  0  0  0
   12.8795   10.9732   -6.0602 H   0  0  0  0  0  0  0  0  0  0  0  0
   12.5851   10.1721   -3.9909 H   0  0  0  0  0  0  0  0  0  0  0  0
   13.0275    8.4359   -2.3549 H   0  0  0  0  0  0  0  0  0  0  0  0
   12.2204    6.1116   -2.7504 H   0  0  0  0  0  0  0  0  0  0  0  0
   10.8863    5.6117   -4.7460 H   0  0  0  0  0  0  0  0  0  0  0  0
    8.0825    7.5275   -6.8903 H   0  0  0  0  0  0  0  0  0  0  0  0
    8.8695    8.9714   -6.3158 H   0  0  0  0  0  0  0  0  0  0  0  0
    8.1980    9.1899   -8.7225 H   0  0  0  0  0  0  0  0  0  0  0  0
    9.9348    9.3110   -8.5626 H   0  0  0  0  0  0  0  0  0  0  0  0
    8.7347    8.8409  -10.9092 H   0  0  0  0  0  0  0  0  0  0  0  0
   10.3347    8.1977  -11.1159 H   0  0  0  0  0  0  0  0  0  0  0  0
    7.7321    6.5699  -11.4472 H   0  0  0  0  0  0  0  0  0  0  0  0
    8.4692    7.4719  -12.7262 H   0  0  0  0  0  0  0  0  0  0  0  0
   10.6148    6.0621  -12.3430 H   0  0  0  0  0  0  0  0  0  0  0  0
    9.6038    4.9997  -11.3811 H   0  0  0  0  0  0  0  0  0  0  0  0
    9.1967    5.6095  -14.3397 H   0  0  0  0  0  0  0  0  0  0  0  0
    9.8499    4.1535  -13.5907 H   0  0  0  0  0  0  0  0  0  0  0  0
    9.1077    2.9606  -15.1872 H   0  0  0  0  0  0  0  0  0  0  0  0
    8.2835    0.7943  -15.9957 H   0  0  0  0  0  0  0  0  0  0  0  0
    2.4293   -0.5946  -13.6371 H   0  0  0  0  0  0  0  0  0  0  0  0
    3.1303   -1.7415  -14.6681 H   0  0  0  0  0  0  0  0  0  0  0  0
    5.6011    3.3639  -12.6923 H   0  0  0  0  0  0  0  0  0  0  0  0
   10.5369    5.7718   -9.6408 H   0  0  0  0  0  0  0  0  0  0  0  0
   11.3703    7.2286   -9.1495 H   0  0  0  0  0  0  0  0  0  0  0  0
   11.3210    5.6826   -7.2592 H   0  0  0  0  0  0  0  0  0  0  0  0
    9.5909    5.4345   -7.4300 H   0  0  0  0  0  0  0  0  0  0  0  0
    8.4405    6.9327   -9.2981 H   0  0  0  0  0  0  0  0  0  0  0  0
  2  1  1  0
  3  2  1  0
  4  3  2  0
  5  4  1  0
  6  5  2  0
  7  6  1  0
  8  3  1  0
  8  7  2  0
  9  8  1  0
 10  9  1  0
 11 10  1  0
 12 11  1  0
 13 12  1  0
 14 13  1  0
 15 14  1  0
 16 15  1  0
 17 16  1  0
 18 17  1  0
 19 18  2  0
 20 19  1  0
 21 20  2  0
 22 21  1  0
 23 22  1  0
 24 23  1  0
 25 23  2  0
 26 21  1  0
 26 25  1  0
 27 18  1  0
 27 26  2  0
 28 12  1  0
 29  9  1  0
 29 28  1  0
 30  1  1  0
 31  1  1  0
 32  1  1  0
 33  4  1  0
 34  5  1  0
 35  6  1  0
 36  7  1  0
 37 10  1  0
 38 10  1  0
 39 11  1  0
 40 11  1  0
 41 13  1  0
 42 13  1  0
 43 14  1  0
 44 14  1  0
 45 15  1  0
 46 15  1  0
 47 16  1  0
 48 16  1  0
 49 19  1  0
 50 20  1  0
 51 24  1  0
 52 24  1  0
 53 27  1  0
 54 28  1  0
 55 28  1  0
 56 29  1  0
 57 29  1  0
 58 12  1  0
M  CHG  1  12   1
M  END
>  <b_m_subgroup_collapsed>  (731) 
0

>  <r_i_docking_score>  (731) 
-7.4560505186587704

>  <s_m_subgroup_title>  (731) 
glide-dock_SP_D22_pv

>  <s_m_subgroupid>  (731) 
glide-dock_SP_D22_pv

>  <Molecule ChEMBL ID>  (731) 
CHEMBL4462915

>  <Standard Type>  (731) 
Ki

>  <Standard Value>  (731) 
2.818

>  <label>  (731) 
1

$$$$
CHEMBL4586990
     RDKit          3D

 60 64  0  0  1  0  0  0  0  0999 V2000
    4.1218    0.0217  -13.9815 C   0  0  0  0  0  0  0  0  0  0  0  0
    4.8894    1.0918  -13.4474 O   0  0  0  0  0  0  0  0  0  0  0  0
    6.0869    1.3990  -14.0643 C   0  0  0  0  0  0  0  0  0  0  0  0
    6.7046    0.5730  -15.0321 C   0  0  0  0  0  0  0  0  0  0  0  0
    7.9290    0.9588  -15.5997 C   0  0  0  0  0  0  0  0  0  0  0  0
    8.5645    2.1427  -15.1785 C   0  0  0  0  0  0  0  0  0  0  0  0
    7.9813    3.0067  -14.1986 C   0  0  0  0  0  0  0  0  0  0  0  0
    6.7128    2.6110  -13.6963 C   0  0  0  0  0  0  0  0  0  0  0  0
    8.9384    4.0719  -13.9685 C   0  0  0  0  0  0  0  0  0  0  0  0
    8.9300    5.1990  -12.9989 C   0  0  0  0  0  0  0  0  0  0  0  0
   10.1113    5.7391  -12.5223 N   0  0  0  0  0  0  0  0  0  0  0  0
    9.8609    6.7228  -11.5788 C   0  0  0  0  0  0  0  0  0  0  0  0
   10.7745    7.3713  -10.9208 N   0  0  0  0  0  0  0  0  0  0  0  0
   10.4119    8.3643  -10.0128 C   0  0  0  0  0  0  0  0  0  0  0  0
    9.3163    8.9086   -9.8531 O   0  0  0  0  0  0  0  0  0  0  0  0
   11.5939    8.8442   -9.1653 C   0  0  0  0  0  0  0  0  0  0  0  0
   11.4236    8.5611   -7.6729 C   0  0  0  0  0  0  0  0  0  0  0  0
   11.4744    9.6140   -6.7293 C   0  0  0  0  0  0  0  0  0  0  0  0
   11.4077    9.3516   -5.3493 C   0  0  0  0  0  0  0  0  0  0  0  0
   11.2878    8.0286   -4.8952 C   0  0  0  0  0  0  0  0  0  0  0  0
   11.2130    6.9720   -5.8225 C   0  0  0  0  0  0  0  0  0  0  0  0
   11.2810    7.2346   -7.2047 C   0  0  0  0  0  0  0  0  0  0  0  0
    8.4859    6.7838  -11.5130 N   0  0  0  0  0  0  0  0  0  0  0  0
    7.9413    5.8410  -12.3579 C   0  0  0  0  0  0  0  0  0  0  0  0
    6.4364    5.7039  -12.4537 C   0  0  0  0  0  0  0  0  0  0  0  0
    9.9878    3.8780  -14.8258 C   0  0  0  0  0  0  0  0  0  0  0  0
    9.7747    2.7164  -15.5487 N   0  0  0  0  0  0  0  0  0  0  0  0
   10.8641    2.1061  -16.7365 S   0  0  0  0  0  0  0  0  0  0  0  0
   12.0843    2.9212  -16.6211 O   0  0  0  0  0  0  0  0  0  0  0  0
   10.8999    0.6473  -16.5449 O   0  0  0  0  0  0  0  0  0  0  0  0
   10.0322    2.5065  -18.2691 C   0  0  0  0  0  0  0  0  0  0  0  0
    9.4391    1.4889  -19.0462 C   0  0  0  0  0  0  0  0  0  0  0  0
    8.7670    1.8268  -20.2357 C   0  0  0  0  0  0  0  0  0  0  0  0
    8.6900    3.1725  -20.6453 C   0  0  0  0  0  0  0  0  0  0  0  0
    9.2833    4.1872  -19.8656 C   0  0  0  0  0  0  0  0  0  0  0  0
    9.9536    3.8552  -18.6730 C   0  0  0  0  0  0  0  0  0  0  0  0
    3.1653   -0.0285  -13.4634 H   0  0  0  0  0  0  0  0  0  0  0  0
    3.9135    0.1650  -15.0416 H   0  0  0  0  0  0  0  0  0  0  0  0
    4.6175   -0.9388  -13.8467 H   0  0  0  0  0  0  0  0  0  0  0  0
    6.2662   -0.3624  -15.3479 H   0  0  0  0  0  0  0  0  0  0  0  0
    8.3898    0.3141  -16.3342 H   0  0  0  0  0  0  0  0  0  0  0  0
    6.2259    3.1966  -12.9376 H   0  0  0  0  0  0  0  0  0  0  0  0
   11.0146    5.4057  -12.8126 H   0  0  0  0  0  0  0  0  0  0  0  0
   11.6857    9.9082   -9.3503 H   0  0  0  0  0  0  0  0  0  0  0  0
   11.5904   10.6382   -7.0463 H   0  0  0  0  0  0  0  0  0  0  0  0
   11.4656   10.1643   -4.6402 H   0  0  0  0  0  0  0  0  0  0  0  0
   11.2829    7.8183   -3.8365 H   0  0  0  0  0  0  0  0  0  0  0  0
   11.1206    5.9561   -5.4692 H   0  0  0  0  0  0  0  0  0  0  0  0
   11.2434    6.4112   -7.9026 H   0  0  0  0  0  0  0  0  0  0  0  0
    6.1300    5.3764  -13.4473 H   0  0  0  0  0  0  0  0  0  0  0  0
    6.0759    4.9907  -11.7164 H   0  0  0  0  0  0  0  0  0  0  0  0
    5.9502    6.6585  -12.2504 H   0  0  0  0  0  0  0  0  0  0  0  0
   10.8850    4.4634  -14.9695 H   0  0  0  0  0  0  0  0  0  0  0  0
    9.4918    0.4576  -18.7274 H   0  0  0  0  0  0  0  0  0  0  0  0
    8.3081    1.0535  -20.8341 H   0  0  0  0  0  0  0  0  0  0  0  0
    8.1709    3.4301  -21.5587 H   0  0  0  0  0  0  0  0  0  0  0  0
    9.2161    5.2177  -20.1808 H   0  0  0  0  0  0  0  0  0  0  0  0
   10.3996    4.6300  -18.0676 H   0  0  0  0  0  0  0  0  0  0  0  0
   12.5262    8.3942   -9.5072 H   0  0  0  0  0  0  0  0  0  0  0  0
    7.8888    7.3645  -10.9053 H   0  0  0  0  0  0  0  0  0  0  0  0
  2  1  1  0
  3  2  1  0
  4  3  2  0
  5  4  1  0
  6  5  2  0
  7  6  1  0
  8  3  1  0
  8  7  2  0
  9  7  1  0
 10  9  1  0
 11 10  1  0
 12 11  1  0
 13 12  2  0
 14 13  1  0
 15 14  2  0
 16 14  1  0
 17 16  1  0
 18 17  2  0
 19 18  1  0
 20 19  2  0
 21 20  1  0
 22 17  1  0
 22 21  2  0
 23 12  1  0
 24 10  2  0
 24 23  1  0
 25 24  1  0
 26  9  2  0
 27  6  1  0
 27 26  1  0
 28 27  1  0
 29 28  2  0
 30 28  2  0
 31 28  1  0
 32 31  2  0
 33 32  1  0
 34 33  2  0
 35 34  1  0
 36 31  1  0
 36 35  2  0
 37  1  1  0
 38  1  1  0
 39  1  1  0
 40  4  1  0
 41  5  1  0
 42  8  1  0
 43 11  1  0
 44 16  1  0
 45 18  1  0
 46 19  1  0
 47 20  1  0
 48 21  1  0
 49 22  1  0
 50 25  1  0
 51 25  1  0
 52 25  1  0
 53 26  1  0
 54 32  1  0
 55 33  1  0
 56 34  1  0
 57 35  1  0
 58 36  1  0
 59 16  1  0
 60 23  1  0
M  END
>  <b_m_subgroup_collapsed>  (732) 
0

>  <r_i_docking_score>  (732) 
-7.4543607972157098

>  <s_m_subgroup_title>  (732) 
glide-dock_SP_D22_pv

>  <s_m_subgroupid>  (732) 
glide-dock_SP_D22_pv

>  <Molecule ChEMBL ID>  (732) 
CHEMBL4586990

>  <Standard Type>  (732) 
Ki

>  <Standard Value>  (732) 
10000.0

>  <label>  (732) 
0

$$$$
CHEMBL279925
     RDKit          3D

 73 77  0  0  1  0  0  0  0  0999 V2000
   12.2103    8.3158   -2.3961 C   0  0  0  0  0  0  0  0  0  0  0  0
   11.7030    8.9210   -3.6575 C   0  0  0  0  0  0  0  0  0  0  0  0
   11.2847   10.1722   -3.8410 N   0  0  0  0  0  0  0  0  0  0  0  0
   10.8859   10.2529   -5.1512 N   0  0  0  0  0  0  0  0  0  0  0  0
   11.1033    9.0448   -5.6684 C   0  0  0  0  0  0  0  0  0  0  0  0
   10.9460    8.6183   -7.0411 C   0  0  0  0  0  0  0  0  0  0  0  0
    9.6905    8.2652   -7.5722 C   0  0  0  0  0  0  0  0  0  0  0  0
    9.5985    7.8117   -8.9047 C   0  0  0  0  0  0  0  0  0  0  0  0
   10.7477    7.7060   -9.7270 C   0  0  0  0  0  0  0  0  0  0  0  0
   10.6976    7.1128  -11.0856 C   0  0  0  0  0  0  0  0  0  0  0  0
   11.7288    7.3724  -12.0181 C   0  0  0  0  0  0  0  0  0  0  0  0
   11.7927    6.7139  -13.2536 C   0  0  0  0  0  0  0  0  0  0  0  0
   10.8187    5.7567  -13.5964 C   0  0  0  0  0  0  0  0  0  0  0  0
   10.9157    5.0221  -14.9000 C   0  0  0  0  0  0  0  0  0  0  0  0
    9.9147    4.7386  -15.5574 O   0  0  0  0  0  0  0  0  0  0  0  0
   12.1687    4.6948  -15.2534 N   0  0  0  0  0  0  0  0  0  0  0  0
   12.5896    4.1210  -16.5231 C   0  0  0  0  0  0  0  0  0  0  0  0
   12.0700    2.6909  -16.7352 C   0  0  0  0  0  0  0  0  0  0  0  0
   12.6438    2.0671  -18.0156 C   0  0  0  0  0  0  0  0  0  0  0  0
   11.9641    0.7476  -18.4215 C   0  0  0  0  0  0  0  0  0  0  0  0
   10.5152    0.8953  -18.7197 N   0  0  1  0  0  0  0  0  0  0  0  0
   10.2164    1.7119  -19.9242 C   0  0  0  0  0  0  0  0  0  0  0  0
    8.7248    2.0680  -19.9555 C   0  0  0  0  0  0  0  0  0  0  0  0
    7.8513    0.8371  -19.8110 C   0  0  0  0  0  0  0  0  0  0  0  0
    6.5131    0.8661  -20.2570 C   0  0  0  0  0  0  0  0  0  0  0  0
    5.7064   -0.2814  -20.1409 C   0  0  0  0  0  0  0  0  0  0  0  0
    6.2331   -1.4559  -19.5679 C   0  0  0  0  0  0  0  0  0  0  0  0
    5.4731   -2.5869  -19.4927 O   0  0  0  0  0  0  0  0  0  0  0  0
    4.4867   -2.7810  -18.1342 S   0  0  0  0  0  0  0  0  0  0  0  0
    4.7553   -1.6672  -17.2076 O   0  0  0  0  0  0  0  0  0  0  0  0
    3.1329   -3.0238  -18.6537 O   0  0  0  0  0  0  0  0  0  0  0  0
    5.2335   -4.3445  -17.4755 C   0  0  0  0  0  0  0  0  0  0  0  0
    5.2877   -4.2702  -16.1461 F   0  0  0  0  0  0  0  0  0  0  0  0
    4.4861   -5.3826  -17.8471 F   0  0  0  0  0  0  0  0  0  0  0  0
    6.4692   -4.4836  -17.9543 F   0  0  0  0  0  0  0  0  0  0  0  0
    7.5632   -1.4821  -19.1079 C   0  0  0  0  0  0  0  0  0  0  0  0
    8.3785   -0.3402  -19.2271 C   0  0  0  0  0  0  0  0  0  0  0  0
    9.8304   -0.4213  -18.7718 C   0  0  0  0  0  0  0  0  0  0  0  0
    9.7427    5.5287  -12.7115 C   0  0  0  0  0  0  0  0  0  0  0  0
    9.6858    6.1992  -11.4713 C   0  0  0  0  0  0  0  0  0  0  0  0
   11.9854    8.1277   -9.1816 C   0  0  0  0  0  0  0  0  0  0  0  0
   12.0853    8.5724   -7.8564 C   0  0  0  0  0  0  0  0  0  0  0  0
   11.6262    8.1606   -4.7779 O   0  0  0  0  0  0  0  0  0  0  0  0
   12.0012    8.9723   -1.5507 H   0  0  0  0  0  0  0  0  0  0  0  0
   11.7311    7.3521   -2.2216 H   0  0  0  0  0  0  0  0  0  0  0  0
   13.2861    8.1706   -2.4651 H   0  0  0  0  0  0  0  0  0  0  0  0
    8.7998    8.3157   -6.9606 H   0  0  0  0  0  0  0  0  0  0  0  0
    8.6255    7.5253   -9.2785 H   0  0  0  0  0  0  0  0  0  0  0  0
   12.5081    8.0862  -11.8001 H   0  0  0  0  0  0  0  0  0  0  0  0
   12.6095    6.9438  -13.9232 H   0  0  0  0  0  0  0  0  0  0  0  0
   12.9033    4.9607  -14.6134 H   0  0  0  0  0  0  0  0  0  0  0  0
   13.6806    4.1267  -16.5454 H   0  0  0  0  0  0  0  0  0  0  0  0
   12.2571    4.7699  -17.3358 H   0  0  0  0  0  0  0  0  0  0  0  0
   10.9819    2.7141  -16.7876 H   0  0  0  0  0  0  0  0  0  0  0  0
   12.3228    2.0682  -15.8766 H   0  0  0  0  0  0  0  0  0  0  0  0
   13.7025    1.8739  -17.8554 H   0  0  0  0  0  0  0  0  0  0  0  0
   12.6129    2.7870  -18.8314 H   0  0  0  0  0  0  0  0  0  0  0  0
   12.0914    0.0322  -17.6069 H   0  0  0  0  0  0  0  0  0  0  0  0
   12.4716    0.3193  -19.2879 H   0  0  0  0  0  0  0  0  0  0  0  0
   10.7834    2.6405  -19.9393 H   0  0  0  0  0  0  0  0  0  0  0  0
   10.4974    1.1563  -20.8208 H   0  0  0  0  0  0  0  0  0  0  0  0
    8.4847    2.5831  -20.8869 H   0  0  0  0  0  0  0  0  0  0  0  0
    8.4893    2.7581  -19.1440 H   0  0  0  0  0  0  0  0  0  0  0  0
    6.1031    1.7610  -20.7026 H   0  0  0  0  0  0  0  0  0  0  0  0
    4.6860   -0.2634  -20.4992 H   0  0  0  0  0  0  0  0  0  0  0  0
    7.9611   -2.3910  -18.6801 H   0  0  0  0  0  0  0  0  0  0  0  0
    9.8709   -0.8903  -17.7872 H   0  0  0  0  0  0  0  0  0  0  0  0
   10.3600   -1.0796  -19.4623 H   0  0  0  0  0  0  0  0  0  0  0  0
    8.9706    4.8167  -12.9652 H   0  0  0  0  0  0  0  0  0  0  0  0
    8.8715    5.9654  -10.8006 H   0  0  0  0  0  0  0  0  0  0  0  0
   12.9016    8.0735   -9.7484 H   0  0  0  0  0  0  0  0  0  0  0  0
   13.0460    8.8747   -7.4645 H   0  0  0  0  0  0  0  0  0  0  0  0
   10.1100    1.3892  -17.9363 H   0  0  0  0  0  0  0  0  0  0  0  0
  2  1  1  0
  3  2  2  0
  4  3  1  0
  5  4  2  0
  6  5  1  0
  7  6  1  0
  8  7  2  0
  9  8  1  0
 10  9  1  0
 11 10  1  0
 12 11  2  0
 13 12  1  0
 14 13  1  0
 15 14  2  0
 16 14  1  0
 17 16  1  0
 18 17  1  0
 19 18  1  0
 20 19  1  0
 21 20  1  0
 22 21  1  0
 23 22  1  0
 24 23  1  0
 25 24  1  0
 26 25  2  0
 27 26  1  0
 28 27  1  0
 29 28  1  0
 30 29  2  0
 31 29  2  0
 32 29  1  0
 33 32  1  0
 34 32  1  0
 35 32  1  0
 36 27  2  0
 37 24  2  0
 37 36  1  0
 38 21  1  0
 38 37  1  0
 39 13  2  0
 40 10  2  0
 40 39  1  0
 41  9  2  0
 42  6  2  0
 42 41  1  0
 43  2  1  0
 43  5  1  0
 44  1  1  0
 45  1  1  0
 46  1  1  0
 47  7  1  0
 48  8  1  0
 49 11  1  0
 50 12  1  0
 51 16  1  0
 52 17  1  0
 53 17  1  0
 54 18  1  0
 55 18  1  0
 56 19  1  0
 57 19  1  0
 58 20  1  0
 59 20  1  0
 60 22  1  0
 61 22  1  0
 62 23  1  0
 63 23  1  0
 64 25  1  0
 65 26  1  0
 66 36  1  0
 67 38  1  0
 68 38  1  0
 69 39  1  0
 70 40  1  0
 71 41  1  0
 72 42  1  0
 21 73  1  1
M  CHG  1  21   1
M  END
>  <b_m_subgroup_collapsed>  (733) 
0

>  <r_i_docking_score>  (733) 
-7.4536717515740101

>  <s_m_subgroup_title>  (733) 
glide-dock_SP_D22_pv

>  <s_m_subgroupid>  (733) 
glide-dock_SP_D22_pv

>  <Molecule ChEMBL ID>  (733) 
CHEMBL279925

>  <Standard Type>  (733) 
Ki

>  <Standard Value>  (733) 
100.0

>  <label>  (733) 
1

$$$$
CHEMBL3409233
     RDKit          3D

 74 79  0  0  1  0  0  0  0  0999 V2000
   12.4861    9.3724   -1.2863 O   0  0  0  0  0  0  0  0  0  0  0  0
   12.0860    8.7915   -2.2811 C   0  0  0  0  0  0  0  0  0  0  0  0
   11.9450    7.2709   -2.2463 C   0  0  0  0  0  0  0  0  0  0  0  0
   12.4155    6.7100   -3.5763 C   0  0  0  0  0  0  0  0  0  0  0  0
   11.6728    7.3682   -4.7157 C   0  0  0  0  0  0  0  0  0  0  0  0
   11.2861    6.6516   -5.8579 C   0  0  0  0  0  0  0  0  0  0  0  0
   10.5708    7.2878   -6.8817 C   0  0  0  0  0  0  0  0  0  0  0  0
   10.2773    8.6688   -6.7894 C   0  0  0  0  0  0  0  0  0  0  0  0
    9.5662    9.3638   -7.7382 O   0  0  0  0  0  0  0  0  0  0  0  0
    9.1904    8.7356   -8.9514 C   0  0  0  0  0  0  0  0  0  0  0  0
   10.4090    8.6255   -9.8800 C   0  0  0  0  0  0  0  0  0  0  0  0
   10.0875    8.0087  -11.2460 C   0  0  0  0  0  0  0  0  0  0  0  0
    9.7418    6.5068  -11.1509 C   0  0  0  0  0  0  0  0  0  0  0  0
    9.6097    5.8238  -12.4655 N   0  0  1  0  0  0  0  0  0  0  0  0
   10.8331    5.8932  -13.3139 C   0  0  0  0  0  0  0  0  0  0  0  0
   10.7042    5.0586  -14.5770 C   0  0  0  0  0  0  0  0  0  0  0  0
    9.7845    4.0941  -14.7589 C   0  0  0  0  0  0  0  0  0  0  0  0
    9.6678    3.4120  -16.0545 C   0  0  0  0  0  0  0  0  0  0  0  0
    9.4677    2.0707  -16.2152 C   0  0  0  0  0  0  0  0  0  0  0  0
    9.3905    1.7955  -17.5749 N   0  0  0  0  0  0  0  0  0  0  0  0
    9.1513    0.2103  -18.2016 S   0  0  0  0  0  0  0  0  0  0  0  0
    9.7989    0.1831  -19.5222 O   0  0  0  0  0  0  0  0  0  0  0  0
    9.5912   -0.6999  -17.1320 O   0  0  0  0  0  0  0  0  0  0  0  0
    7.3722    0.1082  -18.4008 C   0  0  0  0  0  0  0  0  0  0  0  0
    6.5746   -0.4136  -17.3620 C   0  0  0  0  0  0  0  0  0  0  0  0
    5.1779   -0.4965  -17.5293 C   0  0  0  0  0  0  0  0  0  0  0  0
    4.5828   -0.0533  -18.7275 C   0  0  0  0  0  0  0  0  0  0  0  0
    5.3820    0.4769  -19.7597 C   0  0  0  0  0  0  0  0  0  0  0  0
    6.7802    0.5584  -19.5989 C   0  0  0  0  0  0  0  0  0  0  0  0
    9.5178    2.9757  -18.3068 C   0  0  0  0  0  0  0  0  0  0  0  0
    9.4728    3.2513  -19.6886 C   0  0  0  0  0  0  0  0  0  0  0  0
    9.6309    4.5712  -20.1473 C   0  0  0  0  0  0  0  0  0  0  0  0
    9.8405    5.6125  -19.2266 C   0  0  0  0  0  0  0  0  0  0  0  0
    9.8875    5.3370  -17.8472 C   0  0  0  0  0  0  0  0  0  0  0  0
    9.7204    4.0210  -17.3528 C   0  0  0  0  0  0  0  0  0  0  0  0
    8.7543    3.8170  -13.6751 C   0  0  0  0  0  0  0  0  0  0  0  0
    9.1341    4.4266  -12.3139 C   0  0  0  0  0  0  0  0  0  0  0  0
   10.7170    9.3968   -5.6605 C   0  0  0  0  0  0  0  0  0  0  0  0
   11.3830    8.7410   -4.6079 C   0  0  0  0  0  0  0  0  0  0  0  0
   11.7484    9.4280   -3.4194 N   0  0  0  0  0  0  0  0  0  0  0  0
   12.5560    6.8566   -1.4472 H   0  0  0  0  0  0  0  0  0  0  0  0
   10.9039    7.0035   -2.0476 H   0  0  0  0  0  0  0  0  0  0  0  0
   12.3204    5.6306   -3.6051 H   0  0  0  0  0  0  0  0  0  0  0  0
   13.4649    6.9729   -3.6672 H   0  0  0  0  0  0  0  0  0  0  0  0
   11.5649    5.6185   -5.9633 H   0  0  0  0  0  0  0  0  0  0  0  0
   10.2680    6.6935   -7.7291 H   0  0  0  0  0  0  0  0  0  0  0  0
    8.4413    9.3710   -9.4242 H   0  0  0  0  0  0  0  0  0  0  0  0
    8.6950    7.7826   -8.7705 H   0  0  0  0  0  0  0  0  0  0  0  0
   11.2037    8.0458   -9.4112 H   0  0  0  0  0  0  0  0  0  0  0  0
   10.8298    9.6208  -10.0207 H   0  0  0  0  0  0  0  0  0  0  0  0
   10.9772    8.1691  -11.8500 H   0  0  0  0  0  0  0  0  0  0  0  0
    9.2777    8.5567  -11.7314 H   0  0  0  0  0  0  0  0  0  0  0  0
    8.7947    6.4033  -10.6197 H   0  0  0  0  0  0  0  0  0  0  0  0
   10.4859    5.9886  -10.5470 H   0  0  0  0  0  0  0  0  0  0  0  0
   11.7131    5.5586  -12.7723 H   0  0  0  0  0  0  0  0  0  0  0  0
   11.0317    6.9184  -13.6169 H   0  0  0  0  0  0  0  0  0  0  0  0
   11.4235    5.2701  -15.3557 H   0  0  0  0  0  0  0  0  0  0  0  0
    9.3802    1.2841  -15.4795 H   0  0  0  0  0  0  0  0  0  0  0  0
    7.0293   -0.7580  -16.4447 H   0  0  0  0  0  0  0  0  0  0  0  0
    4.5625   -0.9055  -16.7407 H   0  0  0  0  0  0  0  0  0  0  0  0
    3.5113   -0.1238  -18.8553 H   0  0  0  0  0  0  0  0  0  0  0  0
    4.9218    0.8132  -20.6776 H   0  0  0  0  0  0  0  0  0  0  0  0
    7.3924    0.9565  -20.3949 H   0  0  0  0  0  0  0  0  0  0  0  0
    9.3226    2.4597  -20.4059 H   0  0  0  0  0  0  0  0  0  0  0  0
    9.5953    4.7844  -21.2063 H   0  0  0  0  0  0  0  0  0  0  0  0
    9.9661    6.6261  -19.5811 H   0  0  0  0  0  0  0  0  0  0  0  0
   10.0499    6.1513  -17.1589 H   0  0  0  0  0  0  0  0  0  0  0  0
    7.7909    4.2047  -14.0111 H   0  0  0  0  0  0  0  0  0  0  0  0
    8.6371    2.7394  -13.5572 H   0  0  0  0  0  0  0  0  0  0  0  0
    8.2705    4.3850  -11.6495 H   0  0  0  0  0  0  0  0  0  0  0  0
    9.9177    3.8283  -11.8461 H   0  0  0  0  0  0  0  0  0  0  0  0
   10.4879   10.4500   -5.5862 H   0  0  0  0  0  0  0  0  0  0  0  0
   11.7474   10.4365   -3.4215 H   0  0  0  0  0  0  0  0  0  0  0  0
    8.8782    6.3115  -12.9614 H   0  0  0  0  0  0  0  0  0  0  0  0
  2  1  2  0
  3  2  1  0
  4  3  1  0
  5  4  1  0
  6  5  1  0
  7  6  2  0
  8  7  1  0
  9  8  1  0
 10  9  1  0
 11 10  1  0
 12 11  1  0
 13 12  1  0
 14 13  1  0
 15 14  1  0
 16 15  1  0
 17 16  2  0
 18 17  1  0
 19 18  2  0
 20 19  1  0
 21 20  1  0
 22 21  2  0
 23 21  2  0
 24 21  1  0
 25 24  2  0
 26 25  1  0
 27 26  2  0
 28 27  1  0
 29 24  1  0
 29 28  2  0
 30 20  1  0
 31 30  2  0
 32 31  1  0
 33 32  2  0
 34 33  1  0
 35 18  1  0
 35 30  1  0
 35 34  2  0
 36 17  1  0
 37 14  1  0
 37 36  1  0
 38  8  2  0
 39  5  2  0
 39 38  1  0
 40  2  1  0
 40 39  1  0
 41  3  1  0
 42  3  1  0
 43  4  1  0
 44  4  1  0
 45  6  1  0
 46  7  1  0
 47 10  1  0
 48 10  1  0
 49 11  1  0
 50 11  1  0
 51 12  1  0
 52 12  1  0
 53 13  1  0
 54 13  1  0
 55 15  1  0
 56 15  1  0
 57 16  1  0
 58 19  1  0
 59 25  1  0
 60 26  1  0
 61 27  1  0
 62 28  1  0
 63 29  1  0
 64 31  1  0
 65 32  1  0
 66 33  1  0
 67 34  1  0
 68 36  1  0
 69 36  1  0
 70 37  1  0
 71 37  1  0
 72 38  1  0
 73 40  1  0
 14 74  1  6
M  CHG  1  14   1
M  END
>  <b_m_subgroup_collapsed>  (734) 
0

>  <r_i_docking_score>  (734) 
-7.4521799639033697

>  <s_m_subgroup_title>  (734) 
glide-dock_SP_D22_pv

>  <s_m_subgroupid>  (734) 
glide-dock_SP_D22_pv

>  <Molecule ChEMBL ID>  (734) 
CHEMBL3409233

>  <Standard Type>  (734) 
Ki

>  <Standard Value>  (734) 
40.0

>  <label>  (734) 
1

$$$$
CHEMBL1928136
     RDKit          3D

 77 80  0  0  1  0  0  0  0  0999 V2000
   12.8994    4.8408  -17.9004 C   0  0  0  0  0  0  0  0  0  0  0  0
   13.0946    3.3953  -17.4413 C   0  0  0  0  0  0  0  0  0  0  0  0
   11.9595    2.6344  -17.8207 O   0  0  0  0  0  0  0  0  0  0  0  0
   12.0705    1.2658  -17.4659 C   0  0  0  0  0  0  0  0  0  0  0  0
   10.7548    0.5475  -17.7872 C   0  0  0  0  0  0  0  0  0  0  0  0
    9.8133    0.8826  -16.7823 O   0  0  0  0  0  0  0  0  0  0  0  0
    8.5228    0.3299  -16.9960 C   0  0  0  0  0  0  0  0  0  0  0  0
    7.5772    0.7121  -15.8727 C   0  0  0  0  0  0  0  0  0  0  0  0
    6.5887   -0.2054  -15.4249 C   0  0  0  0  0  0  0  0  0  0  0  0
    5.7737    0.1086  -14.3649 C   0  0  0  0  0  0  0  0  0  0  0  0
    5.9132    1.3214  -13.7652 N   0  0  0  0  0  0  0  0  0  0  0  0
    5.1950    1.7495  -12.6764 N   0  0  0  0  0  0  0  0  0  0  0  0
    5.6599    2.9551  -12.4421 C   0  0  0  0  0  0  0  0  0  0  0  0
    6.6606    3.3641  -13.3522 C   0  0  0  0  0  0  0  0  0  0  0  0
    7.4604    4.6088  -13.3753 C   0  0  0  0  0  0  0  0  0  0  0  0
    8.4861    4.7412  -14.0419 O   0  0  0  0  0  0  0  0  0  0  0  0
    6.9211    5.5976  -12.6468 N   0  0  0  0  0  0  0  0  0  0  0  0
    7.4288    6.9574  -12.5789 C   0  0  0  0  0  0  0  0  0  0  0  0
    8.6322    7.0403  -11.6316 C   0  0  0  0  0  0  0  0  0  0  0  0
    9.0627    8.4826  -11.3241 C   0  0  0  0  0  0  0  0  0  0  0  0
   10.2972    8.5142  -10.4116 C   0  0  0  0  0  0  0  0  0  0  0  0
   10.0592    7.8754   -9.0926 N   0  0  0  0  0  0  0  0  0  0  0  0
   11.3212    7.2890   -8.5793 C   0  0  0  0  0  0  0  0  0  0  0  0
   11.1375    6.6139   -7.2156 C   0  0  0  0  0  0  0  0  0  0  0  0
   10.5648    7.5782   -6.2975 N   0  0  0  0  0  0  0  0  0  0  0  0
   11.1928    7.8566   -5.0618 C   0  0  0  0  0  0  0  0  0  0  0  0
   11.6858    6.7883   -4.2787 C   0  0  0  0  0  0  0  0  0  0  0  0
   12.2607    7.0144   -3.0148 C   0  0  0  0  0  0  0  0  0  0  0  0
   12.3739    8.3255   -2.5202 C   0  0  0  0  0  0  0  0  0  0  0  0
   11.9107    9.4020   -3.2977 C   0  0  0  0  0  0  0  0  0  0  0  0
   11.3292    9.1797   -4.5615 C   0  0  0  0  0  0  0  0  0  0  0  0
   10.9390   10.2780   -5.2843 O   0  0  0  0  0  0  0  0  0  0  0  0
   11.8992   10.6296   -6.2641 C   0  0  0  0  0  0  0  0  0  0  0  0
    9.2961    8.1757   -6.6977 C   0  0  0  0  0  0  0  0  0  0  0  0
    9.3863    8.7765   -8.1151 C   0  0  0  0  0  0  0  0  0  0  0  0
    6.8431    2.2954  -14.1947 C   0  0  0  0  0  0  0  0  0  0  0  0
    7.6860    1.9551  -15.2849 C   0  0  0  0  0  0  0  0  0  0  0  0
   13.7555    5.4565  -17.6238 H   0  0  0  0  0  0  0  0  0  0  0  0
   12.7808    4.8950  -18.9829 H   0  0  0  0  0  0  0  0  0  0  0  0
   12.0103    5.2772  -17.4439 H   0  0  0  0  0  0  0  0  0  0  0  0
   13.2217    3.3686  -16.3593 H   0  0  0  0  0  0  0  0  0  0  0  0
   13.9977    2.9795  -17.8906 H   0  0  0  0  0  0  0  0  0  0  0  0
   12.3072    1.1582  -16.4075 H   0  0  0  0  0  0  0  0  0  0  0  0
   12.8860    0.8166  -18.0351 H   0  0  0  0  0  0  0  0  0  0  0  0
   10.9120   -0.5323  -17.7809 H   0  0  0  0  0  0  0  0  0  0  0  0
   10.3953    0.8270  -18.7794 H   0  0  0  0  0  0  0  0  0  0  0  0
    8.5946   -0.7569  -17.0561 H   0  0  0  0  0  0  0  0  0  0  0  0
    8.1120    0.6866  -17.9414 H   0  0  0  0  0  0  0  0  0  0  0  0
    6.4870   -1.1784  -15.8973 H   0  0  0  0  0  0  0  0  0  0  0  0
    5.0197   -0.5624  -13.9696 H   0  0  0  0  0  0  0  0  0  0  0  0
    5.2862    3.5128  -11.5955 H   0  0  0  0  0  0  0  0  0  0  0  0
    6.0855    5.4131  -12.1140 H   0  0  0  0  0  0  0  0  0  0  0  0
    7.6862    7.3174  -13.5672 H   0  0  0  0  0  0  0  0  0  0  0  0
    6.6176    7.6003  -12.2469 H   0  0  0  0  0  0  0  0  0  0  0  0
    8.3726    6.5297  -10.7029 H   0  0  0  0  0  0  0  0  0  0  0  0
    9.4704    6.4889  -12.0606 H   0  0  0  0  0  0  0  0  0  0  0  0
    9.2906    8.9895  -12.2624 H   0  0  0  0  0  0  0  0  0  0  0  0
    8.2440    9.0438  -10.8770 H   0  0  0  0  0  0  0  0  0  0  0  0
   11.0991    8.0003  -10.9445 H   0  0  0  0  0  0  0  0  0  0  0  0
   10.6648    9.5247  -10.2469 H   0  0  0  0  0  0  0  0  0  0  0  0
   11.6848    6.5728   -9.3141 H   0  0  0  0  0  0  0  0  0  0  0  0
   12.0788    8.0707   -8.5054 H   0  0  0  0  0  0  0  0  0  0  0  0
   10.4587    5.7654   -7.3046 H   0  0  0  0  0  0  0  0  0  0  0  0
   12.0904    6.2266   -6.8575 H   0  0  0  0  0  0  0  0  0  0  0  0
   11.5860    5.7736   -4.6290 H   0  0  0  0  0  0  0  0  0  0  0  0
   12.6059    6.1777   -2.4247 H   0  0  0  0  0  0  0  0  0  0  0  0
   12.8155    8.5071   -1.5522 H   0  0  0  0  0  0  0  0  0  0  0  0
   12.0102   10.4090   -2.9166 H   0  0  0  0  0  0  0  0  0  0  0  0
   11.6809   11.6005   -6.7050 H   0  0  0  0  0  0  0  0  0  0  0  0
   12.8951   10.6942   -5.8460 H   0  0  0  0  0  0  0  0  0  0  0  0
   11.9416    9.8792   -7.0495 H   0  0  0  0  0  0  0  0  0  0  0  0
    8.5302    7.3984   -6.6748 H   0  0  0  0  0  0  0  0  0  0  0  0
    8.9761    8.9431   -5.9993 H   0  0  0  0  0  0  0  0  0  0  0  0
    9.9479    9.7013   -8.0536 H   0  0  0  0  0  0  0  0  0  0  0  0
    8.3907    9.0447   -8.4698 H   0  0  0  0  0  0  0  0  0  0  0  0
    8.4316    2.6691  -15.6222 H   0  0  0  0  0  0  0  0  0  0  0  0
    9.4262    7.1015   -9.2450 H   0  0  0  0  0  0  0  0  0  0  0  0
  2  1  1  0
  3  2  1  0
  4  3  1  0
  5  4  1  0
  6  5  1  0
  7  6  1  0
  8  7  1  0
  9  8  1  0
 10  9  2  0
 11 10  1  0
 12 11  1  0
 13 12  2  0
 14 13  1  0
 15 14  1  0
 16 15  2  0
 17 15  1  0
 18 17  1  0
 19 18  1  0
 20 19  1  0
 21 20  1  0
 22 21  1  0
 23 22  1  0
 24 23  1  0
 25 24  1  0
 26 25  1  0
 27 26  2  0
 28 27  1  0
 29 28  2  0
 30 29  1  0
 31 26  1  0
 31 30  2  0
 32 31  1  0
 33 32  1  0
 34 25  1  0
 35 22  1  0
 35 34  1  0
 36 11  1  0
 36 14  2  0
 37  8  2  0
 37 36  1  0
 38  1  1  0
 39  1  1  0
 40  1  1  0
 41  2  1  0
 42  2  1  0
 43  4  1  0
 44  4  1  0
 45  5  1  0
 46  5  1  0
 47  7  1  0
 48  7  1  0
 49  9  1  0
 50 10  1  0
 51 13  1  0
 52 17  1  0
 53 18  1  0
 54 18  1  0
 55 19  1  0
 56 19  1  0
 57 20  1  0
 58 20  1  0
 59 21  1  0
 60 21  1  0
 61 23  1  0
 62 23  1  0
 63 24  1  0
 64 24  1  0
 65 27  1  0
 66 28  1  0
 67 29  1  0
 68 30  1  0
 69 33  1  0
 70 33  1  0
 71 33  1  0
 72 34  1  0
 73 34  1  0
 74 35  1  0
 75 35  1  0
 76 37  1  0
 77 22  1  0
M  CHG  1  22   1
M  END
>  <b_m_subgroup_collapsed>  (735) 
0

>  <r_i_docking_score>  (735) 
-7.4519838106202601

>  <s_m_subgroup_title>  (735) 
glide-dock_SP_D22_pv

>  <s_m_subgroupid>  (735) 
glide-dock_SP_D22_pv

>  <Molecule ChEMBL ID>  (735) 
CHEMBL1928136

>  <Standard Type>  (735) 
Ki

>  <Standard Value>  (735) 
12.0

>  <label>  (735) 
1

$$$$
CHEMBL444128
     RDKit          3D

 50 51  0  0  1  0  0  0  0  0999 V2000
   10.4705   -0.5646  -17.0460 C   0  0  0  0  0  0  0  0  0  0  0  0
    9.6504    0.5020  -16.3133 C   0  0  0  0  0  0  0  0  0  0  0  0
   10.2554    0.8820  -14.9503 C   0  0  0  0  0  0  0  0  0  0  0  0
    9.4563    1.9066  -14.2470 N   0  0  0  0  0  0  0  0  0  0  0  0
    9.6453    3.2883  -14.7436 C   0  0  0  0  0  0  0  0  0  0  0  0
    8.7379    4.2910  -14.0093 C   0  0  0  0  0  0  0  0  0  0  0  0
    9.2514    4.6884  -12.6174 C   0  0  0  0  0  0  0  0  0  0  0  0
    8.3578    5.7542  -11.9555 C   0  0  0  0  0  0  0  0  0  0  0  0
    8.8864    6.1722  -10.6646 N   0  0  0  0  0  0  0  0  0  0  0  0
    9.7971    7.1415  -10.4772 C   0  0  0  0  0  0  0  0  0  0  0  0
   10.3264    7.7504  -11.4109 O   0  0  0  0  0  0  0  0  0  0  0  0
   10.1896    7.4227   -9.0478 C   0  0  0  0  0  0  0  0  0  0  0  0
   11.2762    8.2815   -8.7682 C   0  0  0  0  0  0  0  0  0  0  0  0
   11.6786    8.5248   -7.4396 C   0  0  0  0  0  0  0  0  0  0  0  0
   11.0124    7.9055   -6.3577 C   0  0  0  0  0  0  0  0  0  0  0  0
   11.4650    8.0916   -4.9649 C   0  0  0  0  0  0  0  0  0  0  0  0
   11.6853    6.9654   -4.1398 C   0  0  0  0  0  0  0  0  0  0  0  0
   12.0881    7.1054   -2.7989 C   0  0  0  0  0  0  0  0  0  0  0  0
   12.2902    8.3901   -2.2621 C   0  0  0  0  0  0  0  0  0  0  0  0
   12.0856    9.5206   -3.0727 C   0  0  0  0  0  0  0  0  0  0  0  0
   11.6861    9.3726   -4.4174 C   0  0  0  0  0  0  0  0  0  0  0  0
    9.9120    7.0713   -6.6403 C   0  0  0  0  0  0  0  0  0  0  0  0
    9.4879    6.8471   -7.9631 C   0  0  0  0  0  0  0  0  0  0  0  0
   10.0346   -0.7850  -18.0206 H   0  0  0  0  0  0  0  0  0  0  0  0
   11.4940   -0.2303  -17.2077 H   0  0  0  0  0  0  0  0  0  0  0  0
   10.4858   -1.4935  -16.4787 H   0  0  0  0  0  0  0  0  0  0  0  0
    8.6298    0.1384  -16.1768 H   0  0  0  0  0  0  0  0  0  0  0  0
    9.5823    1.3799  -16.9587 H   0  0  0  0  0  0  0  0  0  0  0  0
   11.2859    1.2241  -15.0619 H   0  0  0  0  0  0  0  0  0  0  0  0
   10.2930   -0.0070  -14.3171 H   0  0  0  0  0  0  0  0  0  0  0  0
    9.7170    1.8765  -13.2655 H   0  0  0  0  0  0  0  0  0  0  0  0
    9.4055    3.3194  -15.8058 H   0  0  0  0  0  0  0  0  0  0  0  0
   10.6928    3.5797  -14.6497 H   0  0  0  0  0  0  0  0  0  0  0  0
    7.7209    3.9047  -13.9438 H   0  0  0  0  0  0  0  0  0  0  0  0
    8.6740    5.1956  -14.6184 H   0  0  0  0  0  0  0  0  0  0  0  0
   10.2675    5.0745  -12.7030 H   0  0  0  0  0  0  0  0  0  0  0  0
    9.3072    3.8094  -11.9729 H   0  0  0  0  0  0  0  0  0  0  0  0
    7.3536    5.3587  -11.7974 H   0  0  0  0  0  0  0  0  0  0  0  0
    8.2467    6.6227  -12.6066 H   0  0  0  0  0  0  0  0  0  0  0  0
    8.4535    5.7701   -9.8455 H   0  0  0  0  0  0  0  0  0  0  0  0
   11.8254    8.7495   -9.5745 H   0  0  0  0  0  0  0  0  0  0  0  0
   12.5270    9.1676   -7.2539 H   0  0  0  0  0  0  0  0  0  0  0  0
   11.5297    5.9731   -4.5339 H   0  0  0  0  0  0  0  0  0  0  0  0
   12.2350    6.2294   -2.1841 H   0  0  0  0  0  0  0  0  0  0  0  0
   12.5875    8.5095   -1.2305 H   0  0  0  0  0  0  0  0  0  0  0  0
   12.2242   10.5049   -2.6483 H   0  0  0  0  0  0  0  0  0  0  0  0
   11.5241   10.2505   -5.0243 H   0  0  0  0  0  0  0  0  0  0  0  0
    9.3719    6.5946   -5.8352 H   0  0  0  0  0  0  0  0  0  0  0  0
    8.6269    6.2132   -8.1166 H   0  0  0  0  0  0  0  0  0  0  0  0
    8.4808    1.6575  -14.3151 H   0  0  0  0  0  0  0  0  0  0  0  0
  2  1  1  0
  3  2  1  0
  4  3  1  0
  5  4  1  0
  6  5  1  0
  7  6  1  0
  8  7  1  0
  9  8  1  0
 10  9  1  0
 11 10  2  0
 12 10  1  0
 13 12  1  0
 14 13  2  0
 15 14  1  0
 16 15  1  0
 17 16  2  0
 18 17  1  0
 19 18  2  0
 20 19  1  0
 21 16  1  0
 21 20  2  0
 22 15  2  0
 23 12  2  0
 23 22  1  0
 24  1  1  0
 25  1  1  0
 26  1  1  0
 27  2  1  0
 28  2  1  0
 29  3  1  0
 30  3  1  0
 31  4  1  0
 32  5  1  0
 33  5  1  0
 34  6  1  0
 35  6  1  0
 36  7  1  0
 37  7  1  0
 38  8  1  0
 39  8  1  0
 40  9  1  0
 41 13  1  0
 42 14  1  0
 43 17  1  0
 44 18  1  0
 45 19  1  0
 46 20  1  0
 47 21  1  0
 48 22  1  0
 49 23  1  0
 50  4  1  0
M  CHG  1   4   1
M  END
>  <b_m_subgroup_collapsed>  (736) 
0

>  <r_i_docking_score>  (736) 
-7.4488055123308996

>  <s_m_subgroup_title>  (736) 
glide-dock_SP_D22_pv

>  <s_m_subgroupid>  (736) 
glide-dock_SP_D22_pv

>  <Molecule ChEMBL ID>  (736) 
CHEMBL444128

>  <Standard Type>  (736) 
Ki

>  <Standard Value>  (736) 
21000.0

>  <label>  (736) 
0

$$$$
CHEMBL3764639
     RDKit          3D

 58 61  0  0  1  0  0  0  0  0999 V2000
    9.2050    5.1408   -9.4707 C   0  0  0  0  0  0  0  0  0  0  0  0
    9.3243    6.4348  -10.1288 N   0  0  0  0  0  0  0  0  0  0  0  0
    8.9915    6.7480  -11.3971 C   0  0  0  0  0  0  0  0  0  0  0  0
    8.2637    5.5877  -12.5017 S   0  0  0  0  0  0  0  0  0  0  0  0
    9.7974    4.9648  -13.2359 C   0  0  0  0  0  0  0  0  0  0  0  0
    9.5067    3.7741  -14.1493 C   0  0  0  0  0  0  0  0  0  0  0  0
   10.7544    3.2805  -14.8952 C   0  0  0  0  0  0  0  0  0  0  0  0
   10.4719    2.2518  -15.8895 N   0  0  0  0  0  0  0  0  0  0  0  0
   10.0870    0.9785  -15.2917 C   0  0  0  0  0  0  0  0  0  0  0  0
    9.7750   -0.0743  -16.3635 C   0  0  0  0  0  0  0  0  0  0  0  0
   10.8861   -0.2266  -17.2407 O   0  0  0  0  0  0  0  0  0  0  0  0
   11.2893    0.9903  -17.8727 C   0  0  2  0  0  0  0  0  0  0  0  0
   12.4701    0.7803  -18.8086 C   0  0  0  0  0  0  0  0  0  0  0  0
   12.9820   -0.5142  -19.0472 C   0  0  0  0  0  0  0  0  0  0  0  0
   14.1018   -0.6958  -19.8786 C   0  0  0  0  0  0  0  0  0  0  0  0
   14.7255    0.4156  -20.4859 C   0  0  0  0  0  0  0  0  0  0  0  0
   15.9625    0.2381  -21.3439 C   0  0  0  0  0  0  0  0  0  0  0  0
   16.0846   -1.0275  -21.7475 F   0  0  0  0  0  0  0  0  0  0  0  0
   15.8981    1.0204  -22.4250 F   0  0  0  0  0  0  0  0  0  0  0  0
   17.0405    0.5727  -20.6297 F   0  0  0  0  0  0  0  0  0  0  0  0
   14.2027    1.7067  -20.2682 C   0  0  0  0  0  0  0  0  0  0  0  0
   13.0776    1.8866  -19.4429 C   0  0  0  0  0  0  0  0  0  0  0  0
   11.6074    2.0344  -16.7779 C   0  0  0  0  0  0  0  0  0  0  0  0
    9.2847    8.0009  -11.7397 N   0  0  0  0  0  0  0  0  0  0  0  0
    9.7940    8.5720  -10.6005 N   0  0  0  0  0  0  0  0  0  0  0  0
    9.7839    7.6202   -9.6574 C   0  0  0  0  0  0  0  0  0  0  0  0
   10.2624    7.8943   -8.2983 C   0  0  0  0  0  0  0  0  0  0  0  0
    9.7259    7.2304   -7.1735 C   0  0  0  0  0  0  0  0  0  0  0  0
   10.2289    7.4857   -5.8858 C   0  0  0  0  0  0  0  0  0  0  0  0
   11.2279    8.4597   -5.6896 C   0  0  0  0  0  0  0  0  0  0  0  0
   11.7057    8.7604   -4.3494 C   0  0  0  0  0  0  0  0  0  0  0  0
   12.0858    8.9993   -3.2834 N   0  0  0  0  0  0  0  0  0  0  0  0
   11.7511    9.1479   -6.8007 C   0  0  0  0  0  0  0  0  0  0  0  0
   11.2845    8.8518   -8.0973 C   0  0  0  0  0  0  0  0  0  0  0  0
    9.2961    4.3353  -10.1955 H   0  0  0  0  0  0  0  0  0  0  0  0
   10.0017    5.0154   -8.7377 H   0  0  0  0  0  0  0  0  0  0  0  0
    8.2333    5.0677   -8.9799 H   0  0  0  0  0  0  0  0  0  0  0  0
   10.2721    5.7730  -13.7933 H   0  0  0  0  0  0  0  0  0  0  0  0
   10.4856    4.6710  -12.4447 H   0  0  0  0  0  0  0  0  0  0  0  0
    9.0783    2.9740  -13.5495 H   0  0  0  0  0  0  0  0  0  0  0  0
    8.7498    4.0595  -14.8783 H   0  0  0  0  0  0  0  0  0  0  0  0
   11.2015    4.1405  -15.3969 H   0  0  0  0  0  0  0  0  0  0  0  0
   11.5011    2.9225  -14.1840 H   0  0  0  0  0  0  0  0  0  0  0  0
   10.8857    0.6137  -14.6477 H   0  0  0  0  0  0  0  0  0  0  0  0
    9.2078    1.1017  -14.6596 H   0  0  0  0  0  0  0  0  0  0  0  0
    9.5748   -1.0281  -15.8853 H   0  0  0  0  0  0  0  0  0  0  0  0
    8.8852    0.2024  -16.9323 H   0  0  0  0  0  0  0  0  0  0  0  0
   10.4609    1.3509  -18.4846 H   0  0  0  0  0  0  0  0  0  0  0  0
   12.5327   -1.3792  -18.5807 H   0  0  0  0  0  0  0  0  0  0  0  0
   14.4861   -1.6933  -20.0350 H   0  0  0  0  0  0  0  0  0  0  0  0
   14.6716    2.5636  -20.7317 H   0  0  0  0  0  0  0  0  0  0  0  0
   12.6926    2.8837  -19.2926 H   0  0  0  0  0  0  0  0  0  0  0  0
   11.8815    2.9827  -17.2413 H   0  0  0  0  0  0  0  0  0  0  0  0
   12.4810    1.7095  -16.2085 H   0  0  0  0  0  0  0  0  0  0  0  0
    8.9188    6.5214   -7.2810 H   0  0  0  0  0  0  0  0  0  0  0  0
    9.8198    6.9399   -5.0476 H   0  0  0  0  0  0  0  0  0  0  0  0
   12.5222    9.8936   -6.6608 H   0  0  0  0  0  0  0  0  0  0  0  0
   11.7140    9.3724   -8.9422 H   0  0  0  0  0  0  0  0  0  0  0  0
  2  1  1  0
  3  2  1  0
  4  3  1  0
  5  4  1  0
  6  5  1  0
  7  6  1  0
  8  7  1  0
  9  8  1  0
 10  9  1  0
 11 10  1  0
 12 11  1  0
 13 12  1  0
 14 13  1  0
 15 14  2  0
 16 15  1  0
 17 16  1  0
 18 17  1  0
 19 17  1  0
 20 17  1  0
 21 16  2  0
 22 13  2  0
 22 21  1  0
 23  8  1  0
 23 12  1  0
 24  3  2  0
 25 24  1  0
 26  2  1  0
 26 25  2  0
 27 26  1  0
 28 27  1  0
 29 28  2  0
 30 29  1  0
 31 30  1  0
 32 31  3  0
 33 30  2  0
 34 27  2  0
 34 33  1  0
 35  1  1  0
 36  1  1  0
 37  1  1  0
 38  5  1  0
 39  5  1  0
 40  6  1  0
 41  6  1  0
 42  7  1  0
 43  7  1  0
 44  9  1  0
 45  9  1  0
 46 10  1  0
 47 10  1  0
 12 48  1  6
 49 14  1  0
 50 15  1  0
 51 21  1  0
 52 22  1  0
 53 23  1  0
 54 23  1  0
 55 28  1  0
 56 29  1  0
 57 33  1  0
 58 34  1  0
M  END
>  <b_m_subgroup_collapsed>  (737) 
0

>  <r_i_docking_score>  (737) 
-7.4470528445869002

>  <s_m_subgroup_title>  (737) 
glide-dock_SP_D22_pv

>  <s_m_subgroupid>  (737) 
glide-dock_SP_D22_pv

>  <Molecule ChEMBL ID>  (737) 
CHEMBL3764639

>  <Standard Type>  (737) 
Ki

>  <Standard Value>  (737) 
10000.0

>  <label>  (737) 
0

$$$$
CHEMBL3970746
     RDKit          3D

 64 68  0  0  1  0  0  0  0  0999 V2000
   11.2855   10.4511   -5.6392 O   0  0  0  0  0  0  0  0  0  0  0  0
   11.4039    9.2494   -5.3960 C   0  0  0  0  0  0  0  0  0  0  0  0
   11.1471    8.2793   -6.2855 N   0  0  0  0  0  0  0  0  0  0  0  0
   10.7509    8.4664   -7.6735 C   0  0  1  0  0  0  0  0  0  0  0  0
   11.9766    8.3018   -8.5940 C   0  0  0  0  0  0  0  0  0  0  0  0
   11.6001    8.3165  -10.0874 C   0  0  0  0  0  0  0  0  0  0  0  0
   10.4836    7.2986  -10.4232 C   0  0  2  0  0  0  0  0  0  0  0  0
   10.0517    7.3742  -11.9035 C   0  0  0  0  0  0  0  0  0  0  0  0
   10.8886    6.4999  -12.8737 C   0  0  0  0  0  0  0  0  0  0  0  0
   10.3427    5.1322  -13.1004 N   0  0  0  0  0  0  0  0  0  0  0  0
    9.0133    5.1020  -13.7707 C   0  0  0  0  0  0  0  0  0  0  0  0
    8.4584    3.6737  -13.7549 C   0  0  0  0  0  0  0  0  0  0  0  0
    9.3904    2.7565  -14.4000 N   0  0  0  0  0  0  0  0  0  0  0  0
    8.9613    1.9133  -15.4494 C   0  0  0  0  0  0  0  0  0  0  0  0
    9.6932    1.7980  -16.5384 N   0  0  0  0  0  0  0  0  0  0  0  0
    8.9130    0.8178  -17.6531 S   0  0  0  0  0  0  0  0  0  0  0  0
    7.5204    0.4900  -16.6439 C   0  0  0  0  0  0  0  0  0  0  0  0
    6.3657   -0.2639  -16.9193 C   0  0  0  0  0  0  0  0  0  0  0  0
    5.3676   -0.4161  -15.9323 C   0  0  0  0  0  0  0  0  0  0  0  0
    4.1174   -1.1445  -16.2262 N   0  0  0  0  0  0  0  0  0  0  0  0
    3.2861   -1.2402  -15.3298 O   0  0  0  0  0  0  0  0  0  0  0  0
    3.9572   -1.5818  -17.3599 O   0  0  0  0  0  0  0  0  0  0  0  0
    5.5768    0.1722  -14.6649 C   0  0  0  0  0  0  0  0  0  0  0  0
    6.7223    0.9528  -14.4128 C   0  0  0  0  0  0  0  0  0  0  0  0
    7.7202    1.1526  -15.3973 C   0  0  0  0  0  0  0  0  0  0  0  0
   10.7920    2.8187  -13.9921 C   0  0  0  0  0  0  0  0  0  0  0  0
   11.3005    4.2696  -13.8474 C   0  0  0  0  0  0  0  0  0  0  0  0
    9.2763    7.5384   -9.4992 C   0  0  0  0  0  0  0  0  0  0  0  0
    9.6584    7.4438   -8.0187 C   0  0  0  0  0  0  0  0  0  0  0  0
   11.8473    8.7725   -4.0721 C   0  0  0  0  0  0  0  0  0  0  0  0
   12.0849    7.5034   -3.6091 C   0  0  0  0  0  0  0  0  0  0  0  0
   12.4858    7.6342   -2.2531 C   0  0  0  0  0  0  0  0  0  0  0  0
   12.4859    8.9717   -1.9873 C   0  0  0  0  0  0  0  0  0  0  0  0
   12.0861    9.6795   -3.0807 O   0  0  0  0  0  0  0  0  0  0  0  0
   11.2429    7.3259   -5.9699 H   0  0  0  0  0  0  0  0  0  0  0  0
   10.3330    9.4627   -7.8134 H   0  0  0  0  0  0  0  0  0  0  0  0
   12.7084    9.0827   -8.3886 H   0  0  0  0  0  0  0  0  0  0  0  0
   12.4865    7.3723   -8.3561 H   0  0  0  0  0  0  0  0  0  0  0  0
   11.2702    9.3246  -10.3451 H   0  0  0  0  0  0  0  0  0  0  0  0
   12.4888    8.1227  -10.6896 H   0  0  0  0  0  0  0  0  0  0  0  0
   10.8499    6.2939  -10.2108 H   0  0  0  0  0  0  0  0  0  0  0  0
    8.9919    7.1412  -11.9706 H   0  0  0  0  0  0  0  0  0  0  0  0
   10.0863    8.4125  -12.2250 H   0  0  0  0  0  0  0  0  0  0  0  0
   10.9833    6.9721  -13.8467 H   0  0  0  0  0  0  0  0  0  0  0  0
   11.9135    6.4439  -12.5050 H   0  0  0  0  0  0  0  0  0  0  0  0
    8.2783    5.7427  -13.2922 H   0  0  0  0  0  0  0  0  0  0  0  0
    9.1072    5.4525  -14.7994 H   0  0  0  0  0  0  0  0  0  0  0  0
    8.2923    3.3726  -12.7227 H   0  0  0  0  0  0  0  0  0  0  0  0
    7.4900    3.6575  -14.2528 H   0  0  0  0  0  0  0  0  0  0  0  0
    6.2525   -0.7218  -17.8902 H   0  0  0  0  0  0  0  0  0  0  0  0
    4.8357    0.0680  -13.8852 H   0  0  0  0  0  0  0  0  0  0  0  0
    6.8331    1.4147  -13.4456 H   0  0  0  0  0  0  0  0  0  0  0  0
   10.8851    2.2921  -13.0470 H   0  0  0  0  0  0  0  0  0  0  0  0
   11.4279    2.2770  -14.6917 H   0  0  0  0  0  0  0  0  0  0  0  0
   11.4567    4.6952  -14.8409 H   0  0  0  0  0  0  0  0  0  0  0  0
   12.2744    4.2656  -13.3575 H   0  0  0  0  0  0  0  0  0  0  0  0
    8.8480    8.5224   -9.7009 H   0  0  0  0  0  0  0  0  0  0  0  0
    8.4880    6.8113   -9.7067 H   0  0  0  0  0  0  0  0  0  0  0  0
    9.9982    6.4299   -7.7957 H   0  0  0  0  0  0  0  0  0  0  0  0
    8.7721    7.6190   -7.4059 H   0  0  0  0  0  0  0  0  0  0  0  0
   11.9803    6.5864   -4.1698 H   0  0  0  0  0  0  0  0  0  0  0  0
   12.7536    6.8436   -1.5679 H   0  0  0  0  0  0  0  0  0  0  0  0
   12.7194    9.5678   -1.1169 H   0  0  0  0  0  0  0  0  0  0  0  0
   10.2143    4.7111  -12.1909 H   0  0  0  0  0  0  0  0  0  0  0  0
  2  1  2  0
  3  2  1  0
  4  3  1  0
  5  4  1  0
  6  5  1  0
  7  6  1  0
  8  7  1  0
  9  8  1  0
 10  9  1  0
 11 10  1  0
 12 11  1  0
 13 12  1  0
 14 13  1  0
 15 14  2  0
 16 15  1  0
 17 16  1  0
 18 17  2  0
 19 18  1  0
 20 19  1  0
 21 20  2  0
 22 20  1  0
 23 19  2  0
 24 23  1  0
 25 14  1  0
 25 17  1  0
 25 24  2  0
 26 13  1  0
 27 10  1  0
 27 26  1  0
 28  7  1  0
 29  4  1  0
 29 28  1  0
 30  2  1  0
 31 30  2  0
 32 31  1  0
 33 32  2  0
 34 30  1  0
 34 33  1  0
 35  3  1  0
  4 36  1  1
 37  5  1  0
 38  5  1  0
 39  6  1  0
 40  6  1  0
  7 41  1  1
 42  8  1  0
 43  8  1  0
 44  9  1  0
 45  9  1  0
 46 11  1  0
 47 11  1  0
 48 12  1  0
 49 12  1  0
 50 18  1  0
 51 23  1  0
 52 24  1  0
 53 26  1  0
 54 26  1  0
 55 27  1  0
 56 27  1  0
 57 28  1  0
 58 28  1  0
 59 29  1  0
 60 29  1  0
 61 31  1  0
 62 32  1  0
 63 33  1  0
 64 10  1  0
M  CHG  3  10   1  20   1  22  -1
M  END
>  <b_m_subgroup_collapsed>  (738) 
0

>  <r_i_docking_score>  (738) 
-7.4460375140217696

>  <s_m_subgroup_title>  (738) 
glide-dock_SP_D22_pv

>  <s_m_subgroupid>  (738) 
glide-dock_SP_D22_pv

>  <Molecule ChEMBL ID>  (738) 
CHEMBL3970746

>  <Standard Type>  (738) 
Ki

>  <Standard Value>  (738) 
26.0

>  <label>  (738) 
1

$$$$
CHEMBL88289
     RDKit          3D

 46 49  0  0  1  0  0  0  0  0999 V2000
   12.7073    6.5593  -15.5505 F   0  0  0  0  0  0  0  0  0  0  0  0
   12.2955    5.2981  -15.4124 C   0  0  0  0  0  0  0  0  0  0  0  0
   13.2861    4.5798  -14.8897 F   0  0  0  0  0  0  0  0  0  0  0  0
   12.0146    4.8101  -16.6242 F   0  0  0  0  0  0  0  0  0  0  0  0
   11.0966    5.2306  -14.5179 C   0  0  0  0  0  0  0  0  0  0  0  0
   11.0450    5.7724  -13.3005 N   0  0  0  0  0  0  0  0  0  0  0  0
    9.7610    5.4639  -12.8668 C   0  0  0  0  0  0  0  0  0  0  0  0
    9.0823    5.7640  -11.6503 C   0  0  0  0  0  0  0  0  0  0  0  0
    9.6824    6.4366  -10.5626 N   0  0  0  0  0  0  0  0  0  0  0  0
    9.5393    5.8620   -9.2281 C   0  0  0  0  0  0  0  0  0  0  0  0
    9.3930    6.9844   -8.1953 C   0  0  0  0  0  0  0  0  0  0  0  0
   10.5403    7.9248   -8.2767 N   0  0  0  0  0  0  0  0  0  0  0  0
   10.4979    8.9715   -7.2238 C   0  0  0  0  0  0  0  0  0  0  0  0
   11.0340    8.5894   -5.8454 C   0  0  0  0  0  0  0  0  0  0  0  0
   11.2870    9.6355   -4.9304 C   0  0  0  0  0  0  0  0  0  0  0  0
   11.8007    9.3618   -3.6483 C   0  0  0  0  0  0  0  0  0  0  0  0
   12.0549    8.0337   -3.2599 C   0  0  0  0  0  0  0  0  0  0  0  0
   11.7781    6.9815   -4.1536 C   0  0  0  0  0  0  0  0  0  0  0  0
   11.2859    7.2550   -5.4449 C   0  0  0  0  0  0  0  0  0  0  0  0
   10.6451    8.5167   -9.6433 C   0  0  0  0  0  0  0  0  0  0  0  0
   10.7178    7.4459  -10.7503 C   0  0  0  0  0  0  0  0  0  0  0  0
    7.7294    5.3655  -11.5224 C   0  0  0  0  0  0  0  0  0  0  0  0
    7.0693    4.6189  -12.5156 C   0  0  0  0  0  0  0  0  0  0  0  0
    7.7485    4.2666  -13.6911 C   0  0  0  0  0  0  0  0  0  0  0  0
    9.0686    4.7086  -13.8643 C   0  0  0  0  0  0  0  0  0  0  0  0
    9.9822    4.5780  -14.8937 N   0  0  0  0  0  0  0  0  0  0  0  0
   10.4245    5.2653   -9.0090 H   0  0  0  0  0  0  0  0  0  0  0  0
    8.6906    5.1830   -9.1529 H   0  0  0  0  0  0  0  0  0  0  0  0
    9.2724    6.5610   -7.1994 H   0  0  0  0  0  0  0  0  0  0  0  0
    8.4840    7.5433   -8.3970 H   0  0  0  0  0  0  0  0  0  0  0  0
    9.4861    9.3661   -7.1272 H   0  0  0  0  0  0  0  0  0  0  0  0
   11.1221    9.8026   -7.5505 H   0  0  0  0  0  0  0  0  0  0  0  0
   11.0965   10.6611   -5.2128 H   0  0  0  0  0  0  0  0  0  0  0  0
   11.9989   10.1721   -2.9612 H   0  0  0  0  0  0  0  0  0  0  0  0
   12.4462    7.8238   -2.2750 H   0  0  0  0  0  0  0  0  0  0  0  0
   11.9640    5.9600   -3.8553 H   0  0  0  0  0  0  0  0  0  0  0  0
   11.1247    6.4192   -6.1060 H   0  0  0  0  0  0  0  0  0  0  0  0
    9.7755    9.1518   -9.8192 H   0  0  0  0  0  0  0  0  0  0  0  0
   11.5224    9.1612   -9.7119 H   0  0  0  0  0  0  0  0  0  0  0  0
   11.6985    6.9729  -10.7404 H   0  0  0  0  0  0  0  0  0  0  0  0
   10.6031    7.9254  -11.7234 H   0  0  0  0  0  0  0  0  0  0  0  0
    7.1666    5.6501  -10.6471 H   0  0  0  0  0  0  0  0  0  0  0  0
    6.0408    4.3243  -12.3672 H   0  0  0  0  0  0  0  0  0  0  0  0
    7.2528    3.6852  -14.4539 H   0  0  0  0  0  0  0  0  0  0  0  0
    9.8728    4.1024  -15.7771 H   0  0  0  0  0  0  0  0  0  0  0  0
   11.3819    7.3883   -8.1324 H   0  0  0  0  0  0  0  0  0  0  0  0
  2  1  1  0
  3  2  1  0
  4  2  1  0
  5  2  1  0
  6  5  2  0
  7  6  1  0
  8  7  2  0
  9  8  1  0
 10  9  1  0
 11 10  1  0
 12 11  1  0
 13 12  1  0
 14 13  1  0
 15 14  2  0
 16 15  1  0
 17 16  2  0
 18 17  1  0
 19 14  1  0
 19 18  2  0
 20 12  1  0
 21  9  1  0
 21 20  1  0
 22  8  1  0
 23 22  2  0
 24 23  1  0
 25  7  1  0
 25 24  2  0
 26  5  1  0
 26 25  1  0
 27 10  1  0
 28 10  1  0
 29 11  1  0
 30 11  1  0
 31 13  1  0
 32 13  1  0
 33 15  1  0
 34 16  1  0
 35 17  1  0
 36 18  1  0
 37 19  1  0
 38 20  1  0
 39 20  1  0
 40 21  1  0
 41 21  1  0
 42 22  1  0
 43 23  1  0
 44 24  1  0
 45 26  1  0
 46 12  1  0
M  CHG  1  12   1
M  END
>  <b_m_subgroup_collapsed>  (739) 
0

>  <r_i_docking_score>  (739) 
-7.4425558856030696

>  <s_m_subgroup_title>  (739) 
glide-dock_SP_D22_pv

>  <s_m_subgroupid>  (739) 
glide-dock_SP_D22_pv

>  <Molecule ChEMBL ID>  (739) 
CHEMBL88289

>  <Standard Type>  (739) 
Ki

>  <Standard Value>  (739) 
4.1

>  <label>  (739) 
1

$$$$
CHEMBL70866
     RDKit          3D

 61 63  0  0  1  0  0  0  0  0999 V2000
    3.0022   -0.8957  -14.1641 C   0  0  0  0  0  0  0  0  0  0  0  0
    4.0451   -0.2332  -13.4668 O   0  0  0  0  0  0  0  0  0  0  0  0
    5.1178    0.2035  -14.2067 C   0  0  0  0  0  0  0  0  0  0  0  0
    5.5422   -0.3662  -15.4250 C   0  0  0  0  0  0  0  0  0  0  0  0
    6.6259    0.1957  -16.1225 C   0  0  0  0  0  0  0  0  0  0  0  0
    7.2919    1.3551  -15.6411 C   0  0  0  0  0  0  0  0  0  0  0  0
    8.3019    1.9768  -16.3486 O   0  0  0  0  0  0  0  0  0  0  0  0
    8.7848    1.3570  -17.5344 C   0  0  0  0  0  0  0  0  0  0  0  0
    6.8789    1.9168  -14.3998 C   0  0  0  0  0  0  0  0  0  0  0  0
    7.4443    3.0875  -13.8473 N   0  0  0  0  0  0  0  0  0  0  0  0
    8.8615    3.3982  -13.9930 C   0  0  0  0  0  0  0  0  0  0  0  0
    9.4030    4.0839  -12.7224 C   0  0  0  0  0  0  0  0  0  0  0  0
    8.5246    5.2031  -12.2824 N   0  0  0  0  0  0  0  0  0  0  0  0
    9.0726    5.9487  -11.1272 C   0  0  0  0  0  0  0  0  0  0  0  0
   10.0605    7.0445  -11.5802 C   0  0  0  0  0  0  0  0  0  0  0  0
   10.7877    7.7007  -10.3993 C   0  0  0  0  0  0  0  0  0  0  0  0
    9.8708    8.5679   -9.5152 C   0  0  0  0  0  0  0  0  0  0  0  0
   10.3881    8.6658   -8.1636 N   0  0  0  0  0  0  0  0  0  0  0  0
   10.2587    7.6918   -7.2521 C   0  0  0  0  0  0  0  0  0  0  0  0
    9.7583    6.5932   -7.4964 O   0  0  0  0  0  0  0  0  0  0  0  0
   10.8387    7.9927   -5.9049 C   0  0  0  0  0  0  0  0  0  0  0  0
   10.8964    9.3189   -5.4138 C   0  0  0  0  0  0  0  0  0  0  0  0
   11.4024    9.5689   -4.1262 C   0  0  0  0  0  0  0  0  0  0  0  0
   11.8568    8.5030   -3.3312 C   0  0  0  0  0  0  0  0  0  0  0  0
   12.4867    8.8402   -1.5820 Br  0  0  0  0  0  0  0  0  0  0  0  0
   11.8068    7.1834   -3.8089 C   0  0  0  0  0  0  0  0  0  0  0  0
   11.2879    6.9316   -5.0899 C   0  0  0  0  0  0  0  0  0  0  0  0
    7.1222    4.7626  -12.0719 C   0  0  0  0  0  0  0  0  0  0  0  0
    6.5646    4.1514  -13.3656 C   0  0  0  0  0  0  0  0  0  0  0  0
    5.8166    1.3074  -13.6936 C   0  0  0  0  0  0  0  0  0  0  0  0
    2.2142   -1.1412  -13.4510 H   0  0  0  0  0  0  0  0  0  0  0  0
    2.5727   -0.2567  -14.9387 H   0  0  0  0  0  0  0  0  0  0  0  0
    3.3313   -1.8279  -14.6183 H   0  0  0  0  0  0  0  0  0  0  0  0
    5.0549   -1.2351  -15.8409 H   0  0  0  0  0  0  0  0  0  0  0  0
    6.9082   -0.2744  -17.0509 H   0  0  0  0  0  0  0  0  0  0  0  0
    9.6139    1.9414  -17.9351 H   0  0  0  0  0  0  0  0  0  0  0  0
    9.1589    0.3505  -17.3360 H   0  0  0  0  0  0  0  0  0  0  0  0
    8.0122    1.3127  -18.3054 H   0  0  0  0  0  0  0  0  0  0  0  0
    8.9921    4.0482  -14.8585 H   0  0  0  0  0  0  0  0  0  0  0  0
    9.4362    2.4893  -14.1792 H   0  0  0  0  0  0  0  0  0  0  0  0
   10.4158    4.4418  -12.9087 H   0  0  0  0  0  0  0  0  0  0  0  0
    9.4784    3.3516  -11.9152 H   0  0  0  0  0  0  0  0  0  0  0  0
    9.5419    5.2548  -10.4250 H   0  0  0  0  0  0  0  0  0  0  0  0
    8.2514    6.4132  -10.5810 H   0  0  0  0  0  0  0  0  0  0  0  0
    9.5387    7.8035  -12.1659 H   0  0  0  0  0  0  0  0  0  0  0  0
   10.8142    6.6129  -12.2405 H   0  0  0  0  0  0  0  0  0  0  0  0
   11.6121    8.3151  -10.7630 H   0  0  0  0  0  0  0  0  0  0  0  0
   11.2494    6.9069   -9.8111 H   0  0  0  0  0  0  0  0  0  0  0  0
    8.8608    8.1695   -9.4632 H   0  0  0  0  0  0  0  0  0  0  0  0
    9.7718    9.5733   -9.9167 H   0  0  0  0  0  0  0  0  0  0  0  0
   10.8540    9.5192   -7.8973 H   0  0  0  0  0  0  0  0  0  0  0  0
   10.5334   10.1496   -6.0003 H   0  0  0  0  0  0  0  0  0  0  0  0
   11.4208   10.5727   -3.7327 H   0  0  0  0  0  0  0  0  0  0  0  0
   12.1432    6.3645   -3.1898 H   0  0  0  0  0  0  0  0  0  0  0  0
   11.2396    5.9127   -5.4443 H   0  0  0  0  0  0  0  0  0  0  0  0
    7.0800    4.0360  -11.2586 H   0  0  0  0  0  0  0  0  0  0  0  0
    6.4998    5.6091  -11.7761 H   0  0  0  0  0  0  0  0  0  0  0  0
    6.5096    4.9221  -14.1352 H   0  0  0  0  0  0  0  0  0  0  0  0
    5.5394    3.8178  -13.2083 H   0  0  0  0  0  0  0  0  0  0  0  0
    5.4948    1.7099  -12.7445 H   0  0  0  0  0  0  0  0  0  0  0  0
    8.4819    5.8605  -13.0471 H   0  0  0  0  0  0  0  0  0  0  0  0
  2  1  1  0
  3  2  1  0
  4  3  1  0
  5  4  2  0
  6  5  1  0
  7  6  1  0
  8  7  1  0
  9  6  2  0
 10  9  1  0
 11 10  1  0
 12 11  1  0
 13 12  1  0
 14 13  1  0
 15 14  1  0
 16 15  1  0
 17 16  1  0
 18 17  1  0
 19 18  1  0
 20 19  2  0
 21 19  1  0
 22 21  1  0
 23 22  2  0
 24 23  1  0
 25 24  1  0
 26 24  2  0
 27 21  2  0
 27 26  1  0
 28 13  1  0
 29 10  1  0
 29 28  1  0
 30  3  2  0
 30  9  1  0
 31  1  1  0
 32  1  1  0
 33  1  1  0
 34  4  1  0
 35  5  1  0
 36  8  1  0
 37  8  1  0
 38  8  1  0
 39 11  1  0
 40 11  1  0
 41 12  1  0
 42 12  1  0
 43 14  1  0
 44 14  1  0
 45 15  1  0
 46 15  1  0
 47 16  1  0
 48 16  1  0
 49 17  1  0
 50 17  1  0
 51 18  1  0
 52 22  1  0
 53 23  1  0
 54 26  1  0
 55 27  1  0
 56 28  1  0
 57 28  1  0
 58 29  1  0
 59 29  1  0
 60 30  1  0
 61 13  1  0
M  CHG  1  13   1
M  END
>  <b_m_subgroup_collapsed>  (740) 
0

>  <r_i_docking_score>  (740) 
-7.4425251849611902

>  <s_m_subgroup_title>  (740) 
glide-dock_SP_D22_pv

>  <s_m_subgroupid>  (740) 
glide-dock_SP_D22_pv

>  <Molecule ChEMBL ID>  (740) 
CHEMBL70866

>  <Standard Type>  (740) 
Ki

>  <Standard Value>  (740) 
100.0

>  <label>  (740) 
1

$$$$
CHEMBL4459784
     RDKit          3D

 73 77  0  0  1  0  0  0  0  0999 V2000
    5.4654    1.1042  -20.1477 C   0  0  0  0  0  0  0  0  0  0  0  0
    6.6447    1.1359  -19.3549 O   0  0  0  0  0  0  0  0  0  0  0  0
    7.7967    0.5674  -19.8636 C   0  0  0  0  0  0  0  0  0  0  0  0
    7.8872    0.0712  -21.1929 C   0  0  0  0  0  0  0  0  0  0  0  0
    9.0734   -0.5202  -21.6626 C   0  0  0  0  0  0  0  0  0  0  0  0
    9.1403   -0.9901  -22.9304 F   0  0  0  0  0  0  0  0  0  0  0  0
   10.1895   -0.6269  -20.8173 C   0  0  0  0  0  0  0  0  0  0  0  0
   10.1163   -0.1442  -19.4983 C   0  0  0  0  0  0  0  0  0  0  0  0
    8.9329    0.4573  -19.0145 C   0  0  0  0  0  0  0  0  0  0  0  0
    8.9164    0.9475  -17.6980 N   0  0  0  0  0  0  0  0  0  0  0  0
    9.2812    0.0815  -16.5828 C   0  0  0  0  0  0  0  0  0  0  0  0
   10.2914    0.7921  -15.6597 C   0  0  0  0  0  0  0  0  0  0  0  0
    9.8149    2.2037  -15.2179 C   0  0  0  0  0  0  0  0  0  0  0  0
    8.6042    2.0834  -14.2636 C   0  0  0  0  0  0  0  0  0  0  0  0
    8.1751    3.4342  -13.6686 C   0  0  0  0  0  0  0  0  0  0  0  0
    9.2841    4.0817  -12.9212 N   0  0  0  0  0  0  0  0  0  0  0  0
    8.8172    5.3536  -12.3005 C   0  0  0  0  0  0  0  0  0  0  0  0
    9.8255    5.9874  -11.3288 C   0  0  0  0  0  0  0  0  0  0  0  0
    9.2781    7.2681  -10.6918 C   0  0  0  0  0  0  0  0  0  0  0  0
   10.5889    8.2497   -9.9094 S   0  0  0  0  0  0  0  0  0  0  0  0
   10.5332    7.6640   -8.2399 C   0  0  0  0  0  0  0  0  0  0  0  0
    9.8141    6.6318   -7.8014 N   0  0  0  0  0  0  0  0  0  0  0  0
   10.0451    6.5782   -6.4462 N   0  0  0  0  0  0  0  0  0  0  0  0
   10.8867    7.5806   -6.1656 C   0  0  0  0  0  0  0  0  0  0  0  0
   11.3753    7.8535   -4.8099 C   0  0  0  0  0  0  0  0  0  0  0  0
   11.6864    6.7774   -3.9543 C   0  0  0  0  0  0  0  0  0  0  0  0
   12.1758    6.9980   -2.6537 C   0  0  0  0  0  0  0  0  0  0  0  0
   12.3846    8.3156   -2.2032 C   0  0  0  0  0  0  0  0  0  0  0  0
   12.0707    9.3989   -3.0428 C   0  0  0  0  0  0  0  0  0  0  0  0
   11.5570    9.1729   -4.3341 C   0  0  0  0  0  0  0  0  0  0  0  0
   11.2491    8.2627   -7.2698 N   0  0  0  0  0  0  0  0  0  0  0  0
   12.1687    9.3705   -7.4014 C   0  0  0  0  0  0  0  0  0  0  0  0
   10.4998    4.2345  -13.7734 C   0  0  0  0  0  0  0  0  0  0  0  0
   10.9364    2.8957  -14.4100 C   0  0  0  0  0  0  0  0  0  0  0  0
    9.4864    3.0121  -16.5054 C   0  0  0  0  0  0  0  0  0  0  0  0
    8.4686    2.3051  -17.4164 C   0  0  0  0  0  0  0  0  0  0  0  0
    4.6291    1.4832  -19.5621 H   0  0  0  0  0  0  0  0  0  0  0  0
    5.5681    1.7412  -21.0267 H   0  0  0  0  0  0  0  0  0  0  0  0
    5.2128    0.0905  -20.4583 H   0  0  0  0  0  0  0  0  0  0  0  0
    7.0564    0.1336  -21.8785 H   0  0  0  0  0  0  0  0  0  0  0  0
   11.1036   -1.0644  -21.1853 H   0  0  0  0  0  0  0  0  0  0  0  0
   10.9839   -0.2209  -18.8600 H   0  0  0  0  0  0  0  0  0  0  0  0
    9.6928   -0.8650  -16.9349 H   0  0  0  0  0  0  0  0  0  0  0  0
    8.3735   -0.1718  -16.0319 H   0  0  0  0  0  0  0  0  0  0  0  0
   11.2413    0.8801  -16.1899 H   0  0  0  0  0  0  0  0  0  0  0  0
   10.4935    0.1643  -14.7906 H   0  0  0  0  0  0  0  0  0  0  0  0
    8.8763    1.4054  -13.4514 H   0  0  0  0  0  0  0  0  0  0  0  0
    7.7485    1.6253  -14.7583 H   0  0  0  0  0  0  0  0  0  0  0  0
    7.3205    3.2877  -13.0071 H   0  0  0  0  0  0  0  0  0  0  0  0
    7.8228    4.1036  -14.4530 H   0  0  0  0  0  0  0  0  0  0  0  0
    7.8947    5.1562  -11.7506 H   0  0  0  0  0  0  0  0  0  0  0  0
    8.5589    6.0638  -13.0893 H   0  0  0  0  0  0  0  0  0  0  0  0
   10.7447    6.2428  -11.8553 H   0  0  0  0  0  0  0  0  0  0  0  0
   10.0858    5.2773  -10.5431 H   0  0  0  0  0  0  0  0  0  0  0  0
    8.4864    7.0374   -9.9836 H   0  0  0  0  0  0  0  0  0  0  0  0
    8.8287    7.8989  -11.4590 H   0  0  0  0  0  0  0  0  0  0  0  0
   11.5370    5.7730   -4.3042 H   0  0  0  0  0  0  0  0  0  0  0  0
   12.3959    6.1600   -2.0112 H   0  0  0  0  0  0  0  0  0  0  0  0
   12.7693    8.4960   -1.2104 H   0  0  0  0  0  0  0  0  0  0  0  0
   12.2032   10.4090   -2.6849 H   0  0  0  0  0  0  0  0  0  0  0  0
   11.3036   10.0200   -4.9512 H   0  0  0  0  0  0  0  0  0  0  0  0
   12.6730    9.3236   -8.3651 H   0  0  0  0  0  0  0  0  0  0  0  0
   11.6045   10.2962   -7.3143 H   0  0  0  0  0  0  0  0  0  0  0  0
   12.9325    9.3505   -6.6253 H   0  0  0  0  0  0  0  0  0  0  0  0
   10.3181    4.9851  -14.5446 H   0  0  0  0  0  0  0  0  0  0  0  0
   11.3340    4.6022  -13.1763 H   0  0  0  0  0  0  0  0  0  0  0  0
   11.2714    2.2228  -13.6200 H   0  0  0  0  0  0  0  0  0  0  0  0
   11.8088    3.0624  -15.0456 H   0  0  0  0  0  0  0  0  0  0  0  0
    9.1298    4.0155  -16.2816 H   0  0  0  0  0  0  0  0  0  0  0  0
   10.4066    3.1569  -17.0743 H   0  0  0  0  0  0  0  0  0  0  0  0
    8.3626    2.8706  -18.3441 H   0  0  0  0  0  0  0  0  0  0  0  0
    7.4839    2.2674  -16.9497 H   0  0  0  0  0  0  0  0  0  0  0  0
    9.5294    3.4542  -12.1661 H   0  0  0  0  0  0  0  0  0  0  0  0
  2  1  1  0
  3  2  1  0
  4  3  1  0
  5  4  2  0
  6  5  1  0
  7  5  1  0
  8  7  2  0
  9  3  2  0
  9  8  1  0
 10  9  1  0
 11 10  1  0
 12 11  1  0
 13 12  1  0
 14 13  1  0
 15 14  1  0
 16 15  1  0
 17 16  1  0
 18 17  1  0
 19 18  1  0
 20 19  1  0
 21 20  1  0
 22 21  2  0
 23 22  1  0
 24 23  2  0
 25 24  1  0
 26 25  2  0
 27 26  1  0
 28 27  2  0
 29 28  1  0
 30 25  1  0
 30 29  2  0
 31 21  1  0
 31 24  1  0
 32 31  1  0
 33 16  1  0
 34 13  1  0
 34 33  1  0
 35 13  1  0
 36 10  1  0
 36 35  1  0
 37  1  1  0
 38  1  1  0
 39  1  1  0
 40  4  1  0
 41  7  1  0
 42  8  1  0
 43 11  1  0
 44 11  1  0
 45 12  1  0
 46 12  1  0
 47 14  1  0
 48 14  1  0
 49 15  1  0
 50 15  1  0
 51 17  1  0
 52 17  1  0
 53 18  1  0
 54 18  1  0
 55 19  1  0
 56 19  1  0
 57 26  1  0
 58 27  1  0
 59 28  1  0
 60 29  1  0
 61 30  1  0
 62 32  1  0
 63 32  1  0
 64 32  1  0
 65 33  1  0
 66 33  1  0
 67 34  1  0
 68 34  1  0
 69 35  1  0
 70 35  1  0
 71 36  1  0
 72 36  1  0
 73 16  1  0
M  CHG  1  16   1
M  END
>  <b_m_subgroup_collapsed>  (741) 
0

>  <r_i_docking_score>  (741) 
-7.4375511188338104

>  <s_m_subgroup_title>  (741) 
glide-dock_SP_D22_pv

>  <s_m_subgroupid>  (741) 
glide-dock_SP_D22_pv

>  <Molecule ChEMBL ID>  (741) 
CHEMBL4459784

>  <Standard Type>  (741) 
Ki

>  <Standard Value>  (741) 
19634.0

>  <label>  (741) 
0

$$$$
CHEMBL240024
     RDKit          3D

 56 60  0  0  1  0  0  0  0  0999 V2000
    6.0048   -0.3851  -15.1076 C   0  0  0  0  0  0  0  0  0  0  0  0
    7.2053    0.1885  -15.6054 O   0  0  0  0  0  0  0  0  0  0  0  0
    7.6570    1.3605  -15.0360 C   0  0  0  0  0  0  0  0  0  0  0  0
    6.8419    2.2104  -14.2468 C   0  0  0  0  0  0  0  0  0  0  0  0
    7.3791    3.3729  -13.6563 C   0  0  0  0  0  0  0  0  0  0  0  0
    8.7306    3.6982  -13.8597 C   0  0  0  0  0  0  0  0  0  0  0  0
    9.5360    2.8834  -14.6779 C   0  0  0  0  0  0  0  0  0  0  0  0
    9.0077    1.7080  -15.2689 C   0  0  0  0  0  0  0  0  0  0  0  0
    9.7482    0.8520  -16.0590 O   0  0  0  0  0  0  0  0  0  0  0  0
   11.0916    1.2013  -16.3552 C   0  0  0  0  0  0  0  0  0  0  0  0
    9.3165    4.9246  -13.1897 C   0  0  0  0  0  0  0  0  0  0  0  0
    8.7087    5.2656  -11.8872 N   0  0  0  0  0  0  0  0  0  0  0  0
    9.4557    5.9827  -11.0210 C   0  0  0  0  0  0  0  0  0  0  0  0
    9.0831    6.2757   -9.7602 N   0  0  0  0  0  0  0  0  0  0  0  0
    9.8704    7.2009   -8.9952 C   0  0  0  0  0  0  0  0  0  0  0  0
   10.3390    8.3813   -9.6163 C   0  0  0  0  0  0  0  0  0  0  0  0
   10.9923    9.3723   -8.8526 C   0  0  0  0  0  0  0  0  0  0  0  0
   11.1653    9.1684   -7.4670 C   0  0  0  0  0  0  0  0  0  0  0  0
   10.7803    7.9628   -6.8970 C   0  0  0  0  0  0  0  0  0  0  0  0
   10.1075    6.9613   -7.6243 C   0  0  0  0  0  0  0  0  0  0  0  0
   11.0416    8.0125   -5.4293 C   0  0  1  0  0  0  0  0  0  0  0  0
   11.6860    6.5276   -4.7050 S   0  0  0  0  0  0  0  0  0  0  0  0
   12.5828    7.1055   -3.2363 C   0  0  0  0  0  0  0  0  0  0  0  0
   11.8699    8.2524   -2.5130 C   0  0  0  0  0  0  0  0  0  0  0  0
   11.6862    9.7728   -3.5031 S   0  0  0  0  0  0  0  0  0  0  0  0
   11.9472    9.2053   -5.1984 C   0  0  2  0  0  0  0  0  0  0  0  0
   11.6636   10.1402   -6.3935 C   0  0  0  0  0  0  0  0  0  0  0  0
    7.3320    4.8224  -11.5593 C   0  0  0  0  0  0  0  0  0  0  0  0
    6.5391    4.2662  -12.7619 C   0  0  0  0  0  0  0  0  0  0  0  0
    5.9001   -1.3942  -15.5060 H   0  0  0  0  0  0  0  0  0  0  0  0
    5.1281    0.1805  -15.4209 H   0  0  0  0  0  0  0  0  0  0  0  0
    6.0165   -0.4638  -14.0197 H   0  0  0  0  0  0  0  0  0  0  0  0
    5.8044    1.9727  -14.0679 H   0  0  0  0  0  0  0  0  0  0  0  0
   10.5664    3.1688  -14.8242 H   0  0  0  0  0  0  0  0  0  0  0  0
   11.5433    0.4206  -16.9671 H   0  0  0  0  0  0  0  0  0  0  0  0
   11.6859    1.2927  -15.4471 H   0  0  0  0  0  0  0  0  0  0  0  0
   11.1444    2.1358  -16.9153 H   0  0  0  0  0  0  0  0  0  0  0  0
   10.3855    4.7670  -13.0427 H   0  0  0  0  0  0  0  0  0  0  0  0
    9.2083    5.7724  -13.8647 H   0  0  0  0  0  0  0  0  0  0  0  0
   10.4175    6.3442  -11.3672 H   0  0  0  0  0  0  0  0  0  0  0  0
   10.1462    8.5631  -10.6634 H   0  0  0  0  0  0  0  0  0  0  0  0
   11.2860   10.2920   -9.3328 H   0  0  0  0  0  0  0  0  0  0  0  0
    9.7468    6.0682   -7.1347 H   0  0  0  0  0  0  0  0  0  0  0  0
   10.0860    8.2161   -4.9943 H   0  0  0  0  0  0  0  0  0  0  0  0
   12.6899    6.2555   -2.5615 H   0  0  0  0  0  0  0  0  0  0  0  0
   13.5943    7.3808   -3.5256 H   0  0  0  0  0  0  0  0  0  0  0  0
   10.8861    7.9095   -2.2102 H   0  0  0  0  0  0  0  0  0  0  0  0
   12.3994    8.5081   -1.5949 H   0  0  0  0  0  0  0  0  0  0  0  0
   13.0040    8.9722   -5.2888 H   0  0  0  0  0  0  0  0  0  0  0  0
   12.5606   10.6984   -6.6469 H   0  0  0  0  0  0  0  0  0  0  0  0
   10.8726   10.8518   -6.1581 H   0  0  0  0  0  0  0  0  0  0  0  0
    7.4139    4.0461  -10.7991 H   0  0  0  0  0  0  0  0  0  0  0  0
    6.7803    5.6467  -11.1056 H   0  0  0  0  0  0  0  0  0  0  0  0
    6.1432    5.0874  -13.3602 H   0  0  0  0  0  0  0  0  0  0  0  0
    5.6769    3.7074  -12.3954 H   0  0  0  0  0  0  0  0  0  0  0  0
    8.3447    5.7374   -9.3268 H   0  0  0  0  0  0  0  0  0  0  0  0
  2  1  1  0
  3  2  1  0
  4  3  2  0
  5  4  1  0
  6  5  2  0
  7  6  1  0
  8  3  1  0
  8  7  2  0
  9  8  1  0
 10  9  1  0
 11  6  1  0
 12 11  1  0
 13 12  2  3
 14 13  1  0
 15 14  1  0
 16 15  1  0
 17 16  2  0
 18 17  1  0
 19 18  2  0
 20 15  2  0
 20 19  1  0
 21 19  1  0
 22 21  1  0
 23 22  1  0
 24 23  1  0
 25 24  1  0
 26 21  1  0
 26 25  1  0
 27 18  1  0
 27 26  1  0
 28 12  1  0
 29  5  1  0
 29 28  1  0
 30  1  1  0
 31  1  1  0
 32  1  1  0
 33  4  1  0
 34  7  1  0
 35 10  1  0
 36 10  1  0
 37 10  1  0
 38 11  1  0
 39 11  1  0
 40 13  1  0
 41 16  1  0
 42 17  1  0
 43 20  1  0
 21 44  1  1
 45 23  1  0
 46 23  1  0
 47 24  1  0
 48 24  1  0
 26 49  1  1
 50 27  1  0
 51 27  1  0
 52 28  1  0
 53 28  1  0
 54 29  1  0
 55 29  1  0
 56 14  1  0
M  CHG  1  12   1
M  END
>  <b_m_subgroup_collapsed>  (742) 
0

>  <r_i_docking_score>  (742) 
-7.4359176260991102

>  <s_m_subgroup_title>  (742) 
glide-dock_SP_D22_pv

>  <s_m_subgroupid>  (742) 
glide-dock_SP_D22_pv

>  <Molecule ChEMBL ID>  (742) 
CHEMBL240024

>  <Standard Type>  (742) 
Ki

>  <Standard Value>  (742) 
100000.0

>  <label>  (742) 
0

$$$$
CHEMBL3590081
     RDKit          3D

 59 61  0  0  1  0  0  0  0  0999 V2000
   12.2460    3.5506  -16.0965 C   0  0  0  0  0  0  0  0  0  0  0  0
   10.8786    3.9148  -15.5067 C   0  0  0  0  0  0  0  0  0  0  0  0
   10.6770    3.3223  -14.0985 C   0  0  0  0  0  0  0  0  0  0  0  0
    9.3507    3.6274  -13.4746 N   0  0  1  0  0  0  0  0  0  0  0  0
    9.1281    5.0797  -13.1989 C   0  0  0  0  0  0  0  0  0  0  0  0
   10.1521    5.6617  -12.2107 C   0  0  0  0  0  0  0  0  0  0  0  0
    9.9029    7.1188  -11.8043 C   0  0  0  0  0  0  0  0  0  0  0  0
    8.9129    7.2683  -10.6507 C   0  0  0  0  0  0  0  0  0  0  0  0
    9.5153    7.0430   -9.3419 N   0  0  0  0  0  0  0  0  0  0  0  0
   10.2206    7.9789   -8.6955 C   0  0  0  0  0  0  0  0  0  0  0  0
   10.5856    9.0437   -9.2009 O   0  0  0  0  0  0  0  0  0  0  0  0
   10.5284    7.6332   -7.2725 N   0  0  0  0  0  0  0  0  0  0  0  0
   10.8398    8.6293   -6.5930 N   0  0  0  0  0  0  0  0  0  0  0  0
   11.2869    8.4384   -5.2709 C   0  0  0  0  0  0  0  0  0  0  0  0
   11.5051    9.5993   -4.5066 C   0  0  0  0  0  0  0  0  0  0  0  0
   12.0237    9.5032   -3.2033 C   0  0  0  0  0  0  0  0  0  0  0  0
   12.3260    8.2459   -2.6569 C   0  0  0  0  0  0  0  0  0  0  0  0
   12.8611    8.1730   -1.4211 F   0  0  0  0  0  0  0  0  0  0  0  0
   12.0860    7.0746   -3.4005 C   0  0  0  0  0  0  0  0  0  0  0  0
   11.5634    7.1672   -4.7073 C   0  0  0  0  0  0  0  0  0  0  0  0
    8.1964    2.9827  -14.1667 C   0  0  0  0  0  0  0  0  0  0  0  0
    6.8173    3.1165  -13.4513 C   0  0  0  0  0  0  0  0  0  0  0  0
    6.1345    1.8118  -13.7719 C   0  0  0  0  0  0  0  0  0  0  0  0
    4.8258    1.4383  -13.4454 C   0  0  0  0  0  0  0  0  0  0  0  0
    4.3494    0.1722  -13.8507 C   0  0  0  0  0  0  0  0  0  0  0  0
    5.1933   -0.7010  -14.5730 C   0  0  0  0  0  0  0  0  0  0  0  0
    6.5240   -0.3274  -14.8548 C   0  0  0  0  0  0  0  0  0  0  0  0
    6.9801    0.9318  -14.4299 C   0  0  0  0  0  0  0  0  0  0  0  0
    8.3696    1.4843  -14.5458 C   0  0  0  0  0  0  0  0  0  0  0  0
   12.3652    3.9800  -17.0913 H   0  0  0  0  0  0  0  0  0  0  0  0
   13.0584    3.9281  -15.4731 H   0  0  0  0  0  0  0  0  0  0  0  0
   12.3651    2.4692  -16.1879 H   0  0  0  0  0  0  0  0  0  0  0  0
   10.1064    3.5578  -16.1879 H   0  0  0  0  0  0  0  0  0  0  0  0
   10.7989    5.0025  -15.4815 H   0  0  0  0  0  0  0  0  0  0  0  0
   11.4751    3.6649  -13.4471 H   0  0  0  0  0  0  0  0  0  0  0  0
   10.8287    2.2431  -14.1339 H   0  0  0  0  0  0  0  0  0  0  0  0
    9.1231    5.6505  -14.1281 H   0  0  0  0  0  0  0  0  0  0  0  0
    8.1409    5.2258  -12.7602 H   0  0  0  0  0  0  0  0  0  0  0  0
   10.1586    5.0412  -11.3137 H   0  0  0  0  0  0  0  0  0  0  0  0
   11.1468    5.6270  -12.6501 H   0  0  0  0  0  0  0  0  0  0  0  0
   10.8481    7.5951  -11.5413 H   0  0  0  0  0  0  0  0  0  0  0  0
    9.5220    7.6883  -12.6469 H   0  0  0  0  0  0  0  0  0  0  0  0
    8.4860    8.2735  -10.6771 H   0  0  0  0  0  0  0  0  0  0  0  0
    8.0863    6.5717  -10.7778 H   0  0  0  0  0  0  0  0  0  0  0  0
    9.2258    6.2200   -8.8316 H   0  0  0  0  0  0  0  0  0  0  0  0
   11.2898   10.5723   -4.9246 H   0  0  0  0  0  0  0  0  0  0  0  0
   12.1967   10.4004   -2.6288 H   0  0  0  0  0  0  0  0  0  0  0  0
   12.3112    6.1079   -2.9745 H   0  0  0  0  0  0  0  0  0  0  0  0
   11.3986    6.2586   -5.2686 H   0  0  0  0  0  0  0  0  0  0  0  0
    8.0848    3.4992  -15.1166 H   0  0  0  0  0  0  0  0  0  0  0  0
    6.2432    3.9508  -13.8573 H   0  0  0  0  0  0  0  0  0  0  0  0
    6.8858    3.2664  -12.3757 H   0  0  0  0  0  0  0  0  0  0  0  0
    4.1823    2.1211  -12.9085 H   0  0  0  0  0  0  0  0  0  0  0  0
    3.3319   -0.1180  -13.6307 H   0  0  0  0  0  0  0  0  0  0  0  0
    4.8253   -1.6664  -14.8961 H   0  0  0  0  0  0  0  0  0  0  0  0
    7.1781   -1.0049  -15.3780 H   0  0  0  0  0  0  0  0  0  0  0  0
    9.0029    0.9403  -13.8466 H   0  0  0  0  0  0  0  0  0  0  0  0
    8.7729    1.3498  -15.5512 H   0  0  0  0  0  0  0  0  0  0  0  0
    9.3860    3.1801  -12.5673 H   0  0  0  0  0  0  0  0  0  0  0  0
  2  1  1  0
  3  2  1  0
  4  3  1  0
  5  4  1  0
  6  5  1  0
  7  6  1  0
  8  7  1  0
  9  8  1  0
 10  9  1  0
 11 10  2  0
 12 10  1  0
 13 12  2  0
 14 13  1  0
 15 14  1  0
 16 15  2  0
 17 16  1  0
 18 17  1  0
 19 17  2  0
 20 14  2  0
 20 19  1  0
 21  4  1  0
 22 21  1  0
 23 22  1  0
 24 23  2  0
 25 24  1  0
 26 25  2  0
 27 26  1  0
 28 23  1  0
 28 27  2  0
 29 21  1  0
 29 28  1  0
 30  1  1  0
 31  1  1  0
 32  1  1  0
 33  2  1  0
 34  2  1  0
 35  3  1  0
 36  3  1  0
 37  5  1  0
 38  5  1  0
 39  6  1  0
 40  6  1  0
 41  7  1  0
 42  7  1  0
 43  8  1  0
 44  8  1  0
 45  9  1  0
 46 15  1  0
 47 16  1  0
 48 19  1  0
 49 20  1  0
 50 21  1  0
 51 22  1  0
 52 22  1  0
 53 24  1  0
 54 25  1  0
 55 26  1  0
 56 27  1  0
 57 29  1  0
 58 29  1  0
  4 59  1  1
M  CHG  1   4   1
M  END
>  <b_m_subgroup_collapsed>  (743) 
0

>  <r_i_docking_score>  (743) 
-7.4277539391734502

>  <s_m_subgroup_title>  (743) 
glide-dock_SP_D22_pv

>  <s_m_subgroupid>  (743) 
glide-dock_SP_D22_pv

>  <Molecule ChEMBL ID>  (743) 
CHEMBL3590081

>  <Standard Type>  (743) 
Ki

>  <Standard Value>  (743) 
23.0

>  <label>  (743) 
1

$$$$
CHEMBL4534566
     RDKit          3D

 67 70  0  0  1  0  0  0  0  0999 V2000
    6.5460    0.9479  -19.9212 C   0  0  0  0  0  0  0  0  0  0  0  0
    7.6373    0.9171  -18.8388 C   0  0  0  0  0  0  0  0  0  0  0  0
    7.0804    0.8461  -17.4259 C   0  0  0  0  0  0  0  0  0  0  0  0
    6.1627   -0.1606  -17.0730 C   0  0  0  0  0  0  0  0  0  0  0  0
    5.6605   -0.2294  -15.7626 C   0  0  0  0  0  0  0  0  0  0  0  0
    4.4831   -1.4274  -15.3762 Cl  0  0  0  0  0  0  0  0  0  0  0  0
    6.0866    0.6936  -14.7837 C   0  0  0  0  0  0  0  0  0  0  0  0
    5.6551    0.5373  -13.4943 O   0  0  0  0  0  0  0  0  0  0  0  0
    6.4927   -0.3552  -12.7819 C   0  0  0  0  0  0  0  0  0  0  0  0
    6.9586    1.7579  -15.1406 C   0  0  0  0  0  0  0  0  0  0  0  0
    7.2977    2.7991  -14.2466 N   0  0  0  0  0  0  0  0  0  0  0  0
    8.6979    3.1157  -13.9999 C   0  0  0  0  0  0  0  0  0  0  0  0
    8.8671    4.6276  -13.7786 C   0  0  0  0  0  0  0  0  0  0  0  0
    7.9463    5.1504  -12.7274 N   0  0  0  0  0  0  0  0  0  0  0  0
    8.0789    6.6141  -12.5042 C   0  0  0  0  0  0  0  0  0  0  0  0
    9.4582    7.0737  -11.9840 C   0  0  1  0  0  0  0  0  0  0  0  0
    9.4782    8.4029  -12.0183 F   0  0  0  0  0  0  0  0  0  0  0  0
    9.8643    6.6208  -10.5703 C   0  0  0  0  0  0  0  0  0  0  0  0
    8.9730    7.1906   -9.4486 C   0  0  0  0  0  0  0  0  0  0  0  0
    9.6850    7.3133   -8.1806 N   0  0  0  0  0  0  0  0  0  0  0  0
   10.5376    8.3126   -7.8937 C   0  0  0  0  0  0  0  0  0  0  0  0
   10.8811    9.1643   -8.7115 O   0  0  0  0  0  0  0  0  0  0  0  0
   10.9891    8.4012   -6.4960 C   0  0  0  0  0  0  0  0  0  0  0  0
   11.2744    9.4783   -5.6921 C   0  0  0  0  0  0  0  0  0  0  0  0
   11.6903    8.9517   -4.4214 C   0  0  0  0  0  0  0  0  0  0  0  0
   12.0860    9.5048   -3.1818 C   0  0  0  0  0  0  0  0  0  0  0  0
   12.4858    8.6902   -2.1060 C   0  0  0  0  0  0  0  0  0  0  0  0
   12.4851    7.2923   -2.2469 C   0  0  0  0  0  0  0  0  0  0  0  0
   12.0829    6.7134   -3.4542 C   0  0  0  0  0  0  0  0  0  0  0  0
   11.6853    7.5310   -4.5184 C   0  0  0  0  0  0  0  0  0  0  0  0
   11.2289    7.2372   -5.7832 N   0  0  0  0  0  0  0  0  0  0  0  0
    6.5262    4.7923  -12.9953 C   0  0  0  0  0  0  0  0  0  0  0  0
    6.3360    3.2896  -13.2641 C   0  0  0  0  0  0  0  0  0  0  0  0
    7.4700    1.7947  -16.4586 C   0  0  0  0  0  0  0  0  0  0  0  0
    6.9879    1.0683  -20.9108 H   0  0  0  0  0  0  0  0  0  0  0  0
    5.9702    0.0226  -19.9357 H   0  0  0  0  0  0  0  0  0  0  0  0
    5.8452    1.7699  -19.7679 H   0  0  0  0  0  0  0  0  0  0  0  0
    8.2668    1.8013  -18.9385 H   0  0  0  0  0  0  0  0  0  0  0  0
    8.2926    0.0584  -18.9954 H   0  0  0  0  0  0  0  0  0  0  0  0
    5.8380   -0.8881  -17.8038 H   0  0  0  0  0  0  0  0  0  0  0  0
    6.3403   -0.2277  -11.7124 H   0  0  0  0  0  0  0  0  0  0  0  0
    6.2871   -1.3946  -13.0472 H   0  0  0  0  0  0  0  0  0  0  0  0
    7.5462   -0.1729  -13.0029 H   0  0  0  0  0  0  0  0  0  0  0  0
    9.0323    2.5760  -13.1092 H   0  0  0  0  0  0  0  0  0  0  0  0
    9.3353    2.7840  -14.8193 H   0  0  0  0  0  0  0  0  0  0  0  0
    9.9059    4.8089  -13.5064 H   0  0  0  0  0  0  0  0  0  0  0  0
    8.6823    5.1577  -14.7143 H   0  0  0  0  0  0  0  0  0  0  0  0
    7.8717    7.1216  -13.4416 H   0  0  0  0  0  0  0  0  0  0  0  0
    7.2880    6.9658  -11.8500 H   0  0  0  0  0  0  0  0  0  0  0  0
   10.2466    6.7900  -12.6780 H   0  0  0  0  0  0  0  0  0  0  0  0
    9.8866    5.5333  -10.5054 H   0  0  0  0  0  0  0  0  0  0  0  0
   10.8942    6.9469  -10.4190 H   0  0  0  0  0  0  0  0  0  0  0  0
    8.5996    8.1813   -9.7162 H   0  0  0  0  0  0  0  0  0  0  0  0
    8.0935    6.5578   -9.3082 H   0  0  0  0  0  0  0  0  0  0  0  0
    9.3882    6.7074   -7.4298 H   0  0  0  0  0  0  0  0  0  0  0  0
   11.1919   10.5233   -5.9564 H   0  0  0  0  0  0  0  0  0  0  0  0
   12.0860   10.5724   -3.0471 H   0  0  0  0  0  0  0  0  0  0  0  0
   12.7957    9.1449   -1.1761 H   0  0  0  0  0  0  0  0  0  0  0  0
   12.8142    6.6516   -1.4471 H   0  0  0  0  0  0  0  0  0  0  0  0
   12.0854    5.6447   -3.5654 H   0  0  0  0  0  0  0  0  0  0  0  0
   11.1162    6.3119   -6.1727 H   0  0  0  0  0  0  0  0  0  0  0  0
    5.9090    5.0823  -12.1430 H   0  0  0  0  0  0  0  0  0  0  0  0
    6.1638    5.3720  -13.8457 H   0  0  0  0  0  0  0  0  0  0  0  0
    5.3137    3.1036  -13.5971 H   0  0  0  0  0  0  0  0  0  0  0  0
    6.4778    2.7469  -12.3315 H   0  0  0  0  0  0  0  0  0  0  0  0
    8.1442    2.5860  -16.7471 H   0  0  0  0  0  0  0  0  0  0  0  0
    8.1903    4.6931  -11.8585 H   0  0  0  0  0  0  0  0  0  0  0  0
  2  1  1  0
  3  2  1  0
  4  3  1  0
  5  4  2  0
  6  5  1  0
  7  5  1  0
  8  7  1  0
  9  8  1  0
 10  7  2  0
 11 10  1  0
 12 11  1  0
 13 12  1  0
 14 13  1  0
 15 14  1  0
 16 15  1  0
 17 16  1  0
 18 16  1  0
 19 18  1  0
 20 19  1  0
 21 20  1  0
 22 21  2  0
 23 21  1  0
 24 23  2  0
 25 24  1  0
 26 25  2  0
 27 26  1  0
 28 27  2  0
 29 28  1  0
 30 25  1  0
 30 29  2  0
 31 23  1  0
 31 30  1  0
 32 14  1  0
 33 11  1  0
 33 32  1  0
 34  3  2  0
 34 10  1  0
 35  1  1  0
 36  1  1  0
 37  1  1  0
 38  2  1  0
 39  2  1  0
 40  4  1  0
 41  9  1  0
 42  9  1  0
 43  9  1  0
 44 12  1  0
 45 12  1  0
 46 13  1  0
 47 13  1  0
 48 15  1  0
 49 15  1  0
 16 50  1  6
 51 18  1  0
 52 18  1  0
 53 19  1  0
 54 19  1  0
 55 20  1  0
 56 24  1  0
 57 26  1  0
 58 27  1  0
 59 28  1  0
 60 29  1  0
 61 31  1  0
 62 32  1  0
 63 32  1  0
 64 33  1  0
 65 33  1  0
 66 34  1  0
 67 14  1  0
M  CHG  1  14   1
M  END
>  <b_m_subgroup_collapsed>  (744) 
0

>  <r_i_docking_score>  (744) 
-7.4251382072931698

>  <s_m_subgroup_title>  (744) 
glide-dock_SP_D22_pv

>  <s_m_subgroupid>  (744) 
glide-dock_SP_D22_pv

>  <Molecule ChEMBL ID>  (744) 
CHEMBL4534566

>  <Standard Type>  (744) 
Ki

>  <Standard Value>  (744) 
20800.0

>  <label>  (744) 
0

$$$$
CHEMBL4527078
     RDKit          3D

 67 70  0  0  1  0  0  0  0  0999 V2000
    6.5460    0.9479  -19.9212 C   0  0  0  0  0  0  0  0  0  0  0  0
    7.6373    0.9171  -18.8388 C   0  0  0  0  0  0  0  0  0  0  0  0
    7.0804    0.8461  -17.4259 C   0  0  0  0  0  0  0  0  0  0  0  0
    6.1627   -0.1606  -17.0730 C   0  0  0  0  0  0  0  0  0  0  0  0
    5.6605   -0.2294  -15.7626 C   0  0  0  0  0  0  0  0  0  0  0  0
    4.4831   -1.4274  -15.3762 Cl  0  0  0  0  0  0  0  0  0  0  0  0
    6.0866    0.6936  -14.7837 C   0  0  0  0  0  0  0  0  0  0  0  0
    5.6551    0.5373  -13.4943 O   0  0  0  0  0  0  0  0  0  0  0  0
    6.4927   -0.3552  -12.7819 C   0  0  0  0  0  0  0  0  0  0  0  0
    6.9586    1.7579  -15.1406 C   0  0  0  0  0  0  0  0  0  0  0  0
    7.2977    2.7991  -14.2466 N   0  0  0  0  0  0  0  0  0  0  0  0
    8.6979    3.1157  -13.9999 C   0  0  0  0  0  0  0  0  0  0  0  0
    8.8671    4.6276  -13.7786 C   0  0  0  0  0  0  0  0  0  0  0  0
    7.9463    5.1504  -12.7274 N   0  0  0  0  0  0  0  0  0  0  0  0
    8.0789    6.6141  -12.5042 C   0  0  0  0  0  0  0  0  0  0  0  0
    9.4582    7.0737  -11.9840 C   0  0  1  0  0  0  0  0  0  0  0  0
    9.4782    8.4029  -12.0183 F   0  0  0  0  0  0  0  0  0  0  0  0
    9.8643    6.6208  -10.5703 C   0  0  0  0  0  0  0  0  0  0  0  0
    8.9730    7.1906   -9.4486 C   0  0  0  0  0  0  0  0  0  0  0  0
    9.6850    7.3133   -8.1806 N   0  0  0  0  0  0  0  0  0  0  0  0
   10.5376    8.3126   -7.8937 C   0  0  0  0  0  0  0  0  0  0  0  0
   10.8811    9.1643   -8.7115 O   0  0  0  0  0  0  0  0  0  0  0  0
   10.9891    8.4012   -6.4960 C   0  0  0  0  0  0  0  0  0  0  0  0
   11.2744    9.4783   -5.6921 C   0  0  0  0  0  0  0  0  0  0  0  0
   11.6903    8.9517   -4.4214 C   0  0  0  0  0  0  0  0  0  0  0  0
   12.0860    9.5048   -3.1818 C   0  0  0  0  0  0  0  0  0  0  0  0
   12.4858    8.6902   -2.1060 C   0  0  0  0  0  0  0  0  0  0  0  0
   12.4851    7.2923   -2.2469 C   0  0  0  0  0  0  0  0  0  0  0  0
   12.0829    6.7134   -3.4542 C   0  0  0  0  0  0  0  0  0  0  0  0
   11.6853    7.5310   -4.5184 C   0  0  0  0  0  0  0  0  0  0  0  0
   11.2289    7.2372   -5.7832 N   0  0  0  0  0  0  0  0  0  0  0  0
    6.5262    4.7923  -12.9953 C   0  0  0  0  0  0  0  0  0  0  0  0
    6.3360    3.2896  -13.2641 C   0  0  0  0  0  0  0  0  0  0  0  0
    7.4700    1.7947  -16.4586 C   0  0  0  0  0  0  0  0  0  0  0  0
    6.9879    1.0683  -20.9108 H   0  0  0  0  0  0  0  0  0  0  0  0
    5.9702    0.0226  -19.9357 H   0  0  0  0  0  0  0  0  0  0  0  0
    5.8452    1.7699  -19.7679 H   0  0  0  0  0  0  0  0  0  0  0  0
    8.2668    1.8013  -18.9385 H   0  0  0  0  0  0  0  0  0  0  0  0
    8.2926    0.0584  -18.9954 H   0  0  0  0  0  0  0  0  0  0  0  0
    5.8380   -0.8881  -17.8038 H   0  0  0  0  0  0  0  0  0  0  0  0
    6.3403   -0.2277  -11.7124 H   0  0  0  0  0  0  0  0  0  0  0  0
    6.2871   -1.3946  -13.0472 H   0  0  0  0  0  0  0  0  0  0  0  0
    7.5462   -0.1729  -13.0029 H   0  0  0  0  0  0  0  0  0  0  0  0
    9.0323    2.5760  -13.1092 H   0  0  0  0  0  0  0  0  0  0  0  0
    9.3353    2.7840  -14.8193 H   0  0  0  0  0  0  0  0  0  0  0  0
    9.9059    4.8089  -13.5064 H   0  0  0  0  0  0  0  0  0  0  0  0
    8.6823    5.1577  -14.7143 H   0  0  0  0  0  0  0  0  0  0  0  0
    7.8717    7.1216  -13.4416 H   0  0  0  0  0  0  0  0  0  0  0  0
    7.2880    6.9658  -11.8500 H   0  0  0  0  0  0  0  0  0  0  0  0
   10.2466    6.7900  -12.6780 H   0  0  0  0  0  0  0  0  0  0  0  0
    9.8866    5.5333  -10.5054 H   0  0  0  0  0  0  0  0  0  0  0  0
   10.8942    6.9469  -10.4190 H   0  0  0  0  0  0  0  0  0  0  0  0
    8.5996    8.1813   -9.7162 H   0  0  0  0  0  0  0  0  0  0  0  0
    8.0935    6.5578   -9.3082 H   0  0  0  0  0  0  0  0  0  0  0  0
    9.3882    6.7074   -7.4298 H   0  0  0  0  0  0  0  0  0  0  0  0
   11.1919   10.5233   -5.9564 H   0  0  0  0  0  0  0  0  0  0  0  0
   12.0860   10.5724   -3.0471 H   0  0  0  0  0  0  0  0  0  0  0  0
   12.7957    9.1449   -1.1761 H   0  0  0  0  0  0  0  0  0  0  0  0
   12.8142    6.6516   -1.4471 H   0  0  0  0  0  0  0  0  0  0  0  0
   12.0854    5.6447   -3.5654 H   0  0  0  0  0  0  0  0  0  0  0  0
   11.1162    6.3119   -6.1727 H   0  0  0  0  0  0  0  0  0  0  0  0
    5.9090    5.0823  -12.1430 H   0  0  0  0  0  0  0  0  0  0  0  0
    6.1638    5.3720  -13.8457 H   0  0  0  0  0  0  0  0  0  0  0  0
    5.3137    3.1036  -13.5971 H   0  0  0  0  0  0  0  0  0  0  0  0
    6.4778    2.7469  -12.3315 H   0  0  0  0  0  0  0  0  0  0  0  0
    8.1442    2.5860  -16.7471 H   0  0  0  0  0  0  0  0  0  0  0  0
    8.1903    4.6931  -11.8585 H   0  0  0  0  0  0  0  0  0  0  0  0
  2  1  1  0
  3  2  1  0
  4  3  1  0
  5  4  2  0
  6  5  1  0
  7  5  1  0
  8  7  1  0
  9  8  1  0
 10  7  2  0
 11 10  1  0
 12 11  1  0
 13 12  1  0
 14 13  1  0
 15 14  1  0
 16 15  1  0
 17 16  1  0
 18 16  1  0
 19 18  1  0
 20 19  1  0
 21 20  1  0
 22 21  2  0
 23 21  1  0
 24 23  2  0
 25 24  1  0
 26 25  2  0
 27 26  1  0
 28 27  2  0
 29 28  1  0
 30 25  1  0
 30 29  2  0
 31 23  1  0
 31 30  1  0
 32 14  1  0
 33 11  1  0
 33 32  1  0
 34  3  2  0
 34 10  1  0
 35  1  1  0
 36  1  1  0
 37  1  1  0
 38  2  1  0
 39  2  1  0
 40  4  1  0
 41  9  1  0
 42  9  1  0
 43  9  1  0
 44 12  1  0
 45 12  1  0
 46 13  1  0
 47 13  1  0
 48 15  1  0
 49 15  1  0
 16 50  1  6
 51 18  1  0
 52 18  1  0
 53 19  1  0
 54 19  1  0
 55 20  1  0
 56 24  1  0
 57 26  1  0
 58 27  1  0
 59 28  1  0
 60 29  1  0
 61 31  1  0
 62 32  1  0
 63 32  1  0
 64 33  1  0
 65 33  1  0
 66 34  1  0
 67 14  1  0
M  CHG  1  14   1
M  END
>  <b_m_subgroup_collapsed>  (745) 
0

>  <r_i_docking_score>  (745) 
-7.4251382072931698

>  <s_m_subgroup_title>  (745) 
glide-dock_SP_D22_pv

>  <s_m_subgroupid>  (745) 
glide-dock_SP_D22_pv

>  <Molecule ChEMBL ID>  (745) 
CHEMBL4527078

>  <Standard Type>  (745) 
Ki

>  <Standard Value>  (745) 
18900.0

>  <label>  (745) 
0

$$$$
CHEMBL3335472
     RDKit          3D

 60 62  0  0  1  0  0  0  0  0999 V2000
    3.5619   -0.7435  -13.9635 N   0  0  0  0  0  0  0  0  0  0  0  0
    4.5573   -0.2291  -14.2470 C   0  0  0  0  0  0  0  0  0  0  0  0
    5.8010    0.4311  -14.5961 C   0  0  0  0  0  0  0  0  0  0  0  0
    6.1179    1.6455  -13.9620 C   0  0  0  0  0  0  0  0  0  0  0  0
    7.2208    2.4211  -14.3931 C   0  0  0  0  0  0  0  0  0  0  0  0
    7.4588    3.6994  -13.8464 N   0  0  0  0  0  0  0  0  0  0  0  0
    6.3917    4.4881  -13.2331 C   0  0  0  0  0  0  0  0  0  0  0  0
    6.8007    4.9223  -11.8225 C   0  0  0  0  0  0  0  0  0  0  0  0
    8.1223    5.6024  -11.8235 N   0  0  0  0  0  0  0  0  0  0  0  0
    8.5377    6.0216  -10.4686 C   0  0  0  0  0  0  0  0  0  0  0  0
    9.3208    7.3469  -10.4949 C   0  0  0  0  0  0  0  0  0  0  0  0
    9.9284    7.7413   -9.1366 C   0  0  1  0  0  0  0  0  0  0  0  0
    8.8872    7.9967   -8.0336 C   0  0  0  0  0  0  0  0  0  0  0  0
    9.5579    8.4173   -6.7227 C   0  0  0  0  0  0  0  0  0  0  0  0
   10.6104    7.3871   -6.2636 C   0  0  2  0  0  0  0  0  0  0  0  0
   11.2859    7.7588   -5.0069 N   0  0  0  0  0  0  0  0  0  0  0  0
   11.7055    9.3724   -4.5480 S   0  0  0  0  0  0  0  0  0  0  0  0
   12.4856    9.8870   -5.9716 N   0  0  0  0  0  0  0  0  0  0  0  0
   10.4865   10.1749   -4.4155 O   0  0  0  0  0  0  0  0  0  0  0  0
   12.6973    9.2992   -3.4682 O   0  0  0  0  0  0  0  0  0  0  0  0
   11.6426    7.1008   -7.3699 C   0  0  0  0  0  0  0  0  0  0  0  0
   10.9499    6.6973   -8.6699 C   0  0  0  0  0  0  0  0  0  0  0  0
    9.1812    4.7947  -12.4916 C   0  0  0  0  0  0  0  0  0  0  0  0
    8.7690    4.3407  -13.8974 C   0  0  0  0  0  0  0  0  0  0  0  0
    8.0494    1.8933  -15.4107 C   0  0  0  0  0  0  0  0  0  0  0  0
    7.7718    0.6484  -16.0130 C   0  0  0  0  0  0  0  0  0  0  0  0
    8.6932    0.1273  -17.1061 C   0  0  0  0  0  0  0  0  0  0  0  0
    9.0564    1.1263  -17.9125 F   0  0  0  0  0  0  0  0  0  0  0  0
    9.7885   -0.3921  -16.5513 F   0  0  0  0  0  0  0  0  0  0  0  0
    8.1025   -0.8085  -17.8486 F   0  0  0  0  0  0  0  0  0  0  0  0
    6.6326   -0.0787  -15.6099 C   0  0  0  0  0  0  0  0  0  0  0  0
    5.4644    1.9860  -13.1737 H   0  0  0  0  0  0  0  0  0  0  0  0
    6.2350    5.3723  -13.8457 H   0  0  0  0  0  0  0  0  0  0  0  0
    5.4223    3.9951  -13.2161 H   0  0  0  0  0  0  0  0  0  0  0  0
    6.0379    5.6008  -11.4370 H   0  0  0  0  0  0  0  0  0  0  0  0
    6.8461    4.0534  -11.1622 H   0  0  0  0  0  0  0  0  0  0  0  0
    7.6832    6.1460   -9.8144 H   0  0  0  0  0  0  0  0  0  0  0  0
    9.1094    5.2108  -10.0242 H   0  0  0  0  0  0  0  0  0  0  0  0
   10.1277    7.2856  -11.2258 H   0  0  0  0  0  0  0  0  0  0  0  0
    8.6679    8.1468  -10.8477 H   0  0  0  0  0  0  0  0  0  0  0  0
   10.4640    8.6806   -9.2978 H   0  0  0  0  0  0  0  0  0  0  0  0
    8.1901    8.7757   -8.3424 H   0  0  0  0  0  0  0  0  0  0  0  0
    8.3078    7.0930   -7.8444 H   0  0  0  0  0  0  0  0  0  0  0  0
    8.7845    8.5245   -5.9686 H   0  0  0  0  0  0  0  0  0  0  0  0
   10.0023    9.3976   -6.8720 H   0  0  0  0  0  0  0  0  0  0  0  0
   10.0795    6.4538   -6.0643 H   0  0  0  0  0  0  0  0  0  0  0  0
   11.9457    7.0625   -4.6645 H   0  0  0  0  0  0  0  0  0  0  0  0
   11.9776   10.6497   -6.4169 H   0  0  0  0  0  0  0  0  0  0  0  0
   13.4828   10.0856   -5.8438 H   0  0  0  0  0  0  0  0  0  0  0  0
   12.3021    6.2943   -7.0469 H   0  0  0  0  0  0  0  0  0  0  0  0
   12.2690    7.9651   -7.5733 H   0  0  0  0  0  0  0  0  0  0  0  0
   10.4842    5.7266   -8.5005 H   0  0  0  0  0  0  0  0  0  0  0  0
   11.6777    6.5727   -9.4644 H   0  0  0  0  0  0  0  0  0  0  0  0
   10.1108    5.3623  -12.5483 H   0  0  0  0  0  0  0  0  0  0  0  0
    9.3914    3.9088  -11.8884 H   0  0  0  0  0  0  0  0  0  0  0  0
    9.5506    3.6842  -14.2755 H   0  0  0  0  0  0  0  0  0  0  0  0
    8.7166    5.1965  -14.5716 H   0  0  0  0  0  0  0  0  0  0  0  0
    8.8991    2.4438  -15.7791 H   0  0  0  0  0  0  0  0  0  0  0  0
    6.3903   -1.0205  -16.0867 H   0  0  0  0  0  0  0  0  0  0  0  0
    7.9847    6.4469  -12.3576 H   0  0  0  0  0  0  0  0  0  0  0  0
  2  1  3  0
  3  2  1  0
  4  3  2  0
  5  4  1  0
  6  5  1  0
  7  6  1  0
  8  7  1  0
  9  8  1  0
 10  9  1  0
 11 10  1  0
 12 11  1  0
 13 12  1  0
 14 13  1  0
 15 14  1  0
 16 15  1  0
 17 16  1  0
 18 17  1  0
 19 17  2  0
 20 17  2  0
 21 15  1  0
 22 12  1  0
 22 21  1  0
 23  9  1  0
 24  6  1  0
 24 23  1  0
 25  5  2  0
 26 25  1  0
 27 26  1  0
 28 27  1  0
 29 27  1  0
 30 27  1  0
 31  3  1  0
 31 26  2  0
 32  4  1  0
 33  7  1  0
 34  7  1  0
 35  8  1  0
 36  8  1  0
 37 10  1  0
 38 10  1  0
 39 11  1  0
 40 11  1  0
 12 41  1  6
 42 13  1  0
 43 13  1  0
 44 14  1  0
 45 14  1  0
 15 46  1  1
 47 16  1  0
 48 18  1  0
 49 18  1  0
 50 21  1  0
 51 21  1  0
 52 22  1  0
 53 22  1  0
 54 23  1  0
 55 23  1  0
 56 24  1  0
 57 24  1  0
 58 25  1  0
 59 31  1  0
 60  9  1  0
M  CHG  1   9   1
M  END
>  <b_m_subgroup_collapsed>  (746) 
0

>  <r_i_docking_score>  (746) 
-7.4243849399517297

>  <s_m_subgroup_title>  (746) 
glide-dock_SP_D22_pv

>  <s_m_subgroupid>  (746) 
glide-dock_SP_D22_pv

>  <Molecule ChEMBL ID>  (746) 
CHEMBL3335472

>  <Standard Type>  (746) 
Ki

>  <Standard Value>  (746) 
37.0

>  <label>  (746) 
1

$$$$
CHEMBL64043
     RDKit          3D

 49 52  0  0  1  0  0  0  0  0999 V2000
   12.3073    7.8527   -3.0634 C   0  0  0  0  0  0  0  0  0  0  0  0
   12.1121    9.1831   -3.4773 C   0  0  0  0  0  0  0  0  0  0  0  0
   11.4173    9.4529   -4.6710 C   0  0  0  0  0  0  0  0  0  0  0  0
   10.9038    8.3930   -5.4500 C   0  0  0  0  0  0  0  0  0  0  0  0
   10.0425    8.7025   -6.6559 C   0  0  0  0  0  0  0  0  0  0  0  0
   10.4424    7.9438   -7.8650 N   0  0  0  0  0  0  0  0  0  0  0  0
   10.8803    8.8341   -8.9700 C   0  0  0  0  0  0  0  0  0  0  0  0
   11.1874    8.0490  -10.2533 C   0  0  0  0  0  0  0  0  0  0  0  0
    9.9970    7.2939  -10.6385 N   0  0  0  0  0  0  0  0  0  0  0  0
   10.1786    6.6958  -11.9555 C   0  0  0  0  0  0  0  0  0  0  0  0
    9.1503    5.7526  -12.5031 C   0  0  0  0  0  0  0  0  0  0  0  0
    7.7877    5.8149  -12.3589 C   0  0  0  0  0  0  0  0  0  0  0  0
    6.9997    4.4226  -13.0471 S   0  0  0  0  0  0  0  0  0  0  0  0
    8.5769    3.8270  -13.5808 C   0  0  0  0  0  0  0  0  0  0  0  0
    8.7438    2.5788  -14.3296 C   0  0  0  0  0  0  0  0  0  0  0  0
   10.0421    2.1586  -14.7029 C   0  0  0  0  0  0  0  0  0  0  0  0
   10.2314    0.9637  -15.4218 C   0  0  0  0  0  0  0  0  0  0  0  0
    9.1233    0.1729  -15.7719 C   0  0  0  0  0  0  0  0  0  0  0  0
    7.8267    0.5745  -15.4002 C   0  0  0  0  0  0  0  0  0  0  0  0
    7.6356    1.7750  -14.6874 C   0  0  0  0  0  0  0  0  0  0  0  0
    9.5781    4.6320  -13.2139 N   0  0  0  0  0  0  0  0  0  0  0  0
    9.7533    6.2912   -9.6010 C   0  0  0  0  0  0  0  0  0  0  0  0
    9.3655    7.0297   -8.3148 C   0  0  0  0  0  0  0  0  0  0  0  0
   11.1211    7.0578   -5.0464 C   0  0  0  0  0  0  0  0  0  0  0  0
   11.8132    6.7934   -3.8481 C   0  0  0  0  0  0  0  0  0  0  0  0
   12.8307    7.6451   -2.1422 H   0  0  0  0  0  0  0  0  0  0  0  0
   12.4865    9.9967   -2.8724 H   0  0  0  0  0  0  0  0  0  0  0  0
   11.2508   10.4800   -4.9623 H   0  0  0  0  0  0  0  0  0  0  0  0
   10.0899    9.7736   -6.8527 H   0  0  0  0  0  0  0  0  0  0  0  0
    9.0035    8.5025   -6.3853 H   0  0  0  0  0  0  0  0  0  0  0  0
   11.7727    9.3725   -8.6553 H   0  0  0  0  0  0  0  0  0  0  0  0
   10.1058    9.5730   -9.1820 H   0  0  0  0  0  0  0  0  0  0  0  0
   12.0427    7.3855  -10.1130 H   0  0  0  0  0  0  0  0  0  0  0  0
   11.4569    8.7511  -11.0421 H   0  0  0  0  0  0  0  0  0  0  0  0
   11.1502    6.2067  -11.9881 H   0  0  0  0  0  0  0  0  0  0  0  0
   10.2727    7.5318  -12.6467 H   0  0  0  0  0  0  0  0  0  0  0  0
    7.2089    6.5714  -11.8466 H   0  0  0  0  0  0  0  0  0  0  0  0
   10.9073    2.7490  -14.4375 H   0  0  0  0  0  0  0  0  0  0  0  0
   11.2288    0.6552  -15.6993 H   0  0  0  0  0  0  0  0  0  0  0  0
    9.2671   -0.7442  -16.3228 H   0  0  0  0  0  0  0  0  0  0  0  0
    6.9784   -0.0404  -15.6651 H   0  0  0  0  0  0  0  0  0  0  0  0
    6.6300    2.0605  -14.4169 H   0  0  0  0  0  0  0  0  0  0  0  0
    8.9264    5.6389   -9.8824 H   0  0  0  0  0  0  0  0  0  0  0  0
   10.6243    5.6546   -9.4474 H   0  0  0  0  0  0  0  0  0  0  0  0
    9.1223    6.3142   -7.5282 H   0  0  0  0  0  0  0  0  0  0  0  0
    8.4717    7.6187   -8.5026 H   0  0  0  0  0  0  0  0  0  0  0  0
   10.7194    6.2305   -5.6147 H   0  0  0  0  0  0  0  0  0  0  0  0
   11.9585    5.7726   -3.5245 H   0  0  0  0  0  0  0  0  0  0  0  0
   11.2328    7.3688   -7.6131 H   0  0  0  0  0  0  0  0  0  0  0  0
  2  1  2  0
  3  2  1  0
  4  3  2  0
  5  4  1  0
  6  5  1  0
  7  6  1  0
  8  7  1  0
  9  8  1  0
 10  9  1  0
 11 10  1  0
 12 11  2  0
 13 12  1  0
 14 13  1  0
 15 14  1  0
 16 15  2  0
 17 16  1  0
 18 17  2  0
 19 18  1  0
 20 15  1  0
 20 19  2  0
 21 11  1  0
 21 14  2  0
 22  9  1  0
 23  6  1  0
 23 22  1  0
 24  4  1  0
 25  1  1  0
 25 24  2  0
 26  1  1  0
 27  2  1  0
 28  3  1  0
 29  5  1  0
 30  5  1  0
 31  7  1  0
 32  7  1  0
 33  8  1  0
 34  8  1  0
 35 10  1  0
 36 10  1  0
 37 12  1  0
 38 16  1  0
 39 17  1  0
 40 18  1  0
 41 19  1  0
 42 20  1  0
 43 22  1  0
 44 22  1  0
 45 23  1  0
 46 23  1  0
 47 24  1  0
 48 25  1  0
 49  6  1  0
M  CHG  1   6   1
M  END
>  <b_m_subgroup_collapsed>  (747) 
0

>  <r_i_docking_score>  (747) 
-7.4208790326320404

>  <s_m_subgroup_title>  (747) 
glide-dock_SP_D22_pv

>  <s_m_subgroupid>  (747) 
glide-dock_SP_D22_pv

>  <Molecule ChEMBL ID>  (747) 
CHEMBL64043

>  <Standard Type>  (747) 
Ki

>  <Standard Value>  (747) 
19500.0

>  <label>  (747) 
0

$$$$
CHEMBL515853
     RDKit          3D

 63 66  0  0  1  0  0  0  0  0999 V2000
    6.7075    0.6780  -19.5373 C   0  0  0  0  0  0  0  0  0  0  0  0
    7.3389    1.7721  -18.8885 O   0  0  0  0  0  0  0  0  0  0  0  0
    8.4163    1.5098  -18.0698 C   0  0  0  0  0  0  0  0  0  0  0  0
    8.9821    0.2223  -17.8896 C   0  0  0  0  0  0  0  0  0  0  0  0
   10.0708    0.0393  -17.0153 C   0  0  0  0  0  0  0  0  0  0  0  0
   10.5980    1.1321  -16.3021 C   0  0  0  0  0  0  0  0  0  0  0  0
   10.0334    2.4154  -16.4579 C   0  0  0  0  0  0  0  0  0  0  0  0
   10.5378    3.5743  -15.6098 C   0  0  0  0  0  0  0  0  0  0  0  0
   10.1365    3.4882  -14.1170 C   0  0  0  0  0  0  0  0  0  0  0  0
    8.6308    3.4838  -13.8473 C   0  0  0  0  0  0  0  0  0  0  0  0
    7.8661    2.3638  -14.2469 C   0  0  0  0  0  0  0  0  0  0  0  0
    6.4864    2.3044  -13.9937 C   0  0  0  0  0  0  0  0  0  0  0  0
    5.8506    3.3690  -13.3357 C   0  0  0  0  0  0  0  0  0  0  0  0
    6.5996    4.4819  -12.9201 C   0  0  0  0  0  0  0  0  0  0  0  0
    8.0009    4.5550  -13.1528 C   0  0  0  0  0  0  0  0  0  0  0  0
    8.7758    5.6167  -12.7136 O   0  0  0  0  0  0  0  0  0  0  0  0
    8.1354    6.6005  -11.9041 C   0  0  0  0  0  0  0  0  0  0  0  0
    9.0976    7.6909  -11.3898 C   0  0  0  0  0  0  0  0  0  0  0  0
   10.0250    7.2739  -10.3303 N   0  0  0  0  0  0  0  0  0  0  0  0
   10.8311    8.4498   -9.9730 C   0  0  0  0  0  0  0  0  0  0  0  0
   11.8878    8.0891   -8.9136 C   0  0  0  0  0  0  0  0  0  0  0  0
   11.2594    7.4881   -7.7417 N   0  0  0  0  0  0  0  0  0  0  0  0
   11.2852    8.1116   -6.4828 C   0  0  0  0  0  0  0  0  0  0  0  0
   11.2017    9.5160   -6.3692 C   0  0  0  0  0  0  0  0  0  0  0  0
   11.3250   10.1428   -5.1155 C   0  0  0  0  0  0  0  0  0  0  0  0
   11.6035    9.3728   -3.9696 C   0  0  0  0  0  0  0  0  0  0  0  0
   11.6860    7.9701   -4.0715 C   0  0  0  0  0  0  0  0  0  0  0  0
   12.0670    7.0255   -2.6780 Cl  0  0  0  0  0  0  0  0  0  0  0  0
   11.4659    7.3392   -5.3131 C   0  0  0  0  0  0  0  0  0  0  0  0
   10.3237    6.4074   -8.0177 C   0  0  0  0  0  0  0  0  0  0  0  0
    9.3208    6.8324   -9.1128 C   0  0  0  0  0  0  0  0  0  0  0  0
    8.9632    2.5971  -17.3600 C   0  0  0  0  0  0  0  0  0  0  0  0
    5.8526    1.0420  -20.1075 H   0  0  0  0  0  0  0  0  0  0  0  0
    7.3848    0.1855  -20.2362 H   0  0  0  0  0  0  0  0  0  0  0  0
    6.3378   -0.0508  -18.8153 H   0  0  0  0  0  0  0  0  0  0  0  0
    8.5948   -0.6431  -18.4028 H   0  0  0  0  0  0  0  0  0  0  0  0
   10.4871   -0.9472  -16.8785 H   0  0  0  0  0  0  0  0  0  0  0  0
   11.4160    0.9796  -15.6161 H   0  0  0  0  0  0  0  0  0  0  0  0
   10.1741    4.5146  -16.0275 H   0  0  0  0  0  0  0  0  0  0  0  0
   11.6242    3.6093  -15.6923 H   0  0  0  0  0  0  0  0  0  0  0  0
   10.6169    4.3026  -13.5771 H   0  0  0  0  0  0  0  0  0  0  0  0
   10.5487    2.5756  -13.6856 H   0  0  0  0  0  0  0  0  0  0  0  0
    8.3356    1.5187  -14.7290 H   0  0  0  0  0  0  0  0  0  0  0  0
    5.9194    1.4363  -14.2958 H   0  0  0  0  0  0  0  0  0  0  0  0
    4.7897    3.3259  -13.1346 H   0  0  0  0  0  0  0  0  0  0  0  0
    6.0627    5.2656  -12.4075 H   0  0  0  0  0  0  0  0  0  0  0  0
    7.3828    7.1009  -12.5171 H   0  0  0  0  0  0  0  0  0  0  0  0
    7.6052    6.1350  -11.0770 H   0  0  0  0  0  0  0  0  0  0  0  0
    9.6660    8.0796  -12.2361 H   0  0  0  0  0  0  0  0  0  0  0  0
    8.4933    8.5214  -11.0211 H   0  0  0  0  0  0  0  0  0  0  0  0
   11.3389    8.8332  -10.8591 H   0  0  0  0  0  0  0  0  0  0  0  0
   10.1897    9.2500   -9.6013 H   0  0  0  0  0  0  0  0  0  0  0  0
   12.5917    7.3744   -9.3381 H   0  0  0  0  0  0  0  0  0  0  0  0
   12.4735    8.9683   -8.6470 H   0  0  0  0  0  0  0  0  0  0  0  0
   11.0470   10.1265   -7.2441 H   0  0  0  0  0  0  0  0  0  0  0  0
   11.2511   11.2171   -5.0460 H   0  0  0  0  0  0  0  0  0  0  0  0
   11.7492    9.8562   -3.0144 H   0  0  0  0  0  0  0  0  0  0  0  0
   11.5349    6.2637   -5.3790 H   0  0  0  0  0  0  0  0  0  0  0  0
   10.8845    5.5293   -8.3377 H   0  0  0  0  0  0  0  0  0  0  0  0
    9.7800    6.1237   -7.1147 H   0  0  0  0  0  0  0  0  0  0  0  0
    8.6693    7.6266   -8.7443 H   0  0  0  0  0  0  0  0  0  0  0  0
    8.6846    5.9747   -9.3230 H   0  0  0  0  0  0  0  0  0  0  0  0
    8.5271    3.5780  -17.4820 H   0  0  0  0  0  0  0  0  0  0  0  0
  2  1  1  0
  3  2  1  0
  4  3  1  0
  5  4  2  0
  6  5  1  0
  7  6  2  0
  8  7  1  0
  9  8  1  0
 10  9  1  0
 11 10  2  0
 12 11  1  0
 13 12  2  0
 14 13  1  0
 15 10  1  0
 15 14  2  0
 16 15  1  0
 17 16  1  0
 18 17  1  0
 19 18  1  0
 20 19  1  0
 21 20  1  0
 22 21  1  0
 23 22  1  0
 24 23  2  0
 25 24  1  0
 26 25  2  0
 27 26  1  0
 28 27  1  0
 29 23  1  0
 29 27  2  0
 30 22  1  0
 31 19  1  0
 31 30  1  0
 32  3  2  0
 32  7  1  0
 33  1  1  0
 34  1  1  0
 35  1  1  0
 36  4  1  0
 37  5  1  0
 38  6  1  0
 39  8  1  0
 40  8  1  0
 41  9  1  0
 42  9  1  0
 43 11  1  0
 44 12  1  0
 45 13  1  0
 46 14  1  0
 47 17  1  0
 48 17  1  0
 49 18  1  0
 50 18  1  0
 51 20  1  0
 52 20  1  0
 53 21  1  0
 54 21  1  0
 55 24  1  0
 56 25  1  0
 57 26  1  0
 58 29  1  0
 59 30  1  0
 60 30  1  0
 61 31  1  0
 62 31  1  0
 63 32  1  0
M  END
>  <b_m_subgroup_collapsed>  (748) 
0

>  <r_i_docking_score>  (748) 
-7.4175792064778596

>  <s_m_subgroup_title>  (748) 
glide-dock_SP_D22_pv

>  <s_m_subgroupid>  (748) 
glide-dock_SP_D22_pv

>  <Molecule ChEMBL ID>  (748) 
CHEMBL515853

>  <Standard Type>  (748) 
Ki

>  <Standard Value>  (748) 
1000000.0

>  <label>  (748) 
0

$$$$
CHEMBL596866
     RDKit          3D

 53 56  0  0  1  0  0  0  0  0999 V2000
   12.4859    9.1244   -3.5122 C   0  0  0  0  0  0  0  0  0  0  0  0
   12.1353    8.4959   -4.6469 C   0  0  0  0  0  0  0  0  0  0  0  0
   11.7201    7.0274   -4.6182 C   0  0  0  0  0  0  0  0  0  0  0  0
   12.1415    9.2349   -5.9931 C   0  0  0  0  0  0  0  0  0  0  0  0
   11.3195    8.5987   -7.1148 C   0  0  0  0  0  0  0  0  0  0  0  0
    9.9775    8.3147   -6.8216 C   0  0  0  0  0  0  0  0  0  0  0  0
    9.1863    7.6569   -7.7575 C   0  0  0  0  0  0  0  0  0  0  0  0
    9.6995    7.3703   -9.0308 C   0  0  0  0  0  0  0  0  0  0  0  0
   11.0051    7.7297   -9.4243 C   0  0  0  0  0  0  0  0  0  0  0  0
   11.8387    8.3085   -8.4119 C   0  0  0  0  0  0  0  0  0  0  0  0
   13.1578    8.5722   -8.6465 O   0  0  0  0  0  0  0  0  0  0  0  0
   11.3745    7.4556  -10.8561 C   0  0  0  0  0  0  0  0  0  0  0  0
   12.4859    8.0541  -11.4967 C   0  0  0  0  0  0  0  0  0  0  0  0
   12.8538    7.7724  -12.8279 C   0  0  0  0  0  0  0  0  0  0  0  0
   12.1210    6.8641  -13.6008 C   0  0  0  0  0  0  0  0  0  0  0  0
   11.0082    6.2243  -13.0447 C   0  0  0  0  0  0  0  0  0  0  0  0
   10.6350    6.5724  -11.7124 C   0  0  0  0  0  0  0  0  0  0  0  0
    9.4541    5.8591  -11.0523 C   0  0  1  0  0  0  0  0  0  0  0  0
    8.7799    6.7570  -10.0348 C   0  0  0  0  0  0  0  0  0  0  0  0
    8.4845    5.2297  -11.9927 N   0  0  1  0  0  0  0  0  0  0  0  0
    7.5266    6.1308  -12.7045 C   0  0  0  0  0  0  0  0  0  0  0  0
    6.0621    5.7194  -12.4917 C   0  0  0  0  0  0  0  0  0  0  0  0
    5.7005    4.3591  -13.1074 C   0  0  0  0  0  0  0  0  0  0  0  0
    9.2281    4.3385  -12.9028 C   0  0  0  0  0  0  0  0  0  0  0  0
   10.1884    5.1605  -13.7728 C   0  0  0  0  0  0  0  0  0  0  0  0
   12.4804    8.6099   -2.5624 H   0  0  0  0  0  0  0  0  0  0  0  0
   12.7828   10.1622   -3.5069 H   0  0  0  0  0  0  0  0  0  0  0  0
   12.1010    6.4765   -5.4759 H   0  0  0  0  0  0  0  0  0  0  0  0
   10.6369    6.9244   -4.6421 H   0  0  0  0  0  0  0  0  0  0  0  0
   12.0775    6.5318   -3.7143 H   0  0  0  0  0  0  0  0  0  0  0  0
   11.7596   10.2441   -5.8334 H   0  0  0  0  0  0  0  0  0  0  0  0
   13.1776    9.3724   -6.2994 H   0  0  0  0  0  0  0  0  0  0  0  0
    9.5624    8.5572   -5.8549 H   0  0  0  0  0  0  0  0  0  0  0  0
    8.1680    7.4054   -7.5011 H   0  0  0  0  0  0  0  0  0  0  0  0
   13.3248    9.2384   -9.3068 H   0  0  0  0  0  0  0  0  0  0  0  0
   13.0910    8.7860  -10.9958 H   0  0  0  0  0  0  0  0  0  0  0  0
   13.7029    8.2726  -13.2631 H   0  0  0  0  0  0  0  0  0  0  0  0
   12.4295    6.6447  -14.6128 H   0  0  0  0  0  0  0  0  0  0  0  0
    9.8942    5.0375  -10.4840 H   0  0  0  0  0  0  0  0  0  0  0  0
    7.9383    6.2528   -9.5562 H   0  0  0  0  0  0  0  0  0  0  0  0
    8.4859    7.6581  -10.5585 H   0  0  0  0  0  0  0  0  0  0  0  0
    7.6524    7.1747  -12.4252 H   0  0  0  0  0  0  0  0  0  0  0  0
    7.7002    6.1169  -13.7758 H   0  0  0  0  0  0  0  0  0  0  0  0
    5.8167    5.7278  -11.4339 H   0  0  0  0  0  0  0  0  0  0  0  0
    5.4220    6.4800  -12.9422 H   0  0  0  0  0  0  0  0  0  0  0  0
    4.6312    4.1648  -13.0218 H   0  0  0  0  0  0  0  0  0  0  0  0
    6.2205    3.5418  -12.6078 H   0  0  0  0  0  0  0  0  0  0  0  0
    5.9514    4.3233  -14.1682 H   0  0  0  0  0  0  0  0  0  0  0  0
    9.7892    3.6122  -12.3118 H   0  0  0  0  0  0  0  0  0  0  0  0
    8.5460    3.7595  -13.5261 H   0  0  0  0  0  0  0  0  0  0  0  0
    9.6570    5.6490  -14.5886 H   0  0  0  0  0  0  0  0  0  0  0  0
   10.8849    4.4773  -14.2607 H   0  0  0  0  0  0  0  0  0  0  0  0
    7.9003    4.6440  -11.4120 H   0  0  0  0  0  0  0  0  0  0  0  0
  2  1  2  0
  3  2  1  0
  4  2  1  0
  5  4  1  0
  6  5  2  0
  7  6  1  0
  8  7  2  0
  9  8  1  0
 10  5  1  0
 10  9  2  0
 11 10  1  0
 12  9  1  0
 13 12  1  0
 14 13  2  0
 15 14  1  0
 16 15  2  0
 17 12  2  0
 17 16  1  0
 18 17  1  0
 19  8  1  0
 19 18  1  0
 20 18  1  0
 21 20  1  0
 22 21  1  0
 23 22  1  0
 24 20  1  0
 25 16  1  0
 25 24  1  0
 26  1  1  0
 27  1  1  0
 28  3  1  0
 29  3  1  0
 30  3  1  0
 31  4  1  0
 32  4  1  0
 33  6  1  0
 34  7  1  0
 35 11  1  0
 36 13  1  0
 37 14  1  0
 38 15  1  0
 18 39  1  1
 40 19  1  0
 41 19  1  0
 42 21  1  0
 43 21  1  0
 44 22  1  0
 45 22  1  0
 46 23  1  0
 47 23  1  0
 48 23  1  0
 49 24  1  0
 50 24  1  0
 51 25  1  0
 52 25  1  0
 20 53  1  1
M  CHG  1  20   1
M  END
>  <b_m_subgroup_collapsed>  (749) 
0

>  <r_i_docking_score>  (749) 
-7.4171368231363601

>  <s_m_subgroup_title>  (749) 
glide-dock_SP_D22_pv

>  <s_m_subgroupid>  (749) 
glide-dock_SP_D22_pv

>  <Molecule ChEMBL ID>  (749) 
CHEMBL596866

>  <Standard Type>  (749) 
Ki

>  <Standard Value>  (749) 
10000.0

>  <label>  (749) 
0

$$$$
CHEMBL104497
     RDKit          3D

 57 60  0  0  1  0  0  0  0  0999 V2000
    7.3825    2.1174  -15.0147 C   0  0  0  0  0  0  0  0  0  0  0  0
    8.8000    2.0740  -14.4096 C   0  0  1  0  0  0  0  0  0  0  0  0
    9.7595    1.2761  -15.3181 C   0  0  0  0  0  0  0  0  0  0  0  0
   10.7478    2.3105  -15.7565 C   0  0  0  0  0  0  0  0  0  0  0  0
   11.7449    2.1386  -16.7316 C   0  0  0  0  0  0  0  0  0  0  0  0
   12.5681    3.2376  -17.0466 C   0  0  0  0  0  0  0  0  0  0  0  0
   12.3867    4.4715  -16.3860 C   0  0  0  0  0  0  0  0  0  0  0  0
   11.3749    4.6292  -15.4148 C   0  0  0  0  0  0  0  0  0  0  0  0
   10.5462    3.5242  -15.1016 C   0  0  0  0  0  0  0  0  0  0  0  0
    9.4194    3.4110  -14.2312 N   0  0  0  0  0  0  0  0  0  0  0  0
    8.9776    4.2793  -13.2777 C   0  0  0  0  0  0  0  0  0  0  0  0
    7.8732    4.1509  -12.7495 O   0  0  0  0  0  0  0  0  0  0  0  0
    9.8413    5.4659  -12.8189 C   0  0  0  0  0  0  0  0  0  0  0  0
    9.3285    6.2266  -11.5708 C   0  0  1  0  0  0  0  0  0  0  0  0
    9.4455    5.4231  -10.2621 C   0  0  0  0  0  0  0  0  0  0  0  0
    8.8770    6.2181   -9.0819 C   0  0  0  0  0  0  0  0  0  0  0  0
    9.5646    7.5341   -8.9304 N   0  0  2  0  0  0  0  0  0  0  0  0
    9.1095    8.3022   -7.7429 C   0  0  0  0  0  0  0  0  0  0  0  0
   10.1057    8.2153   -6.5945 C   0  0  0  0  0  0  0  0  0  0  0  0
   10.3753    6.9720   -5.9970 C   0  0  0  0  0  0  0  0  0  0  0  0
   11.1792    6.8749   -4.8520 C   0  0  0  0  0  0  0  0  0  0  0  0
   11.6917    8.0361   -4.2410 C   0  0  0  0  0  0  0  0  0  0  0  0
   12.3707    7.9412   -2.9343 N   0  0  0  0  0  0  0  0  0  0  0  0
   12.7575    8.9725   -2.3992 O   0  0  0  0  0  0  0  0  0  0  0  0
   12.4860    6.8319   -2.4249 O   0  0  0  0  0  0  0  0  0  0  0  0
   11.4925    9.2807   -4.8810 C   0  0  0  0  0  0  0  0  0  0  0  0
   10.7180    9.3701   -6.0586 C   0  0  0  0  0  0  0  0  0  0  0  0
    9.5133    8.3395  -10.1777 C   0  0  0  0  0  0  0  0  0  0  0  0
   10.0716    7.5595  -11.3811 C   0  0  0  0  0  0  0  0  0  0  0  0
    6.9832    1.1081  -15.1250 H   0  0  0  0  0  0  0  0  0  0  0  0
    6.6772    2.6675  -14.3923 H   0  0  0  0  0  0  0  0  0  0  0  0
    7.3905    2.5721  -16.0073 H   0  0  0  0  0  0  0  0  0  0  0  0
    8.7638    1.5668  -13.4472 H   0  0  0  0  0  0  0  0  0  0  0  0
    9.2627    0.8246  -16.1789 H   0  0  0  0  0  0  0  0  0  0  0  0
   10.2724    0.4882  -14.7619 H   0  0  0  0  0  0  0  0  0  0  0  0
   11.8779    1.1886  -17.2274 H   0  0  0  0  0  0  0  0  0  0  0  0
   13.3484    3.1316  -17.7863 H   0  0  0  0  0  0  0  0  0  0  0  0
   13.0245    5.3071  -16.6319 H   0  0  0  0  0  0  0  0  0  0  0  0
   11.2699    5.6023  -14.9748 H   0  0  0  0  0  0  0  0  0  0  0  0
   10.8652    5.1355  -12.6505 H   0  0  0  0  0  0  0  0  0  0  0  0
    9.8331    6.1723  -13.6407 H   0  0  0  0  0  0  0  0  0  0  0  0
    8.2734    6.4676  -11.7274 H   0  0  0  0  0  0  0  0  0  0  0  0
    8.9137    4.4760  -10.3414 H   0  0  0  0  0  0  0  0  0  0  0  0
   10.4858    5.1840  -10.0540 H   0  0  0  0  0  0  0  0  0  0  0  0
    8.9793    5.6184   -8.1823 H   0  0  0  0  0  0  0  0  0  0  0  0
    7.8068    6.3448   -9.2229 H   0  0  0  0  0  0  0  0  0  0  0  0
    8.9568    9.3533   -7.9947 H   0  0  0  0  0  0  0  0  0  0  0  0
    8.1395    7.9444   -7.3937 H   0  0  0  0  0  0  0  0  0  0  0  0
    9.9229    6.0695   -6.3664 H   0  0  0  0  0  0  0  0  0  0  0  0
   11.3197    5.9041   -4.3990 H   0  0  0  0  0  0  0  0  0  0  0  0
   11.9040   10.1743   -4.4407 H   0  0  0  0  0  0  0  0  0  0  0  0
   10.5435   10.3367   -6.5070 H   0  0  0  0  0  0  0  0  0  0  0  0
   10.0960    9.2523  -10.0418 H   0  0  0  0  0  0  0  0  0  0  0  0
    8.4862    8.6484  -10.3785 H   0  0  0  0  0  0  0  0  0  0  0  0
   11.1383    7.3751  -11.2421 H   0  0  0  0  0  0  0  0  0  0  0  0
    9.9798    8.1721  -12.2772 H   0  0  0  0  0  0  0  0  0  0  0  0
   10.5401    7.3310   -8.7697 H   0  0  0  0  0  0  0  0  0  0  0  0
  2  1  1  0
  3  2  1  0
  4  3  1  0
  5  4  2  0
  6  5  1  0
  7  6  2  0
  8  7  1  0
  9  4  1  0
  9  8  2  0
 10  2  1  0
 10  9  1  0
 11 10  1  0
 12 11  2  0
 13 11  1  0
 14 13  1  0
 15 14  1  0
 16 15  1  0
 17 16  1  0
 18 17  1  0
 19 18  1  0
 20 19  1  0
 21 20  2  0
 22 21  1  0
 23 22  1  0
 24 23  2  0
 25 23  1  0
 26 22  2  0
 27 19  2  0
 27 26  1  0
 28 17  1  0
 29 14  1  0
 29 28  1  0
 30  1  1  0
 31  1  1  0
 32  1  1  0
  2 33  1  1
 34  3  1  0
 35  3  1  0
 36  5  1  0
 37  6  1  0
 38  7  1  0
 39  8  1  0
 40 13  1  0
 41 13  1  0
 14 42  1  6
 43 15  1  0
 44 15  1  0
 45 16  1  0
 46 16  1  0
 47 18  1  0
 48 18  1  0
 49 20  1  0
 50 21  1  0
 51 26  1  0
 52 27  1  0
 53 28  1  0
 54 28  1  0
 55 29  1  0
 56 29  1  0
 17 57  1  1
M  CHG  3  17   1  23   1  25  -1
M  END
>  <b_m_subgroup_collapsed>  (750) 
0

>  <r_i_docking_score>  (750) 
-7.4123856424389496

>  <s_m_subgroup_title>  (750) 
glide-dock_SP_D22_pv

>  <s_m_subgroupid>  (750) 
glide-dock_SP_D22_pv

>  <Molecule ChEMBL ID>  (750) 
CHEMBL104497

>  <Standard Type>  (750) 
Ki

>  <Standard Value>  (750) 
10000.0

>  <label>  (750) 
0

$$$$
CHEMBL169193
     RDKit          3D

 57 59  0  0  1  0  0  0  0  0999 V2000
    5.5624    0.0183  -14.2514 C   0  0  0  0  0  0  0  0  0  0  0  0
    6.7790    0.4028  -14.9502 N   0  0  0  0  0  0  0  0  0  0  0  0
    7.4818    1.5394  -14.5184 C   0  0  0  0  0  0  0  0  0  0  0  0
    6.8235    2.6467  -13.9318 C   0  0  0  0  0  0  0  0  0  0  0  0
    7.5483    3.7695  -13.4487 C   0  0  0  0  0  0  0  0  0  0  0  0
    6.9268    4.8536  -12.8659 O   0  0  0  0  0  0  0  0  0  0  0  0
    5.6241    4.6714  -12.3386 C   0  0  0  0  0  0  0  0  0  0  0  0
    8.9641    3.7749  -13.5694 C   0  0  0  0  0  0  0  0  0  0  0  0
    9.8124    4.9190  -13.0788 C   0  0  0  0  0  0  0  0  0  0  0  0
   10.8515    5.2136  -13.6710 O   0  0  0  0  0  0  0  0  0  0  0  0
    9.4172    5.5513  -11.9596 N   0  0  0  0  0  0  0  0  0  0  0  0
   10.0858    6.7511  -11.4752 C   0  0  0  0  0  0  0  0  0  0  0  0
    9.5671    7.2913  -10.1255 C   0  0  1  0  0  0  0  0  0  0  0  0
    9.7972    6.4341   -8.8593 C   0  0  0  0  0  0  0  0  0  0  0  0
   10.3194    7.3579   -7.8144 N   0  0  2  0  0  0  0  0  0  0  0  0
    9.9179    7.0731   -6.4199 C   0  0  0  0  0  0  0  0  0  0  0  0
   10.8795    7.6613   -5.3831 C   0  0  0  0  0  0  0  0  0  0  0  0
   10.8869    9.0425   -5.0835 C   0  0  0  0  0  0  0  0  0  0  0  0
   11.6749    9.5297   -4.0210 C   0  0  0  0  0  0  0  0  0  0  0  0
   12.4483    8.6603   -3.2363 C   0  0  0  0  0  0  0  0  0  0  0  0
   12.4506    7.2890   -3.5296 C   0  0  0  0  0  0  0  0  0  0  0  0
   11.6859    6.8021   -4.6077 C   0  0  0  0  0  0  0  0  0  0  0  0
   10.0035    8.7229   -8.2661 C   0  0  0  0  0  0  0  0  0  0  0  0
   10.1815    8.6551   -9.7706 C   0  0  1  0  0  0  0  0  0  0  0  0
   11.6797    8.8066  -10.1177 C   0  0  0  0  0  0  0  0  0  0  0  0
    9.6097    2.6892  -14.2028 C   0  0  0  0  0  0  0  0  0  0  0  0
    8.8851    1.5762  -14.6636 C   0  0  0  0  0  0  0  0  0  0  0  0
    9.7440    0.2554  -15.3801 Cl  0  0  0  0  0  0  0  0  0  0  0  0
    5.3722   -1.0441  -14.4057 H   0  0  0  0  0  0  0  0  0  0  0  0
    5.6488    0.1912  -13.1778 H   0  0  0  0  0  0  0  0  0  0  0  0
    4.7041    0.5725  -14.6307 H   0  0  0  0  0  0  0  0  0  0  0  0
    7.3366   -0.3637  -15.3107 H   0  0  0  0  0  0  0  0  0  0  0  0
    5.7481    2.6218  -13.8544 H   0  0  0  0  0  0  0  0  0  0  0  0
    5.3577    5.5426  -11.7394 H   0  0  0  0  0  0  0  0  0  0  0  0
    4.8860    4.5757  -13.1359 H   0  0  0  0  0  0  0  0  0  0  0  0
    5.5707    3.7963  -11.6891 H   0  0  0  0  0  0  0  0  0  0  0  0
    8.5341    5.2835  -11.5454 H   0  0  0  0  0  0  0  0  0  0  0  0
    9.9476    7.5233  -12.2345 H   0  0  0  0  0  0  0  0  0  0  0  0
   11.1580    6.5724  -11.4204 H   0  0  0  0  0  0  0  0  0  0  0  0
    8.4872    7.4320  -10.2176 H   0  0  0  0  0  0  0  0  0  0  0  0
   10.5028    5.6218   -9.0312 H   0  0  0  0  0  0  0  0  0  0  0  0
    8.8518    5.9866   -8.5455 H   0  0  0  0  0  0  0  0  0  0  0  0
    9.8886    5.9939   -6.2878 H   0  0  0  0  0  0  0  0  0  0  0  0
    8.9012    7.4273   -6.2413 H   0  0  0  0  0  0  0  0  0  0  0  0
   10.2559    9.7311   -5.6243 H   0  0  0  0  0  0  0  0  0  0  0  0
   11.6729   10.5727   -3.7708 H   0  0  0  0  0  0  0  0  0  0  0  0
   13.0297    9.0464   -2.4112 H   0  0  0  0  0  0  0  0  0  0  0  0
   13.0357    6.6058   -2.9316 H   0  0  0  0  0  0  0  0  0  0  0  0
   11.6864    5.7486   -4.8105 H   0  0  0  0  0  0  0  0  0  0  0  0
    8.9680    8.9737   -8.0224 H   0  0  0  0  0  0  0  0  0  0  0  0
   10.6549    9.4678   -7.8112 H   0  0  0  0  0  0  0  0  0  0  0  0
    9.6062    9.4434  -10.2469 H   0  0  0  0  0  0  0  0  0  0  0  0
   12.2939    8.0438   -9.6387 H   0  0  0  0  0  0  0  0  0  0  0  0
   11.8732    8.7449  -11.1846 H   0  0  0  0  0  0  0  0  0  0  0  0
   12.0519    9.7721   -9.7905 H   0  0  0  0  0  0  0  0  0  0  0  0
   10.6848    2.6900  -14.3127 H   0  0  0  0  0  0  0  0  0  0  0  0
   11.3245    7.2722   -7.8525 H   0  0  0  0  0  0  0  0  0  0  0  0
  2  1  1  0
  3  2  1  0
  4  3  2  0
  5  4  1  0
  6  5  1  0
  7  6  1  0
  8  5  2  0
  9  8  1  0
 10  9  2  0
 11  9  1  0
 12 11  1  0
 13 12  1  0
 14 13  1  0
 15 14  1  0
 16 15  1  0
 17 16  1  0
 18 17  2  0
 19 18  1  0
 20 19  2  0
 21 20  1  0
 22 17  1  0
 22 21  2  0
 23 15  1  0
 24 13  1  0
 24 23  1  0
 25 24  1  0
 26  8  1  0
 27  3  1  0
 27 26  2  0
 28 27  1  0
 29  1  1  0
 30  1  1  0
 31  1  1  0
 32  2  1  0
 33  4  1  0
 34  7  1  0
 35  7  1  0
 36  7  1  0
 37 11  1  0
 38 12  1  0
 39 12  1  0
 13 40  1  6
 41 14  1  0
 42 14  1  0
 43 16  1  0
 44 16  1  0
 45 18  1  0
 46 19  1  0
 47 20  1  0
 48 21  1  0
 49 22  1  0
 50 23  1  0
 51 23  1  0
 24 52  1  6
 53 25  1  0
 54 25  1  0
 55 25  1  0
 56 26  1  0
 15 57  1  1
M  CHG  1  15   1
M  END
>  <b_m_subgroup_collapsed>  (751) 
0

>  <r_i_docking_score>  (751) 
-7.4118804846176998

>  <s_m_subgroup_title>  (751) 
glide-dock_SP_D22_pv

>  <s_m_subgroupid>  (751) 
glide-dock_SP_D22_pv

>  <Molecule ChEMBL ID>  (751) 
CHEMBL169193

>  <Standard Type>  (751) 
Ki

>  <Standard Value>  (751) 
79.0

>  <label>  (751) 
1

$$$$
CHEMBL3084523
     RDKit          3D

 55 60  0  0  1  0  0  0  0  0999 V2000
   11.8501    7.5491   -9.7002 O   0  0  0  0  0  0  0  0  0  0  0  0
   10.5506    7.3718   -9.1754 C   0  0  1  0  0  0  0  0  0  0  0  0
   10.7051    7.6292   -7.6707 C   0  0  0  0  0  0  0  0  0  0  0  0
   10.8095    6.5791   -6.7346 C   0  0  0  0  0  0  0  0  0  0  0  0
   11.1673    6.8427   -5.3952 C   0  0  0  0  0  0  0  0  0  0  0  0
   11.4304    8.1597   -4.9740 C   0  0  0  0  0  0  0  0  0  0  0  0
   11.9840    8.4706   -3.3679 Cl  0  0  0  0  0  0  0  0  0  0  0  0
   11.2864    9.2202   -5.8836 C   0  0  0  0  0  0  0  0  0  0  0  0
   10.9329    8.9513   -7.2187 C   0  0  0  0  0  0  0  0  0  0  0  0
    9.5620    8.3774   -9.8209 C   0  0  0  0  0  0  0  0  0  0  0  0
    9.1266    7.9834  -11.2507 C   0  0  1  0  0  0  0  0  0  0  0  0
   10.3248    7.7749  -12.1486 C   0  0  0  0  0  0  0  0  0  0  0  0
   10.5567    6.2928  -12.2467 C   0  0  0  0  0  0  0  0  0  0  0  0
    9.6366    5.7630  -11.1052 C   0  0  1  0  0  0  0  0  0  0  0  0
   10.0858    5.9382   -9.5977 C   0  0  0  0  0  0  0  0  0  0  0  0
    8.4859    6.6564  -11.2843 N   0  0  2  0  0  0  0  0  0  0  0  0
    7.6735    6.4639  -12.5263 C   0  0  0  0  0  0  0  0  0  0  0  0
    6.9519    5.1521  -12.6113 C   0  0  0  0  0  0  0  0  0  0  0  0
    5.7603    4.8264  -12.0159 C   0  0  0  0  0  0  0  0  0  0  0  0
    5.2830    3.5682  -12.3027 O   0  0  0  0  0  0  0  0  0  0  0  0
    6.1728    3.0201  -13.1889 C   0  0  0  0  0  0  0  0  0  0  0  0
    7.1994    3.9605  -13.3522 C   0  0  0  0  0  0  0  0  0  0  0  0
    8.2797    3.6329  -14.2050 C   0  0  0  0  0  0  0  0  0  0  0  0
    8.2869    2.3845  -14.8731 C   0  0  0  0  0  0  0  0  0  0  0  0
    7.2184    1.4677  -14.7118 C   0  0  0  0  0  0  0  0  0  0  0  0
    7.1914    0.2471  -15.4162 C   0  0  0  0  0  0  0  0  0  0  0  0
    6.0946   -0.6276  -15.2706 C   0  0  0  0  0  0  0  0  0  0  0  0
    5.0354   -0.3106  -14.4011 C   0  0  0  0  0  0  0  0  0  0  0  0
    5.0651    0.8952  -13.6788 C   0  0  0  0  0  0  0  0  0  0  0  0
    6.1442    1.7846  -13.8469 C   0  0  0  0  0  0  0  0  0  0  0  0
   12.1677    8.4042   -9.4476 H   0  0  0  0  0  0  0  0  0  0  0  0
   10.6720    5.5582   -7.0481 H   0  0  0  0  0  0  0  0  0  0  0  0
   11.2767    6.0233   -4.6994 H   0  0  0  0  0  0  0  0  0  0  0  0
   11.4926   10.2337   -5.5721 H   0  0  0  0  0  0  0  0  0  0  0  0
   10.9019    9.7721   -7.9126 H   0  0  0  0  0  0  0  0  0  0  0  0
    8.6652    8.4420   -9.2020 H   0  0  0  0  0  0  0  0  0  0  0  0
    9.9819    9.3816   -9.8444 H   0  0  0  0  0  0  0  0  0  0  0  0
    8.4570    8.7543  -11.6371 H   0  0  0  0  0  0  0  0  0  0  0  0
   11.2248    8.2588  -11.8047 H   0  0  0  0  0  0  0  0  0  0  0  0
   10.0869    8.2903  -13.0469 H   0  0  0  0  0  0  0  0  0  0  0  0
   11.6340    6.1632  -12.2469 H   0  0  0  0  0  0  0  0  0  0  0  0
   10.2456    5.9095  -13.2162 H   0  0  0  0  0  0  0  0  0  0  0  0
    9.3609    4.7216  -11.2770 H   0  0  0  0  0  0  0  0  0  0  0  0
   10.8460    5.2183   -9.3240 H   0  0  0  0  0  0  0  0  0  0  0  0
    9.2247    5.6691   -8.9828 H   0  0  0  0  0  0  0  0  0  0  0  0
    6.9091    7.2422  -12.5503 H   0  0  0  0  0  0  0  0  0  0  0  0
    8.2352    6.5924  -13.4469 H   0  0  0  0  0  0  0  0  0  0  0  0
    5.1242    5.3877  -11.3488 H   0  0  0  0  0  0  0  0  0  0  0  0
    9.0897    4.3277  -14.3618 H   0  0  0  0  0  0  0  0  0  0  0  0
    9.1097    2.1422  -15.5299 H   0  0  0  0  0  0  0  0  0  0  0  0
    7.9990   -0.0207  -16.0819 H   0  0  0  0  0  0  0  0  0  0  0  0
    6.0748   -1.5557  -15.8238 H   0  0  0  0  0  0  0  0  0  0  0  0
    4.1983   -0.9863  -14.3028 H   0  0  0  0  0  0  0  0  0  0  0  0
    4.2346    1.1622  -13.0467 H   0  0  0  0  0  0  0  0  0  0  0  0
    7.8279    6.6240  -10.5102 H   0  0  0  0  0  0  0  0  0  0  0  0
  2  1  1  6
  3  2  1  0
  4  3  1  0
  5  4  2  0
  6  5  1  0
  7  6  1  0
  8  6  2  0
  9  3  2  0
  9  8  1  0
 10  2  1  0
 11 10  1  0
 12 11  1  0
 13 12  1  0
 14 13  1  0
 15  2  1  0
 15 14  1  0
 16 11  1  0
 16 14  1  0
 17 16  1  0
 18 17  1  0
 19 18  2  0
 20 19  1  0
 21 20  1  0
 22 18  1  0
 22 21  2  0
 23 22  1  0
 24 23  2  0
 25 24  1  0
 26 25  2  0
 27 26  1  0
 28 27  2  0
 29 28  1  0
 30 21  1  0
 30 25  1  0
 30 29  2  0
 31  1  1  0
 32  4  1  0
 33  5  1  0
 34  8  1  0
 35  9  1  0
 36 10  1  0
 37 10  1  0
 11 38  1  6
 39 12  1  0
 40 12  1  0
 41 13  1  0
 42 13  1  0
 14 43  1  6
 44 15  1  0
 45 15  1  0
 46 17  1  0
 47 17  1  0
 48 19  1  0
 49 23  1  0
 50 24  1  0
 51 26  1  0
 52 27  1  0
 53 28  1  0
 54 29  1  0
 16 55  1  1
M  CHG  1  16   1
M  END
>  <b_m_subgroup_collapsed>  (752) 
0

>  <r_i_docking_score>  (752) 
-7.4083496399403304

>  <s_m_subgroup_title>  (752) 
glide-dock_SP_D22_pv

>  <s_m_subgroupid>  (752) 
glide-dock_SP_D22_pv

>  <Molecule ChEMBL ID>  (752) 
CHEMBL3084523

>  <Standard Type>  (752) 
Ki

>  <Standard Value>  (752) 
5.6

>  <label>  (752) 
1

$$$$
CHEMBL3322994
     RDKit          3D

 56 59  0  0  1  0  0  0  0  0999 V2000
   11.6861    8.6037   -8.8501 O   0  0  0  0  0  0  0  0  0  0  0  0
   10.9242    8.0148   -8.0860 C   0  0  0  0  0  0  0  0  0  0  0  0
    9.9125    7.2280   -8.4867 N   0  0  0  0  0  0  0  0  0  0  0  0
    9.6126    6.8547   -9.8675 C   0  0  0  0  0  0  0  0  0  0  0  0
    9.3122    8.0704  -10.7607 C   0  0  0  0  0  0  0  0  0  0  0  0
    9.1080    7.7578  -12.2469 C   0  0  0  0  0  0  0  0  0  0  0  0
    7.8149    7.0280  -12.6911 C   0  0  0  0  0  0  0  0  0  0  0  0
    7.8227    5.5398  -12.6004 N   0  0  0  0  0  0  0  0  0  0  0  0
    8.8154    4.9329  -13.5389 C   0  0  0  0  0  0  0  0  0  0  0  0
    8.7431    3.4005  -13.5927 C   0  0  0  0  0  0  0  0  0  0  0  0
    7.3739    2.9723  -13.8469 N   0  0  0  0  0  0  0  0  0  0  0  0
    7.1260    1.9183  -14.7573 C   0  0  0  0  0  0  0  0  0  0  0  0
    7.7545    1.9828  -16.0246 C   0  0  0  0  0  0  0  0  0  0  0  0
    7.5128    1.0140  -17.0141 C   0  0  0  0  0  0  0  0  0  0  0  0
    6.6242   -0.0406  -16.7556 C   0  0  0  0  0  0  0  0  0  0  0  0
    6.0016   -0.1397  -15.4995 C   0  0  0  0  0  0  0  0  0  0  0  0
    4.8860   -1.4277  -15.2262 Cl  0  0  0  0  0  0  0  0  0  0  0  0
    6.2625    0.8140  -14.4884 C   0  0  0  0  0  0  0  0  0  0  0  0
    5.5125    0.5723  -12.9459 Cl  0  0  0  0  0  0  0  0  0  0  0  0
    6.3673    3.4690  -12.9131 C   0  0  0  0  0  0  0  0  0  0  0  0
    6.4408    4.9958  -12.7837 C   0  0  0  0  0  0  0  0  0  0  0  0
   11.0926    8.0889   -6.6170 C   0  0  0  0  0  0  0  0  0  0  0  0
   11.2860    6.9997   -5.8151 C   0  0  0  0  0  0  0  0  0  0  0  0
   11.6377    7.4929   -4.5761 N   0  0  0  0  0  0  0  0  0  0  0  0
   12.0240    6.8474   -3.4468 C   0  0  0  0  0  0  0  0  0  0  0  0
   12.3290    7.5689   -2.3253 C   0  0  0  0  0  0  0  0  0  0  0  0
   12.1995    8.9723   -2.3232 C   0  0  0  0  0  0  0  0  0  0  0  0
   11.7923    9.6300   -3.4589 C   0  0  0  0  0  0  0  0  0  0  0  0
   11.5353    8.9029   -4.6523 C   0  0  0  0  0  0  0  0  0  0  0  0
   11.2086    9.2713   -5.8900 N   0  0  0  0  0  0  0  0  0  0  0  0
    9.3258    6.8319   -7.7660 H   0  0  0  0  0  0  0  0  0  0  0  0
    8.7512    6.1864   -9.8523 H   0  0  0  0  0  0  0  0  0  0  0  0
   10.4523    6.2858  -10.2689 H   0  0  0  0  0  0  0  0  0  0  0  0
   10.1533    8.7602  -10.7295 H   0  0  0  0  0  0  0  0  0  0  0  0
    8.4860    8.6463  -10.3591 H   0  0  0  0  0  0  0  0  0  0  0  0
   10.0042    7.2869  -12.6469 H   0  0  0  0  0  0  0  0  0  0  0  0
    9.0759    8.7401  -12.7194 H   0  0  0  0  0  0  0  0  0  0  0  0
    7.6860    7.2532  -13.7422 H   0  0  0  0  0  0  0  0  0  0  0  0
    6.9264    7.4650  -12.2469 H   0  0  0  0  0  0  0  0  0  0  0  0
    9.8286    5.2152  -13.2571 H   0  0  0  0  0  0  0  0  0  0  0  0
    8.6468    5.3234  -14.5441 H   0  0  0  0  0  0  0  0  0  0  0  0
    9.0823    2.9808  -12.6469 H   0  0  0  0  0  0  0  0  0  0  0  0
    9.4388    3.0227  -14.3414 H   0  0  0  0  0  0  0  0  0  0  0  0
    8.4152    2.8019  -16.2673 H   0  0  0  0  0  0  0  0  0  0  0  0
    7.9973    1.0882  -17.9767 H   0  0  0  0  0  0  0  0  0  0  0  0
    6.4212   -0.7789  -17.5180 H   0  0  0  0  0  0  0  0  0  0  0  0
    5.3679    3.2094  -13.2637 H   0  0  0  0  0  0  0  0  0  0  0  0
    6.4860    3.0055  -11.9342 H   0  0  0  0  0  0  0  0  0  0  0  0
    5.8005    5.3333  -11.9666 H   0  0  0  0  0  0  0  0  0  0  0  0
    6.0002    5.3723  -13.7012 H   0  0  0  0  0  0  0  0  0  0  0  0
   11.3020    5.9381   -6.0111 H   0  0  0  0  0  0  0  0  0  0  0  0
   12.0860    5.7711   -3.4922 H   0  0  0  0  0  0  0  0  0  0  0  0
   12.6707    7.0423   -1.4469 H   0  0  0  0  0  0  0  0  0  0  0  0
   12.4259    9.5420   -1.4268 H   0  0  0  0  0  0  0  0  0  0  0  0
   11.6860   10.7053   -3.4500 H   0  0  0  0  0  0  0  0  0  0  0  0
    8.0941    5.2920  -11.6595 H   0  0  0  0  0  0  0  0  0  0  0  0
  2  1  2  0
  3  2  1  0
  4  3  1  0
  5  4  1  0
  6  5  1  0
  7  6  1  0
  8  7  1  0
  9  8  1  0
 10  9  1  0
 11 10  1  0
 12 11  1  0
 13 12  2  0
 14 13  1  0
 15 14  2  0
 16 15  1  0
 17 16  1  0
 18 12  1  0
 18 16  2  0
 19 18  1  0
 20 11  1  0
 21  8  1  0
 21 20  1  0
 22  2  1  0
 23 22  2  0
 24 23  1  0
 25 24  1  0
 26 25  2  0
 27 26  1  0
 28 27  2  0
 29 24  1  0
 29 28  1  0
 30 22  1  0
 30 29  2  0
 31  3  1  0
 32  4  1  0
 33  4  1  0
 34  5  1  0
 35  5  1  0
 36  6  1  0
 37  6  1  0
 38  7  1  0
 39  7  1  0
 40  9  1  0
 41  9  1  0
 42 10  1  0
 43 10  1  0
 44 13  1  0
 45 14  1  0
 46 15  1  0
 47 20  1  0
 48 20  1  0
 49 21  1  0
 50 21  1  0
 51 23  1  0
 52 25  1  0
 53 26  1  0
 54 27  1  0
 55 28  1  0
 56  8  1  0
M  CHG  1   8   1
M  END
>  <b_m_subgroup_collapsed>  (753) 
0

>  <r_i_docking_score>  (753) 
-7.4069156234015399

>  <s_m_subgroup_title>  (753) 
glide-dock_SP_D22_pv

>  <s_m_subgroupid>  (753) 
glide-dock_SP_D22_pv

>  <Molecule ChEMBL ID>  (753) 
CHEMBL3322994

>  <Standard Type>  (753) 
Ki

>  <Standard Value>  (753) 
12.0

>  <label>  (753) 
1

$$$$
CHEMBL485719
     RDKit          3D

 66 68  0  0  1  0  0  0  0  0999 V2000
    3.8603   -1.0186  -14.5213 C   0  0  0  0  0  0  0  0  0  0  0  0
    4.3089   -0.2046  -13.4472 O   0  0  0  0  0  0  0  0  0  0  0  0
    5.2952    0.7092  -13.7426 C   0  0  0  0  0  0  0  0  0  0  0  0
    5.2843    1.9359  -13.0464 C   0  0  0  0  0  0  0  0  0  0  0  0
    6.1912    2.9594  -13.3776 C   0  0  0  0  0  0  0  0  0  0  0  0
    7.1581    2.7379  -14.3726 C   0  0  0  0  0  0  0  0  0  0  0  0
    7.2126    1.5025  -15.0472 C   0  0  0  0  0  0  0  0  0  0  0  0
    8.2236    1.2993  -16.1563 C   0  0  0  0  0  0  0  0  0  0  0  0
    9.4644    0.5042  -15.7261 C   0  0  0  0  0  0  0  0  0  0  0  0
   10.4550    0.4360  -16.8753 C   0  0  0  0  0  0  0  0  0  0  0  0
   10.3313   -0.5995  -17.8215 C   0  0  0  0  0  0  0  0  0  0  0  0
   11.1703   -0.6289  -18.9487 C   0  0  0  0  0  0  0  0  0  0  0  0
   12.1419    0.3691  -19.1319 C   0  0  0  0  0  0  0  0  0  0  0  0
   12.2703    1.4058  -18.1885 C   0  0  0  0  0  0  0  0  0  0  0  0
   11.4285    1.4487  -17.0493 C   0  0  0  0  0  0  0  0  0  0  0  0
   11.5063    2.4276  -16.0853 O   0  0  0  0  0  0  0  0  0  0  0  0
   12.1372    3.6585  -16.4066 C   0  0  0  0  0  0  0  0  0  0  0  0
   12.0547    4.5682  -15.1748 C   0  0  0  0  0  0  0  0  0  0  0  0
   10.6182    4.7869  -14.6658 C   0  0  0  0  0  0  0  0  0  0  0  0
   10.5962    5.5332  -13.3270 C   0  0  0  0  0  0  0  0  0  0  0  0
    9.2361    5.5005  -12.6176 C   0  0  0  0  0  0  0  0  0  0  0  0
    9.4382    5.8673  -11.2196 N   0  0  0  0  0  0  0  0  0  0  0  0
    8.3888    5.3090  -10.3693 C   0  0  0  0  0  0  0  0  0  0  0  0
    8.7741    5.5549   -8.8998 C   0  0  0  0  0  0  0  0  0  0  0  0
    8.8861    7.0082   -8.6470 N   0  0  0  0  0  0  0  0  0  0  0  0
    9.1322    7.3377   -7.2282 C   0  0  0  0  0  0  0  0  0  0  0  0
    9.8422    7.6434   -9.5830 C   0  0  0  0  0  0  0  0  0  0  0  0
    9.4576    7.3210  -11.0397 C   0  0  0  0  0  0  0  0  0  0  0  0
    6.2868    0.4868  -14.7298 C   0  0  0  0  0  0  0  0  0  0  0  0
    2.8956   -1.4502  -14.2584 H   0  0  0  0  0  0  0  0  0  0  0  0
    3.7193   -0.4420  -15.4369 H   0  0  0  0  0  0  0  0  0  0  0  0
    4.5616   -1.8281  -14.7178 H   0  0  0  0  0  0  0  0  0  0  0  0
    4.5368    2.1180  -12.2897 H   0  0  0  0  0  0  0  0  0  0  0  0
    6.1483    3.9083  -12.8630 H   0  0  0  0  0  0  0  0  0  0  0  0
    7.8442    3.5281  -14.6382 H   0  0  0  0  0  0  0  0  0  0  0  0
    8.5299    2.2770  -16.5328 H   0  0  0  0  0  0  0  0  0  0  0  0
    7.7298    0.7970  -16.9897 H   0  0  0  0  0  0  0  0  0  0  0  0
    9.1822   -0.5073  -15.4274 H   0  0  0  0  0  0  0  0  0  0  0  0
    9.9307    0.9624  -14.8522 H   0  0  0  0  0  0  0  0  0  0  0  0
    9.5770   -1.3631  -17.6973 H   0  0  0  0  0  0  0  0  0  0  0  0
   11.0617   -1.4276  -19.6671 H   0  0  0  0  0  0  0  0  0  0  0  0
   12.7876    0.3436  -19.9977 H   0  0  0  0  0  0  0  0  0  0  0  0
   13.0291    2.1533  -18.3585 H   0  0  0  0  0  0  0  0  0  0  0  0
   13.1883    3.5052  -16.6533 H   0  0  0  0  0  0  0  0  0  0  0  0
   11.6460    4.1260  -17.2621 H   0  0  0  0  0  0  0  0  0  0  0  0
   12.6536    4.1206  -14.3814 H   0  0  0  0  0  0  0  0  0  0  0  0
   12.5183    5.5298  -15.3984 H   0  0  0  0  0  0  0  0  0  0  0  0
   10.0266    5.3219  -15.4086 H   0  0  0  0  0  0  0  0  0  0  0  0
   10.1395    3.8179  -14.5289 H   0  0  0  0  0  0  0  0  0  0  0  0
   11.3072    5.0495  -12.6623 H   0  0  0  0  0  0  0  0  0  0  0  0
   10.9428    6.5589  -13.4609 H   0  0  0  0  0  0  0  0  0  0  0  0
    8.4960    6.1355  -13.1061 H   0  0  0  0  0  0  0  0  0  0  0  0
    8.8582    4.4778  -12.6610 H   0  0  0  0  0  0  0  0  0  0  0  0
    7.4209    5.7548  -10.6078 H   0  0  0  0  0  0  0  0  0  0  0  0
    8.2977    4.2364  -10.5429 H   0  0  0  0  0  0  0  0  0  0  0  0
    8.0135    5.1284   -8.2458 H   0  0  0  0  0  0  0  0  0  0  0  0
    9.7159    5.0560   -8.6616 H   0  0  0  0  0  0  0  0  0  0  0  0
   10.1024    6.9621   -6.8986 H   0  0  0  0  0  0  0  0  0  0  0  0
    9.1049    8.4164   -7.0722 H   0  0  0  0  0  0  0  0  0  0  0  0
    8.3577    6.8969   -6.6003 H   0  0  0  0  0  0  0  0  0  0  0  0
    9.8401    8.7244   -9.4356 H   0  0  0  0  0  0  0  0  0  0  0  0
   10.8548    7.2931   -9.3735 H   0  0  0  0  0  0  0  0  0  0  0  0
   10.1880    7.7755  -11.7090 H   0  0  0  0  0  0  0  0  0  0  0  0
    8.4864    7.7515  -11.2927 H   0  0  0  0  0  0  0  0  0  0  0  0
    6.3328   -0.4479  -15.2699 H   0  0  0  0  0  0  0  0  0  0  0  0
    7.9628    7.3715   -8.8771 H   0  0  0  0  0  0  0  0  0  0  0  0
  2  1  1  0
  3  2  1  0
  4  3  1  0
  5  4  2  0
  6  5  1  0
  7  6  2  0
  8  7  1  0
  9  8  1  0
 10  9  1  0
 11 10  2  0
 12 11  1  0
 13 12  2  0
 14 13  1  0
 15 10  1  0
 15 14  2  0
 16 15  1  0
 17 16  1  0
 18 17  1  0
 19 18  1  0
 20 19  1  0
 21 20  1  0
 22 21  1  0
 23 22  1  0
 24 23  1  0
 25 24  1  0
 26 25  1  0
 27 25  1  0
 28 22  1  0
 28 27  1  0
 29  3  2  0
 29  7  1  0
 30  1  1  0
 31  1  1  0
 32  1  1  0
 33  4  1  0
 34  5  1  0
 35  6  1  0
 36  8  1  0
 37  8  1  0
 38  9  1  0
 39  9  1  0
 40 11  1  0
 41 12  1  0
 42 13  1  0
 43 14  1  0
 44 17  1  0
 45 17  1  0
 46 18  1  0
 47 18  1  0
 48 19  1  0
 49 19  1  0
 50 20  1  0
 51 20  1  0
 52 21  1  0
 53 21  1  0
 54 23  1  0
 55 23  1  0
 56 24  1  0
 57 24  1  0
 58 26  1  0
 59 26  1  0
 60 26  1  0
 61 27  1  0
 62 27  1  0
 63 28  1  0
 64 28  1  0
 65 29  1  0
 66 25  1  0
M  CHG  1  25   1
M  END
>  <b_m_subgroup_collapsed>  (754) 
0

>  <r_i_docking_score>  (754) 
-7.4068077294988504

>  <s_m_subgroup_title>  (754) 
glide-dock_SP_D22_pv

>  <s_m_subgroupid>  (754) 
glide-dock_SP_D22_pv

>  <Molecule ChEMBL ID>  (754) 
CHEMBL485719

>  <Standard Type>  (754) 
Ki

>  <Standard Value>  (754) 
1000000.0

>  <label>  (754) 
0

$$$$
CHEMBL4088639
     RDKit          3D

 58 61  0  0  1  0  0  0  0  0999 V2000
   11.9376   10.6347   -6.2468 C   0  0  0  0  0  0  0  0  0  0  0  0
   11.0358   10.2984   -5.2093 O   0  0  0  0  0  0  0  0  0  0  0  0
   11.4224    9.1857   -4.5098 C   0  0  0  0  0  0  0  0  0  0  0  0
   11.9810    9.3720   -3.2282 C   0  0  0  0  0  0  0  0  0  0  0  0
   12.3887    8.2694   -2.4596 C   0  0  0  0  0  0  0  0  0  0  0  0
   12.2417    6.9702   -2.9744 C   0  0  0  0  0  0  0  0  0  0  0  0
   11.6860    6.7784   -4.2523 C   0  0  0  0  0  0  0  0  0  0  0  0
   11.2701    7.8759   -5.0365 C   0  0  0  0  0  0  0  0  0  0  0  0
   10.6458    7.6367   -6.2755 N   0  0  0  0  0  0  0  0  0  0  0  0
    9.3963    8.2733   -6.6767 C   0  0  0  0  0  0  0  0  0  0  0  0
    9.5445    8.8937   -8.0797 C   0  0  0  0  0  0  0  0  0  0  0  0
   10.0169    7.9017   -9.0547 N   0  0  0  0  0  0  0  0  0  0  0  0
   10.2066    8.5562  -10.3496 C   0  0  0  0  0  0  0  0  0  0  0  0
   10.2177    7.5280  -11.4960 C   0  0  0  0  0  0  0  0  0  0  0  0
    8.7921    7.1432  -11.9125 C   0  0  0  0  0  0  0  0  0  0  0  0
    8.6998    5.8166  -12.6476 C   0  0  0  0  0  0  0  0  0  0  0  0
    9.6766    5.3725  -13.2505 O   0  0  0  0  0  0  0  0  0  0  0  0
    7.4875    5.2379  -12.5783 N   0  0  0  0  0  0  0  0  0  0  0  0
    7.0537    3.9772  -13.0602 C   0  0  0  0  0  0  0  0  0  0  0  0
    5.7675    3.5437  -12.6464 C   0  0  0  0  0  0  0  0  0  0  0  0
    5.2866    2.3149  -13.0271 C   0  0  0  0  0  0  0  0  0  0  0  0
    6.0612    1.5152  -13.8032 N   0  0  0  0  0  0  0  0  0  0  0  0
    5.7143    0.2661  -14.2501 N   0  0  0  0  0  0  0  0  0  0  0  0
    6.7576   -0.1150  -14.9549 C   0  0  0  0  0  0  0  0  0  0  0  0
    7.8154    0.8235  -14.9618 C   0  0  0  0  0  0  0  0  0  0  0  0
    9.1387    0.7539  -15.5567 C   0  0  0  0  0  0  0  0  0  0  0  0
    9.6138   -0.2162  -16.1422 O   0  0  0  0  0  0  0  0  0  0  0  0
    7.3429    1.8890  -14.2471 C   0  0  0  0  0  0  0  0  0  0  0  0
    7.8269    3.1671  -13.8737 C   0  0  0  0  0  0  0  0  0  0  0  0
   11.2885    7.3204   -8.5979 C   0  0  0  0  0  0  0  0  0  0  0  0
   11.1370    6.6473   -7.2198 C   0  0  0  0  0  0  0  0  0  0  0  0
   11.5471   11.4654   -6.8263 H   0  0  0  0  0  0  0  0  0  0  0  0
   12.8868   10.9617   -5.8473 H   0  0  0  0  0  0  0  0  0  0  0  0
   12.1372    9.8044   -6.9228 H   0  0  0  0  0  0  0  0  0  0  0  0
   12.0890   10.3692   -2.8295 H   0  0  0  0  0  0  0  0  0  0  0  0
   12.8083    8.4225   -1.4755 H   0  0  0  0  0  0  0  0  0  0  0  0
   12.5422    6.1161   -2.3858 H   0  0  0  0  0  0  0  0  0  0  0  0
   11.5563    5.7723   -4.6198 H   0  0  0  0  0  0  0  0  0  0  0  0
    9.0969    9.0323   -5.9613 H   0  0  0  0  0  0  0  0  0  0  0  0
    8.5989    7.5256   -6.6850 H   0  0  0  0  0  0  0  0  0  0  0  0
   10.2341    9.7329   -8.0485 H   0  0  0  0  0  0  0  0  0  0  0  0
    8.5805    9.2929   -8.4007 H   0  0  0  0  0  0  0  0  0  0  0  0
   11.1290    9.1415  -10.3442 H   0  0  0  0  0  0  0  0  0  0  0  0
    9.3931    9.2614  -10.5314 H   0  0  0  0  0  0  0  0  0  0  0  0
   10.7999    6.6433  -11.2365 H   0  0  0  0  0  0  0  0  0  0  0  0
   10.7158    7.9540  -12.3622 H   0  0  0  0  0  0  0  0  0  0  0  0
    8.3328    7.9336  -12.5080 H   0  0  0  0  0  0  0  0  0  0  0  0
    8.1767    7.0231  -11.0301 H   0  0  0  0  0  0  0  0  0  0  0  0
    6.8146    5.7462  -12.0199 H   0  0  0  0  0  0  0  0  0  0  0  0
    5.1615    4.1749  -12.0027 H   0  0  0  0  0  0  0  0  0  0  0  0
    4.3142    1.9338  -12.7376 H   0  0  0  0  0  0  0  0  0  0  0  0
    6.7393   -1.0675  -15.4546 H   0  0  0  0  0  0  0  0  0  0  0  0
    9.7211    1.6668  -15.4354 H   0  0  0  0  0  0  0  0  0  0  0  0
    8.8125    3.4512  -14.2187 H   0  0  0  0  0  0  0  0  0  0  0  0
   11.6259    6.5732   -9.3117 H   0  0  0  0  0  0  0  0  0  0  0  0
   12.0637    8.0874   -8.5509 H   0  0  0  0  0  0  0  0  0  0  0  0
   12.0917    6.2356   -6.8961 H   0  0  0  0  0  0  0  0  0  0  0  0
   10.4331    5.8157   -7.2747 H   0  0  0  0  0  0  0  0  0  0  0  0
  2  1  1  0
  3  2  1  0
  4  3  2  0
  5  4  1  0
  6  5  2  0
  7  6  1  0
  8  3  1  0
  8  7  2  0
  9  8  1  0
 10  9  1  0
 11 10  1  0
 12 11  1  0
 13 12  1  0
 14 13  1  0
 15 14  1  0
 16 15  1  0
 17 16  2  0
 18 16  1  0
 19 18  1  0
 20 19  1  0
 21 20  2  0
 22 21  1  0
 23 22  1  0
 24 23  2  0
 25 24  1  0
 26 25  1  0
 27 26  2  0
 28 22  1  0
 28 25  2  0
 29 19  2  0
 29 28  1  0
 30 12  1  0
 31  9  1  0
 31 30  1  0
 32  1  1  0
 33  1  1  0
 34  1  1  0
 35  4  1  0
 36  5  1  0
 37  6  1  0
 38  7  1  0
 39 10  1  0
 40 10  1  0
 41 11  1  0
 42 11  1  0
 43 13  1  0
 44 13  1  0
 45 14  1  0
 46 14  1  0
 47 15  1  0
 48 15  1  0
 49 18  1  0
 50 20  1  0
 51 21  1  0
 52 24  1  0
 53 26  1  0
 54 29  1  0
 55 30  1  0
 56 30  1  0
 57 31  1  0
 58 31  1  0
M  END
>  <b_m_subgroup_collapsed>  (755) 
0

>  <r_i_docking_score>  (755) 
-7.4053035185003298

>  <s_m_subgroup_title>  (755) 
glide-dock_SP_D22_pv

>  <s_m_subgroupid>  (755) 
glide-dock_SP_D22_pv

>  <Molecule ChEMBL ID>  (755) 
CHEMBL4088639

>  <Standard Type>  (755) 
Ki

>  <Standard Value>  (755) 
1.4

>  <label>  (755) 
1

$$$$
CHEMBL4473583
     RDKit          3D

 47 49  0  0  1  0  0  0  0  0999 V2000
   12.4864    9.4299   -7.0469 C   0  0  0  0  0  0  0  0  0  0  0  0
   11.4492    8.4244   -7.0069 N   0  0  0  0  0  0  0  0  0  0  0  0
   10.7320    7.9169   -8.0250 C   0  0  0  0  0  0  0  0  0  0  0  0
   10.9809    8.4486   -9.6890 S   0  0  0  0  0  0  0  0  0  0  0  0
    9.2862    8.2651  -10.3013 C   0  0  0  0  0  0  0  0  0  0  0  0
    8.9320    6.8032  -10.6388 C   0  0  0  0  0  0  0  0  0  0  0  0
    8.6146    6.6280  -12.1294 C   0  0  0  0  0  0  0  0  0  0  0  0
    8.0176    5.3042  -12.4299 N   0  0  0  0  0  0  0  0  0  0  0  0
    6.5427    5.3084  -12.2550 C   0  0  0  0  0  0  0  0  0  0  0  0
    5.9677    3.8987  -12.4393 C   0  0  0  0  0  0  0  0  0  0  0  0
    6.3286    3.3386  -13.8221 C   0  0  0  0  0  0  0  0  0  0  0  0
    7.8454    3.3963  -14.0609 C   0  0  0  0  0  0  0  0  0  0  0  0
    8.4199    4.7948  -13.7699 C   0  0  0  0  0  0  0  0  0  0  0  0
    9.8501    6.9950   -7.6397 N   0  0  0  0  0  0  0  0  0  0  0  0
    9.9937    6.8998   -6.2781 N   0  0  0  0  0  0  0  0  0  0  0  0
   10.9556    7.7634   -5.9457 C   0  0  0  0  0  0  0  0  0  0  0  0
   11.4244    7.9347   -4.5807 C   0  0  0  0  0  0  0  0  0  0  0  0
   11.6989    6.7984   -3.7941 C   0  0  0  0  0  0  0  0  0  0  0  0
   12.1820    6.9468   -2.4836 C   0  0  0  0  0  0  0  0  0  0  0  0
   12.3903    8.2316   -1.9511 C   0  0  0  0  0  0  0  0  0  0  0  0
   12.0875    9.3689   -2.7198 C   0  0  0  0  0  0  0  0  0  0  0  0
   11.6077    9.2234   -4.0316 C   0  0  0  0  0  0  0  0  0  0  0  0
   13.1000    9.3100   -7.9419 H   0  0  0  0  0  0  0  0  0  0  0  0
   12.0064   10.4056   -7.0468 H   0  0  0  0  0  0  0  0  0  0  0  0
   13.1475    9.3726   -6.1833 H   0  0  0  0  0  0  0  0  0  0  0  0
    8.5930    8.6655   -9.5595 H   0  0  0  0  0  0  0  0  0  0  0  0
    9.1810    8.9034  -11.1794 H   0  0  0  0  0  0  0  0  0  0  0  0
    9.7464    6.1321  -10.3630 H   0  0  0  0  0  0  0  0  0  0  0  0
    8.0869    6.4928  -10.0233 H   0  0  0  0  0  0  0  0  0  0  0  0
    7.9485    7.4195  -12.4833 H   0  0  0  0  0  0  0  0  0  0  0  0
    9.5596    6.7519  -12.6585 H   0  0  0  0  0  0  0  0  0  0  0  0
    6.2834    5.6869  -11.2652 H   0  0  0  0  0  0  0  0  0  0  0  0
    6.0865    5.9953  -12.9687 H   0  0  0  0  0  0  0  0  0  0  0  0
    6.3424    3.2427  -11.6539 H   0  0  0  0  0  0  0  0  0  0  0  0
    4.8843    3.9262  -12.3253 H   0  0  0  0  0  0  0  0  0  0  0  0
    5.9723    2.3111  -13.9155 H   0  0  0  0  0  0  0  0  0  0  0  0
    5.8146    3.9149  -14.5934 H   0  0  0  0  0  0  0  0  0  0  0  0
    8.3522    2.6537  -13.4473 H   0  0  0  0  0  0  0  0  0  0  0  0
    8.0697    3.1112  -15.0883 H   0  0  0  0  0  0  0  0  0  0  0  0
    8.0918    5.4970  -14.5355 H   0  0  0  0  0  0  0  0  0  0  0  0
    9.5072    4.7540  -13.8340 H   0  0  0  0  0  0  0  0  0  0  0  0
   11.5467    5.8073   -4.1999 H   0  0  0  0  0  0  0  0  0  0  0  0
   12.3929    6.0712   -1.8863 H   0  0  0  0  0  0  0  0  0  0  0  0
   12.7675    8.3489   -0.9488 H   0  0  0  0  0  0  0  0  0  0  0  0
   12.2110   10.3556   -2.3019 H   0  0  0  0  0  0  0  0  0  0  0  0
   11.3700   10.1039   -4.6093 H   0  0  0  0  0  0  0  0  0  0  0  0
    8.3902    4.6580  -11.7497 H   0  0  0  0  0  0  0  0  0  0  0  0
  2  1  1  0
  3  2  1  0
  4  3  1  0
  5  4  1  0
  6  5  1  0
  7  6  1  0
  8  7  1  0
  9  8  1  0
 10  9  1  0
 11 10  1  0
 12 11  1  0
 13  8  1  0
 13 12  1  0
 14  3  2  0
 15 14  1  0
 16  2  1  0
 16 15  2  0
 17 16  1  0
 18 17  2  0
 19 18  1  0
 20 19  2  0
 21 20  1  0
 22 17  1  0
 22 21  2  0
 23  1  1  0
 24  1  1  0
 25  1  1  0
 26  5  1  0
 27  5  1  0
 28  6  1  0
 29  6  1  0
 30  7  1  0
 31  7  1  0
 32  9  1  0
 33  9  1  0
 34 10  1  0
 35 10  1  0
 36 11  1  0
 37 11  1  0
 38 12  1  0
 39 12  1  0
 40 13  1  0
 41 13  1  0
 42 18  1  0
 43 19  1  0
 44 20  1  0
 45 21  1  0
 46 22  1  0
 47  8  1  0
M  CHG  1   8   1
M  END
>  <b_m_subgroup_collapsed>  (756) 
0

>  <r_i_docking_score>  (756) 
-7.4026420680967204

>  <s_m_subgroup_title>  (756) 
glide-dock_SP_D22_pv

>  <s_m_subgroupid>  (756) 
glide-dock_SP_D22_pv

>  <Molecule ChEMBL ID>  (756) 
CHEMBL4473583

>  <Standard Type>  (756) 
Ki

>  <Standard Value>  (756) 
98462.0

>  <label>  (756) 
0

$$$$
CHEMBL377756
     RDKit          3D

 62 66  0  0  1  0  0  0  0  0999 V2000
    4.6752   -1.5217  -15.9961 C   0  0  0  0  0  0  0  0  0  0  0  0
    5.9049   -0.9499  -15.4001 N   0  0  0  0  0  0  0  0  0  0  0  0
    5.6075   -0.1093  -14.2180 C   0  0  0  0  0  0  0  0  0  0  0  0
    6.8549    0.5838  -13.6315 C   0  0  0  0  0  0  0  0  0  0  0  0
    7.6609    1.2652  -14.6555 N   0  0  0  0  0  0  0  0  0  0  0  0
    8.3590    2.4841  -14.4959 C   0  0  0  0  0  0  0  0  0  0  0  0
    9.5809    2.5481  -14.9245 N   0  0  0  0  0  0  0  0  0  0  0  0
   10.4316    3.6545  -15.0315 C   0  0  0  0  0  0  0  0  0  0  0  0
   11.4115    3.5133  -16.0407 C   0  0  0  0  0  0  0  0  0  0  0  0
   12.4041    4.4858  -16.2490 C   0  0  0  0  0  0  0  0  0  0  0  0
   13.5717    4.2811  -17.5022 Cl  0  0  0  0  0  0  0  0  0  0  0  0
   12.4416    5.6215  -15.4294 C   0  0  0  0  0  0  0  0  0  0  0  0
   11.4799    5.7753  -14.4178 C   0  0  0  0  0  0  0  0  0  0  0  0
   10.4630    4.8117  -14.2061 C   0  0  0  0  0  0  0  0  0  0  0  0
    9.5423    5.0457  -13.1772 N   0  0  0  0  0  0  0  0  0  0  0  0
   10.0590    5.3391  -11.9050 N   0  0  0  0  0  0  0  0  0  0  0  0
   10.0579    6.5613  -11.3295 C   0  0  0  0  0  0  0  0  0  0  0  0
   10.0867    7.6218  -11.9525 O   0  0  0  0  0  0  0  0  0  0  0  0
    9.9189    6.5332   -9.8279 C   0  0  0  0  0  0  0  0  0  0  0  0
    8.9144    5.7163   -9.2254 C   0  0  0  0  0  0  0  0  0  0  0  0
    8.0860    4.8464   -9.9395 N   0  0  0  0  0  0  0  0  0  0  0  0
    8.6883    5.7724   -7.8470 C   0  0  0  0  0  0  0  0  0  0  0  0
    9.4528    6.6123   -7.0281 C   0  0  0  0  0  0  0  0  0  0  0  0
   10.4639    7.3985   -7.5956 C   0  0  0  0  0  0  0  0  0  0  0  0
   10.7129    7.3719   -8.9867 C   0  0  0  0  0  0  0  0  0  0  0  0
   11.8261    8.2803   -9.5050 C   0  0  0  0  0  0  0  0  0  0  0  0
   12.7273    8.5055   -8.5475 F   0  0  0  0  0  0  0  0  0  0  0  0
   12.4859    7.7724  -10.5428 F   0  0  0  0  0  0  0  0  0  0  0  0
   11.2864    9.4445   -9.8470 F   0  0  0  0  0  0  0  0  0  0  0  0
    8.1601    4.7953  -13.2535 C   0  0  0  0  0  0  0  0  0  0  0  0
    7.2936    5.7611  -12.6727 C   0  0  0  0  0  0  0  0  0  0  0  0
    5.9068    5.6022  -12.6590 C   0  0  0  0  0  0  0  0  0  0  0  0
    5.3416    4.5213  -13.3424 C   0  0  0  0  0  0  0  0  0  0  0  0
    6.1772    3.5730  -13.9376 C   0  0  0  0  0  0  0  0  0  0  0  0
    7.5908    3.6428  -13.8744 C   0  0  0  0  0  0  0  0  0  0  0  0
    7.9942    0.3669  -15.7644 C   0  0  0  0  0  0  0  0  0  0  0  0
    6.7325   -0.2378  -16.4015 C   0  0  0  0  0  0  0  0  0  0  0  0
    4.1339   -0.7760  -16.5799 H   0  0  0  0  0  0  0  0  0  0  0  0
    4.9158   -2.3600  -16.6518 H   0  0  0  0  0  0  0  0  0  0  0  0
    3.9951   -1.8754  -15.2220 H   0  0  0  0  0  0  0  0  0  0  0  0
    5.1441   -0.7239  -13.4480 H   0  0  0  0  0  0  0  0  0  0  0  0
    4.8641    0.6347  -14.5000 H   0  0  0  0  0  0  0  0  0  0  0  0
    7.4838   -0.1478  -13.1232 H   0  0  0  0  0  0  0  0  0  0  0  0
    6.4858    1.2674  -12.8687 H   0  0  0  0  0  0  0  0  0  0  0  0
   11.4113    2.6332  -16.6675 H   0  0  0  0  0  0  0  0  0  0  0  0
   13.2023    6.3748  -15.5732 H   0  0  0  0  0  0  0  0  0  0  0  0
   11.5287    6.6637  -13.8079 H   0  0  0  0  0  0  0  0  0  0  0  0
   10.0418    4.5386  -11.2859 H   0  0  0  0  0  0  0  0  0  0  0  0
    7.1935    4.5918   -9.5025 H   0  0  0  0  0  0  0  0  0  0  0  0
    7.9339    5.0715  -10.9128 H   0  0  0  0  0  0  0  0  0  0  0  0
    7.8879    5.1842   -7.4291 H   0  0  0  0  0  0  0  0  0  0  0  0
    9.2609    6.6527   -5.9661 H   0  0  0  0  0  0  0  0  0  0  0  0
   11.0405    8.0431   -6.9482 H   0  0  0  0  0  0  0  0  0  0  0  0
    7.6609    6.6675  -12.2196 H   0  0  0  0  0  0  0  0  0  0  0  0
    5.2856    6.3533  -12.1914 H   0  0  0  0  0  0  0  0  0  0  0  0
    4.2722    4.4189  -13.4471 H   0  0  0  0  0  0  0  0  0  0  0  0
    5.6878    2.7765  -14.4643 H   0  0  0  0  0  0  0  0  0  0  0  0
    8.5531    0.8896  -16.5427 H   0  0  0  0  0  0  0  0  0  0  0  0
    8.6490   -0.4220  -15.3920 H   0  0  0  0  0  0  0  0  0  0  0  0
    7.0157   -0.9296  -17.1955 H   0  0  0  0  0  0  0  0  0  0  0  0
    6.1440    0.5560  -16.8652 H   0  0  0  0  0  0  0  0  0  0  0  0
    6.4685   -1.7296  -15.0813 H   0  0  0  0  0  0  0  0  0  0  0  0
  2  1  1  0
  3  2  1  0
  4  3  1  0
  5  4  1  0
  6  5  1  0
  7  6  2  0
  8  7  1  0
  9  8  1  0
 10  9  2  0
 11 10  1  0
 12 10  1  0
 13 12  2  0
 14  8  2  0
 14 13  1  0
 15 14  1  0
 16 15  1  0
 17 16  1  0
 18 17  2  0
 19 17  1  0
 20 19  2  0
 21 20  1  0
 22 20  1  0
 23 22  2  0
 24 23  1  0
 25 19  1  0
 25 24  2  0
 26 25  1  0
 27 26  1  0
 28 26  1  0
 29 26  1  0
 30 15  1  0
 31 30  2  0
 32 31  1  0
 33 32  2  0
 34 33  1  0
 35  6  1  0
 35 30  1  0
 35 34  2  0
 36  5  1  0
 37  2  1  0
 37 36  1  0
 38  1  1  0
 39  1  1  0
 40  1  1  0
 41  3  1  0
 42  3  1  0
 43  4  1  0
 44  4  1  0
 45  9  1  0
 46 12  1  0
 47 13  1  0
 48 16  1  0
 49 21  1  0
 50 21  1  0
 51 22  1  0
 52 23  1  0
 53 24  1  0
 54 31  1  0
 55 32  1  0
 56 33  1  0
 57 34  1  0
 58 36  1  0
 59 36  1  0
 60 37  1  0
 61 37  1  0
 62  2  1  0
M  CHG  1   2   1
M  END
>  <b_m_subgroup_collapsed>  (757) 
0

>  <r_i_docking_score>  (757) 
-7.4025641258616401

>  <s_m_subgroup_title>  (757) 
glide-dock_SP_D22_pv

>  <s_m_subgroupid>  (757) 
glide-dock_SP_D22_pv

>  <Molecule ChEMBL ID>  (757) 
CHEMBL377756

>  <Standard Type>  (757) 
Ki

>  <Standard Value>  (757) 
92.0

>  <label>  (757) 
1

$$$$
CHEMBL1223682
     RDKit          3D

 56 58  0  0  1  0  0  0  0  0999 V2000
   10.5266    1.3582  -15.6655 C   0  0  0  0  0  0  0  0  0  0  0  0
    9.2820    1.9384  -15.0173 C   0  0  0  0  0  0  0  0  0  0  0  0
    8.0527    1.2944  -15.2484 C   0  0  0  0  0  0  0  0  0  0  0  0
    6.8772    1.7795  -14.6552 C   0  0  0  0  0  0  0  0  0  0  0  0
    6.9160    2.9314  -13.8479 C   0  0  0  0  0  0  0  0  0  0  0  0
    8.1389    3.5894  -13.5922 C   0  0  0  0  0  0  0  0  0  0  0  0
    8.1363    4.6916  -12.7209 N   0  0  0  0  0  0  0  0  0  0  0  0
    8.6023    5.9987  -13.1422 C   0  0  0  0  0  0  0  0  0  0  0  0
    9.4701    6.6488  -12.0434 C   0  0  0  0  0  0  0  0  0  0  0  0
    8.8788    6.5315  -10.6755 N   0  0  0  0  0  0  0  0  0  0  0  0
    9.7660    7.0220   -9.5970 C   0  0  0  0  0  0  0  0  0  0  0  0
   10.1140    8.5109   -9.7185 C   0  0  0  0  0  0  0  0  0  0  0  0
   10.9282    9.0174   -8.5259 C   0  0  0  0  0  0  0  0  0  0  0  0
   10.1079    9.1252   -7.2364 C   0  0  0  0  0  0  0  0  0  0  0  0
   10.8860    9.7023   -6.1480 N   0  0  0  0  0  0  0  0  0  0  0  0
   11.2919    8.9376   -5.0503 C   0  0  0  0  0  0  0  0  0  0  0  0
   11.2857    7.5236   -5.0483 C   0  0  0  0  0  0  0  0  0  0  0  0
   11.6875    6.8516   -3.8806 C   0  0  0  0  0  0  0  0  0  0  0  0
   12.0945    7.6018   -2.7656 C   0  0  0  0  0  0  0  0  0  0  0  0
   12.0856    9.0054   -2.8692 C   0  0  0  0  0  0  0  0  0  0  0  0
   11.6827    9.6582   -3.9804 N   0  0  0  0  0  0  0  0  0  0  0  0
    8.3971    5.1598  -10.3658 C   0  0  0  0  0  0  0  0  0  0  0  0
    7.4430    4.6393  -11.4473 C   0  0  0  0  0  0  0  0  0  0  0  0
    9.3410    3.0785  -14.1700 C   0  0  0  0  0  0  0  0  0  0  0  0
   10.6969    3.6969  -13.8445 C   0  0  0  0  0  0  0  0  0  0  0  0
   11.1329    2.1425  -16.1203 H   0  0  0  0  0  0  0  0  0  0  0  0
   11.1319    0.8366  -14.9233 H   0  0  0  0  0  0  0  0  0  0  0  0
   10.2708    0.6434  -16.4480 H   0  0  0  0  0  0  0  0  0  0  0  0
    8.0041    0.4137  -15.8710 H   0  0  0  0  0  0  0  0  0  0  0  0
    5.9447    1.2655  -14.8194 H   0  0  0  0  0  0  0  0  0  0  0  0
    5.9998    3.2935  -13.4057 H   0  0  0  0  0  0  0  0  0  0  0  0
    7.7320    6.6191  -13.3450 H   0  0  0  0  0  0  0  0  0  0  0  0
    9.1550    5.9110  -14.0759 H   0  0  0  0  0  0  0  0  0  0  0  0
    9.6218    7.6974  -12.2942 H   0  0  0  0  0  0  0  0  0  0  0  0
   10.4585    6.1879  -12.0340 H   0  0  0  0  0  0  0  0  0  0  0  0
   10.6773    6.4232   -9.5688 H   0  0  0  0  0  0  0  0  0  0  0  0
    9.2551    6.8531   -8.6512 H   0  0  0  0  0  0  0  0  0  0  0  0
    9.2021    9.1017   -9.8244 H   0  0  0  0  0  0  0  0  0  0  0  0
   10.7055    8.6845  -10.6171 H   0  0  0  0  0  0  0  0  0  0  0  0
   11.2868   10.0115   -8.7833 H   0  0  0  0  0  0  0  0  0  0  0  0
   11.8124    8.3961   -8.3704 H   0  0  0  0  0  0  0  0  0  0  0  0
    9.6662    8.1744   -6.9503 H   0  0  0  0  0  0  0  0  0  0  0  0
    9.2598    9.7690   -7.4469 H   0  0  0  0  0  0  0  0  0  0  0  0
   10.8803   10.7039   -6.0283 H   0  0  0  0  0  0  0  0  0  0  0  0
   10.9934    6.9437   -5.9092 H   0  0  0  0  0  0  0  0  0  0  0  0
   11.6887    5.7745   -3.8484 H   0  0  0  0  0  0  0  0  0  0  0  0
   12.4164    7.1159   -1.8586 H   0  0  0  0  0  0  0  0  0  0  0  0
   12.3944    9.6196   -2.0345 H   0  0  0  0  0  0  0  0  0  0  0  0
    9.2520    4.4887  -10.2732 H   0  0  0  0  0  0  0  0  0  0  0  0
    7.8953    5.1637   -9.3990 H   0  0  0  0  0  0  0  0  0  0  0  0
    6.5506    5.2627  -11.4945 H   0  0  0  0  0  0  0  0  0  0  0  0
    7.1100    3.6309  -11.2080 H   0  0  0  0  0  0  0  0  0  0  0  0
   11.4957    2.9587  -13.8536 H   0  0  0  0  0  0  0  0  0  0  0  0
   10.9440    4.4795  -14.5614 H   0  0  0  0  0  0  0  0  0  0  0  0
   10.7034    4.1210  -12.8425 H   0  0  0  0  0  0  0  0  0  0  0  0
    8.0298    7.1010  -10.6492 H   0  0  0  0  0  0  0  0  0  0  0  0
  2  1  1  0
  3  2  2  0
  4  3  1  0
  5  4  2  0
  6  5  1  0
  7  6  1  0
  8  7  1  0
  9  8  1  0
 10  9  1  0
 11 10  1  0
 12 11  1  0
 13 12  1  0
 14 13  1  0
 15 14  1  0
 16 15  1  0
 17 16  2  0
 18 17  1  0
 19 18  2  0
 20 19  1  0
 21 16  1  0
 21 20  2  0
 22 10  1  0
 23  7  1  0
 23 22  1  0
 24  2  1  0
 24  6  2  0
 25 24  1  0
 26  1  1  0
 27  1  1  0
 28  1  1  0
 29  3  1  0
 30  4  1  0
 31  5  1  0
 32  8  1  0
 33  8  1  0
 34  9  1  0
 35  9  1  0
 36 11  1  0
 37 11  1  0
 38 12  1  0
 39 12  1  0
 40 13  1  0
 41 13  1  0
 42 14  1  0
 43 14  1  0
 44 15  1  0
 45 17  1  0
 46 18  1  0
 47 19  1  0
 48 20  1  0
 49 22  1  0
 50 22  1  0
 51 23  1  0
 52 23  1  0
 53 25  1  0
 54 25  1  0
 55 25  1  0
 56 10  1  0
M  CHG  1  10   1
M  END
>  <b_m_subgroup_collapsed>  (758) 
0

>  <r_i_docking_score>  (758) 
-7.4014578446104604

>  <s_m_subgroup_title>  (758) 
glide-dock_SP_D22_pv

>  <s_m_subgroupid>  (758) 
glide-dock_SP_D22_pv

>  <Molecule ChEMBL ID>  (758) 
CHEMBL1223682

>  <Standard Type>  (758) 
Ki

>  <Standard Value>  (758) 
12.0

>  <label>  (758) 
1

$$$$
CHEMBL4436317
     RDKit          3D

 67 70  0  0  1  0  0  0  0  0999 V2000
    9.1195    0.2388  -19.5024 C   0  0  0  0  0  0  0  0  0  0  0  0
    7.8348    1.0388  -19.2587 C   0  0  0  0  0  0  0  0  0  0  0  0
    7.2203    0.7352  -17.9056 C   0  0  0  0  0  0  0  0  0  0  0  0
    6.4181   -0.4091  -17.7378 C   0  0  0  0  0  0  0  0  0  0  0  0
    5.8688   -0.7067  -16.4788 C   0  0  0  0  0  0  0  0  0  0  0  0
    4.8858   -2.1126  -16.2954 Cl  0  0  0  0  0  0  0  0  0  0  0  0
    6.1247    0.1295  -15.3719 C   0  0  0  0  0  0  0  0  0  0  0  0
    5.6253   -0.2421  -14.1487 O   0  0  0  0  0  0  0  0  0  0  0  0
    6.6153   -0.7670  -13.2761 C   0  0  0  0  0  0  0  0  0  0  0  0
    6.8804    1.3232  -15.5433 C   0  0  0  0  0  0  0  0  0  0  0  0
    7.0196    2.2807  -14.5177 N   0  0  0  0  0  0  0  0  0  0  0  0
    8.3545    2.7523  -14.1913 C   0  0  0  0  0  0  0  0  0  0  0  0
    8.3139    4.1981  -13.6702 C   0  0  0  0  0  0  0  0  0  0  0  0
    7.2616    4.4412  -12.6352 N   0  0  0  0  0  0  0  0  0  0  0  0
    7.0993    5.8641  -12.2293 C   0  0  0  0  0  0  0  0  0  0  0  0
    8.3622    6.6107  -11.7662 C   0  0  2  0  0  0  0  0  0  0  0  0
    9.3557    6.5518  -12.6465 F   0  0  0  0  0  0  0  0  0  0  0  0
    8.8969    6.2356  -10.3814 C   0  0  0  0  0  0  0  0  0  0  0  0
   10.0521    7.1802  -10.0290 C   0  0  0  0  0  0  0  0  0  0  0  0
   10.3517    7.1757   -8.6091 N   0  0  0  0  0  0  0  0  0  0  0  0
   10.7562    8.2682   -7.9527 C   0  0  0  0  0  0  0  0  0  0  0  0
   10.8868    9.3715   -8.4810 O   0  0  0  0  0  0  0  0  0  0  0  0
   11.0360    8.0885   -6.5264 C   0  0  0  0  0  0  0  0  0  0  0  0
   11.2849    6.9785   -5.7623 C   0  0  0  0  0  0  0  0  0  0  0  0
   11.6710    7.4559   -4.4673 C   0  0  0  0  0  0  0  0  0  0  0  0
   12.1021    6.8394   -3.2769 C   0  0  0  0  0  0  0  0  0  0  0  0
   12.4807    7.6036   -2.1614 C   0  0  0  0  0  0  0  0  0  0  0  0
   12.3274    8.9975   -2.1679 C   0  0  0  0  0  0  0  0  0  0  0  0
   11.8384    9.6374   -3.3184 C   0  0  0  0  0  0  0  0  0  0  0  0
   11.5652    8.8758   -4.4642 C   0  0  0  0  0  0  0  0  0  0  0  0
   11.1756    9.2182   -5.7386 N   0  0  0  0  0  0  0  0  0  0  0  0
    5.9315    3.9088  -13.0350 C   0  0  0  0  0  0  0  0  0  0  0  0
    5.9912    2.4530  -13.4949 C   0  0  0  0  0  0  0  0  0  0  0  0
    7.4374    1.5988  -16.8137 C   0  0  0  0  0  0  0  0  0  0  0  0
    9.5444    0.4690  -20.4794 H   0  0  0  0  0  0  0  0  0  0  0  0
    9.8741    0.4676  -18.7496 H   0  0  0  0  0  0  0  0  0  0  0  0
    8.9290   -0.8347  -19.4687 H   0  0  0  0  0  0  0  0  0  0  0  0
    7.1058    0.8120  -20.0377 H   0  0  0  0  0  0  0  0  0  0  0  0
    8.0468    2.1053  -19.3374 H   0  0  0  0  0  0  0  0  0  0  0  0
    6.2288   -1.0691  -18.5716 H   0  0  0  0  0  0  0  0  0  0  0  0
    6.3087   -0.6199  -12.2422 H   0  0  0  0  0  0  0  0  0  0  0  0
    6.7280   -1.8351  -13.4435 H   0  0  0  0  0  0  0  0  0  0  0  0
    7.5899   -0.2915  -13.3965 H   0  0  0  0  0  0  0  0  0  0  0  0
    8.7884    2.0868  -13.4471 H   0  0  0  0  0  0  0  0  0  0  0  0
    9.0256    2.7002  -15.0481 H   0  0  0  0  0  0  0  0  0  0  0  0
    9.3041    4.3880  -13.2619 H   0  0  0  0  0  0  0  0  0  0  0  0
    8.1627    4.8838  -14.5056 H   0  0  0  0  0  0  0  0  0  0  0  0
    6.6615    6.4290  -13.0475 H   0  0  0  0  0  0  0  0  0  0  0  0
    6.3510    5.9027  -11.4392 H   0  0  0  0  0  0  0  0  0  0  0  0
    8.0898    7.6674  -11.7492 H   0  0  0  0  0  0  0  0  0  0  0  0
    8.0973    6.3284   -9.6445 H   0  0  0  0  0  0  0  0  0  0  0  0
    9.2288    5.1975  -10.3569 H   0  0  0  0  0  0  0  0  0  0  0  0
   10.9509    6.9097  -10.5832 H   0  0  0  0  0  0  0  0  0  0  0  0
    9.7914    8.1914  -10.3470 H   0  0  0  0  0  0  0  0  0  0  0  0
   10.2399    6.3152   -8.0945 H   0  0  0  0  0  0  0  0  0  0  0  0
   11.2729    5.9464   -6.0787 H   0  0  0  0  0  0  0  0  0  0  0  0
   12.1991    5.7686   -3.2396 H   0  0  0  0  0  0  0  0  0  0  0  0
   12.8855    7.1141   -1.2905 H   0  0  0  0  0  0  0  0  0  0  0  0
   12.5777    9.5772   -1.2911 H   0  0  0  0  0  0  0  0  0  0  0  0
   11.6859   10.7034   -3.3166 H   0  0  0  0  0  0  0  0  0  0  0  0
   11.0592   10.1493   -6.1120 H   0  0  0  0  0  0  0  0  0  0  0  0
    5.2316    3.9953  -12.2023 H   0  0  0  0  0  0  0  0  0  0  0  0
    5.5289    4.5157  -13.8480 H   0  0  0  0  0  0  0  0  0  0  0  0
    5.0055    2.1568  -13.8472 H   0  0  0  0  0  0  0  0  0  0  0  0
    6.1913    1.8073  -12.6479 H   0  0  0  0  0  0  0  0  0  0  0  0
    8.0115    2.5000  -16.9708 H   0  0  0  0  0  0  0  0  0  0  0  0
    7.5432    3.9300  -11.8112 H   0  0  0  0  0  0  0  0  0  0  0  0
  2  1  1  0
  3  2  1  0
  4  3  1  0
  5  4  2  0
  6  5  1  0
  7  5  1  0
  8  7  1  0
  9  8  1  0
 10  7  2  0
 11 10  1  0
 12 11  1  0
 13 12  1  0
 14 13  1  0
 15 14  1  0
 16 15  1  0
 17 16  1  0
 18 16  1  0
 19 18  1  0
 20 19  1  0
 21 20  1  0
 22 21  2  0
 23 21  1  0
 24 23  2  0
 25 24  1  0
 26 25  2  0
 27 26  1  0
 28 27  2  0
 29 28  1  0
 30 25  1  0
 30 29  2  0
 31 23  1  0
 31 30  1  0
 32 14  1  0
 33 11  1  0
 33 32  1  0
 34  3  2  0
 34 10  1  0
 35  1  1  0
 36  1  1  0
 37  1  1  0
 38  2  1  0
 39  2  1  0
 40  4  1  0
 41  9  1  0
 42  9  1  0
 43  9  1  0
 44 12  1  0
 45 12  1  0
 46 13  1  0
 47 13  1  0
 48 15  1  0
 49 15  1  0
 16 50  1  1
 51 18  1  0
 52 18  1  0
 53 19  1  0
 54 19  1  0
 55 20  1  0
 56 24  1  0
 57 26  1  0
 58 27  1  0
 59 28  1  0
 60 29  1  0
 61 31  1  0
 62 32  1  0
 63 32  1  0
 64 33  1  0
 65 33  1  0
 66 34  1  0
 67 14  1  0
M  CHG  1  14   1
M  END
>  <b_m_subgroup_collapsed>  (759) 
0

>  <r_i_docking_score>  (759) 
-7.3992062393826501

>  <s_m_subgroup_title>  (759) 
glide-dock_SP_D22_pv

>  <s_m_subgroupid>  (759) 
glide-dock_SP_D22_pv

>  <Molecule ChEMBL ID>  (759) 
CHEMBL4436317

>  <Standard Type>  (759) 
Ki

>  <Standard Value>  (759) 
21400.0

>  <label>  (759) 
0

$$$$
CHEMBL109787
     RDKit          3D

 66 70  0  0  1  0  0  0  0  0999 V2000
   12.1426    7.9087  -11.2794 C   0  0  0  0  0  0  0  0  0  0  0  0
   10.9018    7.4088  -12.0409 C   0  0  0  0  0  0  0  0  0  0  0  0
    9.5281    7.9124  -11.5164 C   0  0  0  0  0  0  0  0  0  0  0  0
    8.8860    7.0637  -10.4598 N   0  0  1  0  0  0  0  0  0  0  0  0
    8.4483    5.7317  -10.9910 C   0  0  0  0  0  0  0  0  0  0  0  0
    7.2505    5.8273  -11.9679 C   0  0  0  0  0  0  0  0  0  0  0  0
    6.9762    4.5185  -12.6715 C   0  0  0  0  0  0  0  0  0  0  0  0
    7.7941    4.1482  -13.7523 C   0  0  0  0  0  0  0  0  0  0  0  0
    7.5648    2.9389  -14.4246 C   0  0  0  0  0  0  0  0  0  0  0  0
    6.5276    2.0681  -14.0190 C   0  0  0  0  0  0  0  0  0  0  0  0
    6.3048    0.8314  -14.6460 N   0  0  0  0  0  0  0  0  0  0  0  0
    6.9531    0.3407  -15.7925 C   0  0  0  0  0  0  0  0  0  0  0  0
    6.1656   -0.0066  -16.9047 C   0  0  0  0  0  0  0  0  0  0  0  0
    6.7631   -0.4548  -18.0914 C   0  0  0  0  0  0  0  0  0  0  0  0
    8.1655   -0.5617  -18.2026 C   0  0  0  0  0  0  0  0  0  0  0  0
    8.7610   -1.0277  -19.4682 N   0  0  0  0  0  0  0  0  0  0  0  0
    9.8874   -0.6472  -19.7669 O   0  0  0  0  0  0  0  0  0  0  0  0
    8.0863   -1.7694  -20.1744 O   0  0  0  0  0  0  0  0  0  0  0  0
    8.9573   -0.2485  -17.0925 C   0  0  0  0  0  0  0  0  0  0  0  0
   10.2843   -0.2930  -16.9288 N   0  0  0  0  0  0  0  0  0  0  0  0
   10.4852    0.0908  -15.6001 O   0  0  0  0  0  0  0  0  0  0  0  0
    9.2869    0.3625  -14.9371 N   0  0  0  0  0  0  0  0  0  0  0  0
    8.3423    0.1745  -15.8658 C   0  0  0  0  0  0  0  0  0  0  0  0
    5.6860    2.4619  -12.9552 C   0  0  0  0  0  0  0  0  0  0  0  0
    5.9140    3.6794  -12.2789 C   0  0  0  0  0  0  0  0  0  0  0  0
    9.6455    7.0558   -9.1613 C   0  0  2  0  0  0  0  0  0  0  0  0
    8.9624    6.3027   -8.0064 C   0  0  0  0  0  0  0  0  0  0  0  0
    9.9021    6.1724   -6.8086 C   0  0  0  0  0  0  0  0  0  0  0  0
   10.6067    7.4434   -6.3962 C   0  0  0  0  0  0  0  0  0  0  0  0
   11.2695    7.5330   -5.1453 C   0  0  0  0  0  0  0  0  0  0  0  0
   11.2863    6.4961   -4.2661 O   0  0  0  0  0  0  0  0  0  0  0  0
   11.9507    8.7055   -4.7800 C   0  0  0  0  0  0  0  0  0  0  0  0
   11.9765    9.7850   -5.6708 C   0  0  0  0  0  0  0  0  0  0  0  0
   11.2861    9.7142   -6.8854 C   0  0  0  0  0  0  0  0  0  0  0  0
   10.6165    8.5441   -7.2749 C   0  0  0  0  0  0  0  0  0  0  0  0
    9.9316    8.4923   -8.6339 C   0  0  0  0  0  0  0  0  0  0  0  0
   13.0366    7.7719  -11.8877 H   0  0  0  0  0  0  0  0  0  0  0  0
   12.0824    8.9722  -11.0469 H   0  0  0  0  0  0  0  0  0  0  0  0
   12.3093    7.3753  -10.3460 H   0  0  0  0  0  0  0  0  0  0  0  0
   10.9389    6.3283  -12.1509 H   0  0  0  0  0  0  0  0  0  0  0  0
   11.0070    7.7721  -13.0600 H   0  0  0  0  0  0  0  0  0  0  0  0
    8.8571    7.9865  -12.3669 H   0  0  0  0  0  0  0  0  0  0  0  0
    9.5961    8.9518  -11.2015 H   0  0  0  0  0  0  0  0  0  0  0  0
    9.2821    5.2103  -11.4559 H   0  0  0  0  0  0  0  0  0  0  0  0
    8.1111    5.0677  -10.2026 H   0  0  0  0  0  0  0  0  0  0  0  0
    6.3462    6.1395  -11.4468 H   0  0  0  0  0  0  0  0  0  0  0  0
    7.4017    6.5638  -12.7529 H   0  0  0  0  0  0  0  0  0  0  0  0
    8.5998    4.7914  -14.0747 H   0  0  0  0  0  0  0  0  0  0  0  0
    8.2046    2.7075  -15.2596 H   0  0  0  0  0  0  0  0  0  0  0  0
    5.3886    0.4435  -14.4734 H   0  0  0  0  0  0  0  0  0  0  0  0
    5.0897    0.0880  -16.8594 H   0  0  0  0  0  0  0  0  0  0  0  0
    6.1323   -0.7067  -18.9325 H   0  0  0  0  0  0  0  0  0  0  0  0
    4.8795    1.8202  -12.6328 H   0  0  0  0  0  0  0  0  0  0  0  0
    5.2861    3.9601  -11.4470 H   0  0  0  0  0  0  0  0  0  0  0  0
   10.5858    6.5397   -9.3459 H   0  0  0  0  0  0  0  0  0  0  0  0
    8.6312    5.2978   -8.2528 H   0  0  0  0  0  0  0  0  0  0  0  0
    8.0861    6.8573   -7.6881 H   0  0  0  0  0  0  0  0  0  0  0  0
   10.6695    5.4364   -7.0470 H   0  0  0  0  0  0  0  0  0  0  0  0
    9.3169    5.8401   -5.9621 H   0  0  0  0  0  0  0  0  0  0  0  0
   10.8592    5.7136   -4.5849 H   0  0  0  0  0  0  0  0  0  0  0  0
   12.4737    8.7653   -3.8365 H   0  0  0  0  0  0  0  0  0  0  0  0
   12.5335   10.6728   -5.4469 H   0  0  0  0  0  0  0  0  0  0  0  0
   11.2862   10.5723   -7.5226 H   0  0  0  0  0  0  0  0  0  0  0  0
    8.9970    9.0506   -8.5552 H   0  0  0  0  0  0  0  0  0  0  0  0
   10.5722    9.0508   -9.3115 H   0  0  0  0  0  0  0  0  0  0  0  0
    7.9775    7.5012  -10.2472 H   0  0  0  0  0  0  0  0  0  0  0  0
  2  1  1  0
  3  2  1  0
  4  3  1  0
  5  4  1  0
  6  5  1  0
  7  6  1  0
  8  7  1  0
  9  8  2  0
 10  9  1  0
 11 10  1  0
 12 11  1  0
 13 12  2  0
 14 13  1  0
 15 14  2  0
 16 15  1  0
 17 16  2  0
 18 16  1  0
 19 15  1  0
 20 19  2  0
 21 20  1  0
 22 21  1  0
 23 12  1  0
 23 19  1  0
 23 22  2  0
 24 10  2  0
 25  7  2  0
 25 24  1  0
 26  4  1  0
 27 26  1  0
 28 27  1  0
 29 28  1  0
 30 29  2  0
 31 30  1  0
 32 30  1  0
 33 32  2  0
 34 33  1  0
 35 29  1  0
 35 34  2  0
 36 26  1  0
 36 35  1  0
 37  1  1  0
 38  1  1  0
 39  1  1  0
 40  2  1  0
 41  2  1  0
 42  3  1  0
 43  3  1  0
 44  5  1  0
 45  5  1  0
 46  6  1  0
 47  6  1  0
 48  8  1  0
 49  9  1  0
 50 11  1  0
 51 13  1  0
 52 14  1  0
 53 24  1  0
 54 25  1  0
 26 55  1  6
 56 27  1  0
 57 27  1  0
 58 28  1  0
 59 28  1  0
 60 31  1  0
 61 32  1  0
 62 33  1  0
 63 34  1  0
 64 36  1  0
 65 36  1  0
  4 66  1  1
M  CHG  3   4   1  16   1  18  -1
M  END
>  <b_m_subgroup_collapsed>  (760) 
0

>  <r_i_docking_score>  (760) 
-7.39565468672546

>  <s_m_subgroup_title>  (760) 
glide-dock_SP_D22_pv

>  <s_m_subgroupid>  (760) 
glide-dock_SP_D22_pv

>  <Molecule ChEMBL ID>  (760) 
CHEMBL109787

>  <Standard Type>  (760) 
Ki

>  <Standard Value>  (760) 
0.45

>  <label>  (760) 
1

$$$$
CHEMBL422959
     RDKit          3D

 41 43  0  0  1  0  0  0  0  0999 V2000
   12.4863    8.8280   -1.7330 O   0  0  0  0  0  0  0  0  0  0  0  0
   12.0860    9.3721   -2.7608 C   0  0  0  0  0  0  0  0  0  0  0  0
   11.7216    8.6004   -3.9567 C   0  0  0  0  0  0  0  0  0  0  0  0
   11.6860    7.1938   -4.1555 C   0  0  0  0  0  0  0  0  0  0  0  0
   11.2862    6.9718   -5.4402 C   0  0  0  0  0  0  0  0  0  0  0  0
   11.0653    8.1956   -6.0504 N   0  0  0  0  0  0  0  0  0  0  0  0
   10.6843    8.4042   -7.4397 C   0  0  1  0  0  0  0  0  0  0  0  0
   11.9142    8.3163   -8.3610 C   0  0  0  0  0  0  0  0  0  0  0  0
   11.5361    8.4568   -9.8481 C   0  0  0  0  0  0  0  0  0  0  0  0
   10.4895    7.4779  -10.2514 N   0  0  2  0  0  0  0  0  0  0  0  0
   10.1786    7.5603  -11.7037 C   0  0  0  0  0  0  0  0  0  0  0  0
    9.4078    6.3591  -12.2337 C   0  0  0  0  0  0  0  0  0  0  0  0
    7.9996    6.3723  -12.2469 C   0  0  0  0  0  0  0  0  0  0  0  0
    7.2735    5.2674  -12.7265 C   0  0  0  0  0  0  0  0  0  0  0  0
    7.9573    4.1466  -13.2295 C   0  0  0  0  0  0  0  0  0  0  0  0
    9.3651    4.1305  -13.2428 C   0  0  0  0  0  0  0  0  0  0  0  0
   10.0860    5.2348  -12.7490 C   0  0  0  0  0  0  0  0  0  0  0  0
    9.2860    7.6037   -9.3905 C   0  0  0  0  0  0  0  0  0  0  0  0
    9.6166    7.4007   -7.9084 C   0  0  0  0  0  0  0  0  0  0  0  0
   11.3416    9.1941   -5.1301 C   0  0  0  0  0  0  0  0  0  0  0  0
   11.9761   10.4531   -2.8514 H   0  0  0  0  0  0  0  0  0  0  0  0
   11.9314    6.4260   -3.4359 H   0  0  0  0  0  0  0  0  0  0  0  0
   11.1559    6.0413   -5.9709 H   0  0  0  0  0  0  0  0  0  0  0  0
   10.2596    9.4053   -7.5167 H   0  0  0  0  0  0  0  0  0  0  0  0
   12.6377    9.0846   -8.0889 H   0  0  0  0  0  0  0  0  0  0  0  0
   12.4275    7.3723   -8.2028 H   0  0  0  0  0  0  0  0  0  0  0  0
   12.4285    8.3171  -10.4595 H   0  0  0  0  0  0  0  0  0  0  0  0
   11.1808    9.4707  -10.0416 H   0  0  0  0  0  0  0  0  0  0  0  0
    9.6218    8.4763  -11.9134 H   0  0  0  0  0  0  0  0  0  0  0  0
   11.1082    7.6306  -12.2701 H   0  0  0  0  0  0  0  0  0  0  0  0
    7.4665    7.2313  -11.8731 H   0  0  0  0  0  0  0  0  0  0  0  0
    6.1936    5.2867  -12.7149 H   0  0  0  0  0  0  0  0  0  0  0  0
    7.4029    3.2978  -13.6018 H   0  0  0  0  0  0  0  0  0  0  0  0
    9.8905    3.2683  -13.6295 H   0  0  0  0  0  0  0  0  0  0  0  0
   11.1651    5.2136  -12.7785 H   0  0  0  0  0  0  0  0  0  0  0  0
    8.5335    6.8663   -9.6698 H   0  0  0  0  0  0  0  0  0  0  0  0
    8.8292    8.5830   -9.5412 H   0  0  0  0  0  0  0  0  0  0  0  0
    9.9514    6.3725   -7.7714 H   0  0  0  0  0  0  0  0  0  0  0  0
    8.7096    7.5121   -7.3108 H   0  0  0  0  0  0  0  0  0  0  0  0
   11.2498   10.2367   -5.3980 H   0  0  0  0  0  0  0  0  0  0  0  0
   10.8635    6.5525  -10.0913 H   0  0  0  0  0  0  0  0  0  0  0  0
  2  1  2  0
  3  2  1  0
  4  3  1  0
  5  4  2  0
  6  5  1  0
  7  6  1  0
  8  7  1  0
  9  8  1  0
 10  9  1  0
 11 10  1  0
 12 11  1  0
 13 12  2  0
 14 13  1  0
 15 14  2  0
 16 15  1  0
 17 12  1  0
 17 16  2  0
 18 10  1  0
 19  7  1  0
 19 18  1  0
 20  3  2  0
 20  6  1  0
 21  2  1  0
 22  4  1  0
 23  5  1  0
  7 24  1  1
 25  8  1  0
 26  8  1  0
 27  9  1  0
 28  9  1  0
 29 11  1  0
 30 11  1  0
 31 13  1  0
 32 14  1  0
 33 15  1  0
 34 16  1  0
 35 17  1  0
 36 18  1  0
 37 18  1  0
 38 19  1  0
 39 19  1  0
 40 20  1  0
 10 41  1  6
M  CHG  1  10   1
M  END
>  <b_m_subgroup_collapsed>  (761) 
0

>  <r_i_docking_score>  (761) 
-7.3872377396503799

>  <s_m_subgroup_title>  (761) 
glide-dock_SP_D22_pv

>  <s_m_subgroupid>  (761) 
glide-dock_SP_D22_pv

>  <Molecule ChEMBL ID>  (761) 
CHEMBL422959

>  <Standard Type>  (761) 
Ki

>  <Standard Value>  (761) 
49000.0

>  <label>  (761) 
0

$$$$
CHEMBL2031877
     RDKit          3D

 66 70  0  0  1  0  0  0  0  0999 V2000
   11.1370   10.2156   -5.8941 C   0  0  0  0  0  0  0  0  0  0  0  0
   11.7114    8.8123   -6.1289 C   0  0  1  0  0  0  0  0  0  0  0  0
   11.7200    8.0159   -4.8197 C   0  0  0  0  0  0  0  0  0  0  0  0
   11.5054    6.5724   -5.2335 C   0  0  0  0  0  0  0  0  0  0  0  0
   10.6898    6.6691   -6.5185 C   0  0  0  0  0  0  0  0  0  0  0  0
   10.9960    7.9718   -7.1168 N   0  0  0  0  0  0  0  0  0  0  0  0
   10.8747    8.3074   -8.4295 C   0  0  0  0  0  0  0  0  0  0  0  0
   11.2861    9.3812   -8.8456 O   0  0  0  0  0  0  0  0  0  0  0  0
   10.3519    7.3449   -9.4675 C   0  0  0  0  0  0  0  0  0  0  0  0
   10.8793    7.4099  -10.7802 C   0  0  0  0  0  0  0  0  0  0  0  0
   10.3947    6.5724  -11.8052 C   0  0  0  0  0  0  0  0  0  0  0  0
    9.3940    5.6127  -11.5344 C   0  0  0  0  0  0  0  0  0  0  0  0
    8.9579    4.6330  -12.5479 C   0  0  0  0  0  0  0  0  0  0  0  0
    9.8921    3.9878  -13.3913 C   0  0  0  0  0  0  0  0  0  0  0  0
    9.4923    2.9541  -14.2619 C   0  0  0  0  0  0  0  0  0  0  0  0
    8.1433    2.5374  -14.3083 C   0  0  0  0  0  0  0  0  0  0  0  0
    7.2009    3.2211  -13.5084 C   0  0  0  0  0  0  0  0  0  0  0  0
    7.6022    4.2574  -12.6474 C   0  0  0  0  0  0  0  0  0  0  0  0
    5.7687    2.7674  -13.5079 C   0  0  0  0  0  0  0  0  0  0  0  0
    5.6451    1.2681  -13.8471 C   0  0  0  0  0  0  0  0  0  0  0  0
    6.4863    0.8500  -14.9859 N   0  0  0  0  0  0  0  0  0  0  0  0
    5.8383   -0.0295  -15.9871 C   0  0  0  0  0  0  0  0  0  0  0  0
    5.2201   -1.3432  -15.4268 C   0  0  0  0  0  0  0  0  0  0  0  0
    4.5786   -2.2249  -16.4527 N   0  0  0  0  0  0  0  0  0  0  0  0
    3.7109   -1.5747  -17.4558 C   0  0  0  0  0  0  0  0  0  0  0  0
    3.4475   -2.6533  -18.5033 C   0  0  0  0  0  0  0  0  0  0  0  0
    4.6817   -3.5662  -18.4371 C   0  0  0  0  0  0  0  0  0  0  0  0
    5.4875   -3.1029  -17.2117 C   0  0  0  0  0  0  0  0  0  0  0  0
    7.7109    1.3989  -15.2099 C   0  0  0  0  0  0  0  0  0  0  0  0
    8.4567    1.0312  -16.1192 O   0  0  0  0  0  0  0  0  0  0  0  0
    8.8412    5.5806  -10.2356 C   0  0  0  0  0  0  0  0  0  0  0  0
    9.2850    6.4525   -9.2235 C   0  0  0  0  0  0  0  0  0  0  0  0
   11.6427   10.6852   -5.0531 H   0  0  0  0  0  0  0  0  0  0  0  0
   11.2854   10.8711   -6.7507 H   0  0  0  0  0  0  0  0  0  0  0  0
   10.0861   10.1719   -5.6418 H   0  0  0  0  0  0  0  0  0  0  0  0
   12.7334    8.9724   -6.4816 H   0  0  0  0  0  0  0  0  0  0  0  0
   10.8881    8.3319   -4.1907 H   0  0  0  0  0  0  0  0  0  0  0  0
   12.6338    8.1596   -4.2426 H   0  0  0  0  0  0  0  0  0  0  0  0
   11.0070    5.9904   -4.4595 H   0  0  0  0  0  0  0  0  0  0  0  0
   12.4568    6.0907   -5.4462 H   0  0  0  0  0  0  0  0  0  0  0  0
    9.6260    6.6308   -6.2755 H   0  0  0  0  0  0  0  0  0  0  0  0
   10.9284    5.8327   -7.1773 H   0  0  0  0  0  0  0  0  0  0  0  0
   11.6685    8.1091  -11.0129 H   0  0  0  0  0  0  0  0  0  0  0  0
   10.8292    6.6415  -12.7890 H   0  0  0  0  0  0  0  0  0  0  0  0
   10.9381    4.2521  -13.3401 H   0  0  0  0  0  0  0  0  0  0  0  0
   10.2379    2.4600  -14.8706 H   0  0  0  0  0  0  0  0  0  0  0  0
    6.8672    4.7413  -12.0174 H   0  0  0  0  0  0  0  0  0  0  0  0
    5.2965    2.9824  -12.5489 H   0  0  0  0  0  0  0  0  0  0  0  0
    5.2853    3.3937  -14.2478 H   0  0  0  0  0  0  0  0  0  0  0  0
    5.9685    0.6861  -12.9820 H   0  0  0  0  0  0  0  0  0  0  0  0
    4.5945    1.0231  -14.0028 H   0  0  0  0  0  0  0  0  0  0  0  0
    5.0690    0.5722  -16.4676 H   0  0  0  0  0  0  0  0  0  0  0  0
    6.5331   -0.2965  -16.7836 H   0  0  0  0  0  0  0  0  0  0  0  0
    5.9766   -1.9129  -14.8835 H   0  0  0  0  0  0  0  0  0  0  0  0
    4.4451   -1.1036  -14.6999 H   0  0  0  0  0  0  0  0  0  0  0  0
    2.8047   -1.1700  -17.0063 H   0  0  0  0  0  0  0  0  0  0  0  0
    4.2308   -0.7590  -17.9556 H   0  0  0  0  0  0  0  0  0  0  0  0
    2.5533   -3.2224  -18.2478 H   0  0  0  0  0  0  0  0  0  0  0  0
    3.2875   -2.2324  -19.4978 H   0  0  0  0  0  0  0  0  0  0  0  0
    4.3671   -4.6035  -18.3172 H   0  0  0  0  0  0  0  0  0  0  0  0
    5.2797   -3.5056  -19.3467 H   0  0  0  0  0  0  0  0  0  0  0  0
    6.3662   -2.5411  -17.5360 H   0  0  0  0  0  0  0  0  0  0  0  0
    5.8270   -3.9394  -16.5990 H   0  0  0  0  0  0  0  0  0  0  0  0
    8.0571    4.8764   -9.9959 H   0  0  0  0  0  0  0  0  0  0  0  0
    8.7783    6.4262   -8.2718 H   0  0  0  0  0  0  0  0  0  0  0  0
    3.9624   -2.8786  -15.9744 H   0  0  0  0  0  0  0  0  0  0  0  0
  2  1  1  0
  3  2  1  0
  4  3  1  0
  5  4  1  0
  6  2  1  0
  6  5  1  0
  7  6  1  0
  8  7  2  0
  9  7  1  0
 10  9  1  0
 11 10  2  0
 12 11  1  0
 13 12  1  0
 14 13  1  0
 15 14  2  0
 16 15  1  0
 17 16  2  0
 18 13  2  0
 18 17  1  0
 19 17  1  0
 20 19  1  0
 21 20  1  0
 22 21  1  0
 23 22  1  0
 24 23  1  0
 25 24  1  0
 26 25  1  0
 27 26  1  0
 28 24  1  0
 28 27  1  0
 29 16  1  0
 29 21  1  0
 30 29  2  0
 31 12  2  0
 32  9  2  0
 32 31  1  0
 33  1  1  0
 34  1  1  0
 35  1  1  0
  2 36  1  6
 37  3  1  0
 38  3  1  0
 39  4  1  0
 40  4  1  0
 41  5  1  0
 42  5  1  0
 43 10  1  0
 44 11  1  0
 45 14  1  0
 46 15  1  0
 47 18  1  0
 48 19  1  0
 49 19  1  0
 50 20  1  0
 51 20  1  0
 52 22  1  0
 53 22  1  0
 54 23  1  0
 55 23  1  0
 56 25  1  0
 57 25  1  0
 58 26  1  0
 59 26  1  0
 60 27  1  0
 61 27  1  0
 62 28  1  0
 63 28  1  0
 64 31  1  0
 65 32  1  0
 66 24  1  0
M  CHG  1  24   1
M  END
>  <b_m_subgroup_collapsed>  (762) 
0

>  <r_i_docking_score>  (762) 
-7.3869253235420302

>  <s_m_subgroup_title>  (762) 
glide-dock_SP_D22_pv

>  <s_m_subgroupid>  (762) 
glide-dock_SP_D22_pv

>  <Molecule ChEMBL ID>  (762) 
CHEMBL2031877

>  <Standard Type>  (762) 
Ki

>  <Standard Value>  (762) 
10000.0

>  <label>  (762) 
0

$$$$
CHEMBL3765169
     RDKit          3D

 55 58  0  0  1  0  0  0  0  0999 V2000
    9.3906    0.0078  -15.1536 C   0  0  0  0  0  0  0  0  0  0  0  0
    8.7617    0.8790  -16.1352 N   0  0  0  0  0  0  0  0  0  0  0  0
    9.2957    1.9388  -16.7767 C   0  0  0  0  0  0  0  0  0  0  0  0
   10.9042    2.5747  -16.4494 S   0  0  0  0  0  0  0  0  0  0  0  0
   10.7150    3.0008  -14.6894 C   0  0  0  0  0  0  0  0  0  0  0  0
    9.4869    3.8835  -14.3898 C   0  0  0  0  0  0  0  0  0  0  0  0
    9.5197    4.4641  -12.9630 C   0  0  0  0  0  0  0  0  0  0  0  0
   10.0397    5.8267  -12.8543 N   0  0  0  0  0  0  0  0  0  0  0  0
   11.3723    5.9690  -13.4469 C   0  0  0  0  0  0  0  0  0  0  0  0
   11.9596    7.3656  -13.2544 C   0  0  0  0  0  0  0  0  0  0  0  0
   11.9830    7.6599  -11.8665 O   0  0  0  0  0  0  0  0  0  0  0  0
   10.7019    7.6564  -11.2323 C   0  0  2  0  0  0  0  0  0  0  0  0
   10.8437    8.0137   -9.7513 C   0  0  0  0  0  0  0  0  0  0  0  0
    9.7162    8.1968   -8.9180 C   0  0  0  0  0  0  0  0  0  0  0  0
    9.8787    8.5725   -7.5639 C   0  0  0  0  0  0  0  0  0  0  0  0
   11.1711    8.7823   -7.0287 C   0  0  0  0  0  0  0  0  0  0  0  0
   11.3814    9.2218   -5.5835 C   0  0  0  0  0  0  0  0  0  0  0  0
   12.5825    9.7690   -5.4134 F   0  0  0  0  0  0  0  0  0  0  0  0
   10.4859   10.1335   -5.2195 F   0  0  0  0  0  0  0  0  0  0  0  0
   11.2861    8.1649   -4.7778 F   0  0  0  0  0  0  0  0  0  0  0  0
   12.2886    8.5726   -7.8568 C   0  0  0  0  0  0  0  0  0  0  0  0
   12.1298    8.1895   -9.1973 C   0  0  0  0  0  0  0  0  0  0  0  0
   10.0194    6.2838  -11.4572 C   0  0  0  0  0  0  0  0  0  0  0  0
    8.4848    2.4882  -17.6775 N   0  0  0  0  0  0  0  0  0  0  0  0
    7.3168    1.7718  -17.5962 N   0  0  0  0  0  0  0  0  0  0  0  0
    7.5080    0.8431  -16.6515 C   0  0  0  0  0  0  0  0  0  0  0  0
    6.4085   -0.0259  -16.2314 C   0  0  0  0  0  0  0  0  0  0  0  0
    6.0947   -0.2132  -14.8635 C   0  0  0  0  0  0  0  0  0  0  0  0
    5.0032   -0.9061  -14.4664 N   0  0  0  0  0  0  0  0  0  0  0  0
    4.2300   -1.4274  -15.4465 C   0  0  0  0  0  0  0  0  0  0  0  0
    4.5449   -1.2589  -16.8112 C   0  0  0  0  0  0  0  0  0  0  0  0
    5.6273   -0.5527  -17.2075 N   0  0  0  0  0  0  0  0  0  0  0  0
   10.4644    0.1801  -15.1043 H   0  0  0  0  0  0  0  0  0  0  0  0
    8.9567    0.1724  -14.1668 H   0  0  0  0  0  0  0  0  0  0  0  0
    9.2797   -1.0276  -15.4550 H   0  0  0  0  0  0  0  0  0  0  0  0
   10.6826    2.1039  -14.0754 H   0  0  0  0  0  0  0  0  0  0  0  0
   11.6368    3.5023  -14.4053 H   0  0  0  0  0  0  0  0  0  0  0  0
    9.3824    4.6817  -15.1261 H   0  0  0  0  0  0  0  0  0  0  0  0
    8.5859    3.2778  -14.4847 H   0  0  0  0  0  0  0  0  0  0  0  0
    8.4995    4.4614  -12.5765 H   0  0  0  0  0  0  0  0  0  0  0  0
   10.0788    3.7939  -12.3081 H   0  0  0  0  0  0  0  0  0  0  0  0
   12.0603    5.2271  -13.0470 H   0  0  0  0  0  0  0  0  0  0  0  0
   11.3234    5.7839  -14.5192 H   0  0  0  0  0  0  0  0  0  0  0  0
   12.9795    7.4004  -13.6383 H   0  0  0  0  0  0  0  0  0  0  0  0
   11.3886    8.1059  -13.8158 H   0  0  0  0  0  0  0  0  0  0  0  0
   10.0901    8.4320  -11.6971 H   0  0  0  0  0  0  0  0  0  0  0  0
    8.7209    8.0587   -9.3163 H   0  0  0  0  0  0  0  0  0  0  0  0
    9.0053    8.7148   -6.9430 H   0  0  0  0  0  0  0  0  0  0  0  0
   13.2861    8.7441   -7.4843 H   0  0  0  0  0  0  0  0  0  0  0  0
   13.0185    8.0693   -9.7994 H   0  0  0  0  0  0  0  0  0  0  0  0
    8.9857    6.3427  -11.1141 H   0  0  0  0  0  0  0  0  0  0  0  0
   10.4859    5.5429  -10.8133 H   0  0  0  0  0  0  0  0  0  0  0  0
    6.6872    0.2367  -14.0814 H   0  0  0  0  0  0  0  0  0  0  0  0
    3.3513   -1.9782  -15.1426 H   0  0  0  0  0  0  0  0  0  0  0  0
    3.9203   -1.6827  -17.5840 H   0  0  0  0  0  0  0  0  0  0  0  0
  2  1  1  0
  3  2  1  0
  4  3  1  0
  5  4  1  0
  6  5  1  0
  7  6  1  0
  8  7  1  0
  9  8  1  0
 10  9  1  0
 11 10  1  0
 12 11  1  0
 13 12  1  0
 14 13  1  0
 15 14  2  0
 16 15  1  0
 17 16  1  0
 18 17  1  0
 19 17  1  0
 20 17  1  0
 21 16  2  0
 22 13  2  0
 22 21  1  0
 23  8  1  0
 23 12  1  0
 24  3  2  0
 25 24  1  0
 26  2  1  0
 26 25  2  0
 27 26  1  0
 28 27  2  0
 29 28  1  0
 30 29  2  0
 31 30  1  0
 32 27  1  0
 32 31  2  0
 33  1  1  0
 34  1  1  0
 35  1  1  0
 36  5  1  0
 37  5  1  0
 38  6  1  0
 39  6  1  0
 40  7  1  0
 41  7  1  0
 42  9  1  0
 43  9  1  0
 44 10  1  0
 45 10  1  0
 12 46  1  6
 47 14  1  0
 48 15  1  0
 49 21  1  0
 50 22  1  0
 51 23  1  0
 52 23  1  0
 53 28  1  0
 54 30  1  0
 55 31  1  0
M  END
>  <b_m_subgroup_collapsed>  (763) 
0

>  <r_i_docking_score>  (763) 
-7.3867139269341404

>  <s_m_subgroup_title>  (763) 
glide-dock_SP_D22_pv

>  <s_m_subgroupid>  (763) 
glide-dock_SP_D22_pv

>  <Molecule ChEMBL ID>  (763) 
CHEMBL3765169

>  <Standard Type>  (763) 
Ki

>  <Standard Value>  (763) 
10000.0

>  <label>  (763) 
0

$$$$
CHEMBL3971039
     RDKit          3D

 46 49  0  0  1  0  0  0  0  0999 V2000
    8.9669    4.8396   -9.5949 C   0  0  0  0  0  0  0  0  0  0  0  0
    8.0860    5.7679  -10.3395 N   0  0  0  0  0  0  0  0  0  0  0  0
    8.4986    6.2922  -11.6624 C   0  0  2  0  0  0  0  0  0  0  0  0
    9.2175    5.3466  -12.5878 C   0  0  0  0  0  0  0  0  0  0  0  0
    9.0731    4.1737  -13.3264 C   0  0  0  0  0  0  0  0  0  0  0  0
   10.1859    3.8440  -14.1540 C   0  0  0  0  0  0  0  0  0  0  0  0
   11.3610    4.7016  -14.2549 C   0  0  0  0  0  0  0  0  0  0  0  0
   12.2498    4.1182  -15.2082 C   0  0  0  0  0  0  0  0  0  0  0  0
   11.6850    2.9376  -15.6023 C   0  0  0  0  0  0  0  0  0  0  0  0
   10.4564    2.7494  -14.9822 N   0  0  0  0  0  0  0  0  0  0  0  0
    9.5179    1.3024  -15.2073 S   0  0  0  0  0  0  0  0  0  0  0  0
   10.4860    0.1952  -15.1720 O   0  0  0  0  0  0  0  0  0  0  0  0
    8.4080    1.3579  -14.2467 O   0  0  0  0  0  0  0  0  0  0  0  0
    8.8299    1.3967  -16.8579 C   0  0  0  0  0  0  0  0  0  0  0  0
    7.4297    1.3950  -17.0251 C   0  0  0  0  0  0  0  0  0  0  0  0
    6.8829    1.3720  -18.3222 C   0  0  0  0  0  0  0  0  0  0  0  0
    7.7312    1.3715  -19.4471 C   0  0  0  0  0  0  0  0  0  0  0  0
    9.1301    1.3800  -19.2767 C   0  0  0  0  0  0  0  0  0  0  0  0
    9.6825    1.3821  -17.9807 C   0  0  0  0  0  0  0  0  0  0  0  0
   11.4618    5.8939  -13.4737 C   0  0  0  0  0  0  0  0  0  0  0  0
   10.3752    6.1723  -12.6470 C   0  0  0  0  0  0  0  0  0  0  0  0
    9.8210    7.2118  -11.6954 C   0  0  2  0  0  0  0  0  0  0  0  0
   10.6668    7.4401  -10.4417 C   0  0  0  0  0  0  0  0  0  0  0  0
   11.8297    8.4063  -10.6373 C   0  0  0  0  0  0  0  0  0  0  0  0
   12.4869    8.5723   -9.4024 O   0  0  0  0  0  0  0  0  0  0  0  0
    8.3515    4.2173   -8.9448 H   0  0  0  0  0  0  0  0  0  0  0  0
    9.6559    5.3716   -8.9422 H   0  0  0  0  0  0  0  0  0  0  0  0
    9.5322    4.1726  -10.2463 H   0  0  0  0  0  0  0  0  0  0  0  0
    7.2320    5.2523  -10.5084 H   0  0  0  0  0  0  0  0  0  0  0  0
    7.6628    6.7695  -12.1759 H   0  0  0  0  0  0  0  0  0  0  0  0
    8.1802    3.5712  -13.2694 H   0  0  0  0  0  0  0  0  0  0  0  0
   13.2059    4.5173  -15.5149 H   0  0  0  0  0  0  0  0  0  0  0  0
   12.0877    2.1861  -16.2652 H   0  0  0  0  0  0  0  0  0  0  0  0
    6.7725    1.3852  -16.1676 H   0  0  0  0  0  0  0  0  0  0  0  0
    5.8099    1.3621  -18.4533 H   0  0  0  0  0  0  0  0  0  0  0  0
    7.3096    1.3570  -20.4422 H   0  0  0  0  0  0  0  0  0  0  0  0
    9.7795    1.3688  -20.1408 H   0  0  0  0  0  0  0  0  0  0  0  0
   10.7537    1.3525  -17.8556 H   0  0  0  0  0  0  0  0  0  0  0  0
   12.3210    6.5458  -13.5369 H   0  0  0  0  0  0  0  0  0  0  0  0
    9.6194    8.1329  -12.2451 H   0  0  0  0  0  0  0  0  0  0  0  0
   10.0297    7.8413   -9.6520 H   0  0  0  0  0  0  0  0  0  0  0  0
   11.0725    6.5055  -10.0680 H   0  0  0  0  0  0  0  0  0  0  0  0
   12.5325    8.0424  -11.3874 H   0  0  0  0  0  0  0  0  0  0  0  0
   11.4599    9.3723  -10.9603 H   0  0  0  0  0  0  0  0  0  0  0  0
   13.1425    9.2567   -9.5143 H   0  0  0  0  0  0  0  0  0  0  0  0
    7.8014    6.5600   -9.7701 H   0  0  0  0  0  0  0  0  0  0  0  0
  2  1  1  0
  3  2  1  0
  4  3  1  0
  5  4  1  0
  6  5  2  0
  7  6  1  0
  8  7  1  0
  9  8  2  0
 10  6  1  0
 10  9  1  0
 11 10  1  0
 12 11  2  0
 13 11  2  0
 14 11  1  0
 15 14  2  0
 16 15  1  0
 17 16  2  0
 18 17  1  0
 19 14  1  0
 19 18  2  0
 20  7  2  0
 21  4  2  0
 21 20  1  0
 22  3  1  0
 22 21  1  0
 23 22  1  0
 24 23  1  0
 25 24  1  0
 26  1  1  0
 27  1  1  0
 28  1  1  0
 29  2  1  0
  3 30  1  6
 31  5  1  0
 32  8  1  0
 33  9  1  0
 34 15  1  0
 35 16  1  0
 36 17  1  0
 37 18  1  0
 38 19  1  0
 39 20  1  0
 22 40  1  6
 41 23  1  0
 42 23  1  0
 43 24  1  0
 44 24  1  0
 45 25  1  0
 46  2  1  0
M  CHG  1   2   1
M  END
>  <b_m_subgroup_collapsed>  (764) 
0

>  <r_i_docking_score>  (764) 
-7.3842224945062203

>  <s_m_subgroup_title>  (764) 
glide-dock_SP_D22_pv

>  <s_m_subgroupid>  (764) 
glide-dock_SP_D22_pv

>  <Molecule ChEMBL ID>  (764) 
CHEMBL3971039

>  <Standard Type>  (764) 
Ki

>  <Standard Value>  (764) 
10000.0

>  <label>  (764) 
0

$$$$
CHEMBL4451865
     RDKit          3D

 79 83  0  0  1  0  0  0  0  0999 V2000
   12.0088   10.8404   -6.1883 C   0  0  0  0  0  0  0  0  0  0  0  0
   11.1821   10.5373   -5.0732 O   0  0  0  0  0  0  0  0  0  0  0  0
   11.5244    9.3895   -4.3969 C   0  0  0  0  0  0  0  0  0  0  0  0
   11.9878    9.5188   -3.0727 C   0  0  0  0  0  0  0  0  0  0  0  0
   12.3129    8.3817   -2.3097 C   0  0  0  0  0  0  0  0  0  0  0  0
   12.1640    7.0994   -2.8683 C   0  0  0  0  0  0  0  0  0  0  0  0
   11.6999    6.9624   -4.1908 C   0  0  0  0  0  0  0  0  0  0  0  0
   11.3792    8.0981   -4.9639 C   0  0  0  0  0  0  0  0  0  0  0  0
   10.8780    7.9205   -6.2593 N   0  0  0  0  0  0  0  0  0  0  0  0
   11.5120    7.0259   -7.2154 C   0  0  0  0  0  0  0  0  0  0  0  0
   10.4659    6.0896   -7.8160 C   0  0  0  0  0  0  0  0  0  0  0  0
    9.2031    6.7978   -8.3398 C   0  0  0  0  0  0  0  0  0  0  0  0
    9.4639    7.6875   -9.5803 C   0  0  0  0  0  0  0  0  0  0  0  0
    9.9240    6.8877  -10.8014 C   0  0  0  0  0  0  0  0  0  0  0  0
    9.0333    5.7371  -11.1186 N   0  0  0  0  0  0  0  0  0  0  0  0
    9.5583    4.9381  -12.2507 C   0  0  0  0  0  0  0  0  0  0  0  0
    8.5600    4.8958  -13.4030 C   0  0  0  0  0  0  0  0  0  0  0  0
    9.1046    4.1203  -14.6055 C   0  0  0  0  0  0  0  0  0  0  0  0
    9.0464    2.3208  -14.3627 S   0  0  0  0  0  0  0  0  0  0  0  0
    8.2662    1.8481  -15.8769 C   0  0  0  0  0  0  0  0  0  0  0  0
    8.5832    2.3630  -17.0682 N   0  0  0  0  0  0  0  0  0  0  0  0
    7.7282    1.7714  -17.9683 N   0  0  0  0  0  0  0  0  0  0  0  0
    6.9638    0.9454  -17.2472 C   0  0  0  0  0  0  0  0  0  0  0  0
    5.9120    0.0579  -17.8469 C   0  0  0  0  0  0  0  0  0  0  0  0
    4.9621    0.8337  -18.7851 C   0  0  0  0  0  0  0  0  0  0  0  0
    3.8786   -0.0896  -19.3622 C   0  0  0  0  0  0  0  0  0  0  0  0
    4.4958   -1.2921  -20.0916 C   0  0  0  0  0  0  0  0  0  0  0  0
    5.4397   -2.0712  -19.1609 C   0  0  0  0  0  0  0  0  0  0  0  0
    6.5260   -1.1579  -18.5685 C   0  0  0  0  0  0  0  0  0  0  0  0
    7.2758    0.9332  -15.9311 N   0  0  0  0  0  0  0  0  0  0  0  0
    6.6825    0.1502  -14.8585 C   0  0  0  0  0  0  0  0  0  0  0  0
    8.6898    4.8760   -9.9548 C   0  0  0  0  0  0  0  0  0  0  0  0
    8.2103    5.7039   -8.7585 C   0  0  0  0  0  0  0  0  0  0  0  0
    8.6447    7.6537   -7.1766 C   0  0  0  0  0  0  0  0  0  0  0  0
    9.6824    8.6408   -6.6663 C   0  0  0  0  0  0  0  0  0  0  0  0
   11.6865   11.7707   -6.6475 H   0  0  0  0  0  0  0  0  0  0  0  0
   13.0249   10.9723   -5.8480 H   0  0  0  0  0  0  0  0  0  0  0  0
   12.0239   10.0829   -6.9674 H   0  0  0  0  0  0  0  0  0  0  0  0
   12.0857   10.5027   -2.6401 H   0  0  0  0  0  0  0  0  0  0  0  0
   12.6667    8.4955   -1.2939 H   0  0  0  0  0  0  0  0  0  0  0  0
   12.3959    6.2177   -2.2864 H   0  0  0  0  0  0  0  0  0  0  0  0
   11.5743    5.9701   -4.6014 H   0  0  0  0  0  0  0  0  0  0  0  0
   11.9888    7.6247   -7.9934 H   0  0  0  0  0  0  0  0  0  0  0  0
   12.2881    6.4213   -6.7505 H   0  0  0  0  0  0  0  0  0  0  0  0
   10.8924    5.4741   -8.5938 H   0  0  0  0  0  0  0  0  0  0  0  0
   10.1582    5.3952   -7.0446 H   0  0  0  0  0  0  0  0  0  0  0  0
    8.5579    8.2412   -9.8308 H   0  0  0  0  0  0  0  0  0  0  0  0
   10.2194    8.4466   -9.3727 H   0  0  0  0  0  0  0  0  0  0  0  0
    9.9548    7.5530  -11.6637 H   0  0  0  0  0  0  0  0  0  0  0  0
   10.9473    6.5623  -10.6364 H   0  0  0  0  0  0  0  0  0  0  0  0
   10.4921    5.3635  -12.6197 H   0  0  0  0  0  0  0  0  0  0  0  0
    9.8054    3.9248  -11.9344 H   0  0  0  0  0  0  0  0  0  0  0  0
    7.6105    4.4656  -13.0802 H   0  0  0  0  0  0  0  0  0  0  0  0
    8.3420    5.9175  -13.7189 H   0  0  0  0  0  0  0  0  0  0  0  0
    8.4901    4.3901  -15.4500 H   0  0  0  0  0  0  0  0  0  0  0  0
   10.1217    4.4230  -14.8543 H   0  0  0  0  0  0  0  0  0  0  0  0
    5.2911   -0.3245  -17.0359 H   0  0  0  0  0  0  0  0  0  0  0  0
    4.4936    1.6562  -18.2472 H   0  0  0  0  0  0  0  0  0  0  0  0
    5.5234    1.2811  -19.6086 H   0  0  0  0  0  0  0  0  0  0  0  0
    3.2509   -0.4511  -18.5483 H   0  0  0  0  0  0  0  0  0  0  0  0
    3.2338    0.4718  -20.0378 H   0  0  0  0  0  0  0  0  0  0  0  0
    3.7069   -1.9506  -20.4554 H   0  0  0  0  0  0  0  0  0  0  0  0
    5.0420   -0.9480  -20.9719 H   0  0  0  0  0  0  0  0  0  0  0  0
    4.8623   -2.5230  -18.3526 H   0  0  0  0  0  0  0  0  0  0  0  0
    5.9014   -2.8952  -19.7050 H   0  0  0  0  0  0  0  0  0  0  0  0
    7.1907   -0.8191  -19.3629 H   0  0  0  0  0  0  0  0  0  0  0  0
    7.1400   -1.7274  -17.8705 H   0  0  0  0  0  0  0  0  0  0  0  0
    5.6817    0.5265  -14.6416 H   0  0  0  0  0  0  0  0  0  0  0  0
    6.6137   -0.8975  -15.1553 H   0  0  0  0  0  0  0  0  0  0  0  0
    7.2841    0.2048  -13.9505 H   0  0  0  0  0  0  0  0  0  0  0  0
    7.9052    4.1735  -10.2532 H   0  0  0  0  0  0  0  0  0  0  0  0
    9.5418    4.2530   -9.6822 H   0  0  0  0  0  0  0  0  0  0  0  0
    7.9804    5.0471   -7.9178 H   0  0  0  0  0  0  0  0  0  0  0  0
    7.2865    6.1701   -9.0476 H   0  0  0  0  0  0  0  0  0  0  0  0
    7.7795    8.2491   -7.4469 H   0  0  0  0  0  0  0  0  0  0  0  0
    8.3323    7.0050   -6.3597 H   0  0  0  0  0  0  0  0  0  0  0  0
    9.2617    9.2132   -5.8469 H   0  0  0  0  0  0  0  0  0  0  0  0
    9.9218    9.3723   -7.4358 H   0  0  0  0  0  0  0  0  0  0  0  0
    8.1559    6.1564  -11.4045 H   0  0  0  0  0  0  0  0  0  0  0  0
  2  1  1  0
  3  2  1  0
  4  3  2  0
  5  4  1  0
  6  5  2  0
  7  6  1  0
  8  3  1  0
  8  7  2  0
  9  8  1  0
 10  9  1  0
 11 10  1  0
 12 11  1  0
 13 12  1  0
 14 13  1  0
 15 14  1  0
 16 15  1  0
 17 16  1  0
 18 17  1  0
 19 18  1  0
 20 19  1  0
 21 20  2  0
 22 21  1  0
 23 22  2  0
 24 23  1  0
 25 24  1  0
 26 25  1  0
 27 26  1  0
 28 27  1  0
 29 24  1  0
 29 28  1  0
 30 20  1  0
 30 23  1  0
 31 30  1  0
 32 15  1  0
 33 12  1  0
 33 32  1  0
 34 12  1  0
 35  9  1  0
 35 34  1  0
 36  1  1  0
 37  1  1  0
 38  1  1  0
 39  4  1  0
 40  5  1  0
 41  6  1  0
 42  7  1  0
 43 10  1  0
 44 10  1  0
 45 11  1  0
 46 11  1  0
 47 13  1  0
 48 13  1  0
 49 14  1  0
 50 14  1  0
 51 16  1  0
 52 16  1  0
 53 17  1  0
 54 17  1  0
 55 18  1  0
 56 18  1  0
 57 24  1  0
 58 25  1  0
 59 25  1  0
 60 26  1  0
 61 26  1  0
 62 27  1  0
 63 27  1  0
 64 28  1  0
 65 28  1  0
 66 29  1  0
 67 29  1  0
 68 31  1  0
 69 31  1  0
 70 31  1  0
 71 32  1  0
 72 32  1  0
 73 33  1  0
 74 33  1  0
 75 34  1  0
 76 34  1  0
 77 35  1  0
 78 35  1  0
 79 15  1  0
M  CHG  1  15   1
M  END
>  <b_m_subgroup_collapsed>  (765) 
0

>  <r_i_docking_score>  (765) 
-7.3767681843161901

>  <s_m_subgroup_title>  (765) 
glide-dock_SP_D22_pv

>  <s_m_subgroupid>  (765) 
glide-dock_SP_D22_pv

>  <Molecule ChEMBL ID>  (765) 
CHEMBL4451865

>  <Standard Type>  (765) 
Ki

>  <Standard Value>  (765) 
12584.0

>  <label>  (765) 
0

$$$$
CHEMBL1169728
     RDKit          3D

 54 58  0  0  1  0  0  0  0  0999 V2000
   12.8859    7.6333  -13.3638 C   0  0  0  0  0  0  0  0  0  0  0  0
   12.0045    7.3724  -12.2353 N   0  0  0  0  0  0  0  0  0  0  0  0
   12.1407    8.1092  -10.9858 C   0  0  0  0  0  0  0  0  0  0  0  0
   10.9194    7.7824  -10.2594 N   0  0  0  0  0  0  0  0  0  0  0  0
   10.7522    8.1915   -8.9127 C   0  0  0  0  0  0  0  0  0  0  0  0
   11.8746    8.5906   -8.1443 C   0  0  0  0  0  0  0  0  0  0  0  0
   11.7404    8.9929   -6.8042 C   0  0  0  0  0  0  0  0  0  0  0  0
   10.4833    8.9678   -6.1858 C   0  0  0  0  0  0  0  0  0  0  0  0
    9.3551    8.5724   -6.9263 C   0  0  0  0  0  0  0  0  0  0  0  0
    9.4851    8.2251   -8.2811 C   0  0  0  0  0  0  0  0  0  0  0  0
    9.9961    6.9972  -11.0904 C   0  0  2  0  0  0  0  0  0  0  0  0
    8.8468    7.8494  -11.6671 C   0  0  0  0  0  0  0  0  0  0  0  0
    7.7955    7.0174  -12.4581 C   0  0  0  0  0  0  0  0  0  0  0  0
    7.3532    5.7700  -11.7713 N   0  0  1  0  0  0  0  0  0  0  0  0
    6.3758    4.9639  -12.5693 C   0  0  0  0  0  0  0  0  0  0  0  0
    6.9764    3.8868  -13.4639 C   0  0  0  0  0  0  0  0  0  0  0  0
    8.1009    4.0370  -14.2467 C   0  0  0  0  0  0  0  0  0  0  0  0
    8.6367    2.6119  -15.0783 S   0  0  0  0  0  0  0  0  0  0  0  0
    7.2434    1.7318  -14.5082 C   0  0  0  0  0  0  0  0  0  0  0  0
    6.9132    0.3987  -14.8140 C   0  0  0  0  0  0  0  0  0  0  0  0
    5.7454   -0.1707  -14.2870 C   0  0  0  0  0  0  0  0  0  0  0  0
    4.9274    0.5977  -13.4443 C   0  0  0  0  0  0  0  0  0  0  0  0
    5.2842    1.9186  -13.1065 C   0  0  0  0  0  0  0  0  0  0  0  0
    6.4354    2.5449  -13.6444 C   0  0  0  0  0  0  0  0  0  0  0  0
    8.4367    4.9405  -11.1698 C   0  0  0  0  0  0  0  0  0  0  0  0
    9.4245    5.7619  -10.3416 C   0  0  0  0  0  0  0  0  0  0  0  0
   10.8878    6.6472  -12.2845 C   0  0  0  0  0  0  0  0  0  0  0  0
   10.5872    5.8645  -13.1829 O   0  0  0  0  0  0  0  0  0  0  0  0
   12.3518    8.1709  -14.1467 H   0  0  0  0  0  0  0  0  0  0  0  0
   13.7321    8.2446  -13.0496 H   0  0  0  0  0  0  0  0  0  0  0  0
   13.2752    6.7147  -13.8058 H   0  0  0  0  0  0  0  0  0  0  0  0
   13.0346    7.7721  -10.4701 H   0  0  0  0  0  0  0  0  0  0  0  0
   12.2260    9.1884  -11.0977 H   0  0  0  0  0  0  0  0  0  0  0  0
   12.8713    8.6172   -8.5552 H   0  0  0  0  0  0  0  0  0  0  0  0
   12.6089    9.3179   -6.2487 H   0  0  0  0  0  0  0  0  0  0  0  0
   10.3880    9.2622   -5.1526 H   0  0  0  0  0  0  0  0  0  0  0  0
    8.3768    8.5621   -6.4663 H   0  0  0  0  0  0  0  0  0  0  0  0
    8.5753    7.9852   -8.8044 H   0  0  0  0  0  0  0  0  0  0  0  0
    9.2434    8.6138  -12.3373 H   0  0  0  0  0  0  0  0  0  0  0  0
    8.4013    8.4437  -10.8799 H   0  0  0  0  0  0  0  0  0  0  0  0
    8.1716    6.7696  -13.4445 H   0  0  0  0  0  0  0  0  0  0  0  0
    6.9221    7.6440  -12.6457 H   0  0  0  0  0  0  0  0  0  0  0  0
    5.7306    5.6277  -13.1465 H   0  0  0  0  0  0  0  0  0  0  0  0
    5.7141    4.4904  -11.8437 H   0  0  0  0  0  0  0  0  0  0  0  0
    8.7046    4.9187  -14.3744 H   0  0  0  0  0  0  0  0  0  0  0  0
    7.5511   -0.1852  -15.4627 H   0  0  0  0  0  0  0  0  0  0  0  0
    5.4790   -1.1906  -14.5312 H   0  0  0  0  0  0  0  0  0  0  0  0
    4.0219    0.1655  -13.0486 H   0  0  0  0  0  0  0  0  0  0  0  0
    4.6351    2.4764  -12.4499 H   0  0  0  0  0  0  0  0  0  0  0  0
    7.9738    4.1870  -10.5305 H   0  0  0  0  0  0  0  0  0  0  0  0
    9.0054    4.3836  -11.9086 H   0  0  0  0  0  0  0  0  0  0  0  0
   10.2329    5.1168   -9.9988 H   0  0  0  0  0  0  0  0  0  0  0  0
    8.8919    6.0363   -9.4363 H   0  0  0  0  0  0  0  0  0  0  0  0
    6.8326    6.1423  -10.9821 H   0  0  0  0  0  0  0  0  0  0  0  0
  2  1  1  0
  3  2  1  0
  4  3  1  0
  5  4  1  0
  6  5  2  0
  7  6  1  0
  8  7  2  0
  9  8  1  0
 10  5  1  0
 10  9  2  0
 11  4  1  1
 12 11  1  0
 13 12  1  0
 14 13  1  0
 15 14  1  0
 16 15  1  0
 17 16  2  0
 18 17  1  0
 19 18  1  0
 20 19  2  0
 21 20  1  0
 22 21  2  0
 23 22  1  0
 24 16  1  0
 24 19  1  0
 24 23  2  0
 25 14  1  0
 26 11  1  0
 26 25  1  0
 27  2  1  0
 27 11  1  0
 28 27  2  0
 29  1  1  0
 30  1  1  0
 31  1  1  0
 32  3  1  0
 33  3  1  0
 34  6  1  0
 35  7  1  0
 36  8  1  0
 37  9  1  0
 38 10  1  0
 39 12  1  0
 40 12  1  0
 41 13  1  0
 42 13  1  0
 43 15  1  0
 44 15  1  0
 45 17  1  0
 46 20  1  0
 47 21  1  0
 48 22  1  0
 49 23  1  0
 50 25  1  0
 51 25  1  0
 52 26  1  0
 53 26  1  0
 14 54  1  1
M  CHG  1  14   1
M  END
>  <b_m_subgroup_collapsed>  (766) 
0

>  <r_i_docking_score>  (766) 
-7.3757181447206799

>  <s_m_subgroup_title>  (766) 
glide-dock_SP_D22_pv

>  <s_m_subgroupid>  (766) 
glide-dock_SP_D22_pv

>  <Molecule ChEMBL ID>  (766) 
CHEMBL1169728

>  <Standard Type>  (766) 
Ki

>  <Standard Value>  (766) 
71.4

>  <label>  (766) 
1

$$$$
CHEMBL1087300
     RDKit          3D

 45 48  0  0  1  0  0  0  0  0999 V2000
    8.6006    7.1479  -12.0372 C   0  0  0  0  0  0  0  0  0  0  0  0
    9.2943    6.1144  -12.8439 N   0  0  1  0  0  0  0  0  0  0  0  0
   10.7771    6.2980  -12.8575 C   0  0  0  0  0  0  0  0  0  0  0  0
   11.6307    5.2396  -13.6069 C   0  0  0  0  0  0  0  0  0  0  0  0
   11.2757    5.0035  -15.0744 C   0  0  0  0  0  0  0  0  0  0  0  0
   11.5106    6.0590  -15.9817 C   0  0  0  0  0  0  0  0  0  0  0  0
   11.2330    5.9069  -17.3518 C   0  0  0  0  0  0  0  0  0  0  0  0
   10.7264    4.6897  -17.8330 C   0  0  0  0  0  0  0  0  0  0  0  0
   10.5070    3.6220  -16.9446 C   0  0  0  0  0  0  0  0  0  0  0  0
   10.7759    3.7605  -15.5644 C   0  0  0  0  0  0  0  0  0  0  0  0
   10.5516    2.5582  -14.6459 C   0  0  0  0  0  0  0  0  0  0  0  0
    9.4500    1.5936  -14.9930 C   0  0  0  0  0  0  0  0  0  0  0  0
    9.5199    0.3457  -15.5423 C   0  0  0  0  0  0  0  0  0  0  0  0
    8.2985   -0.2276  -15.2803 N   0  0  0  0  0  0  0  0  0  0  0  0
    7.4889    0.6414  -14.6182 C   0  0  0  0  0  0  0  0  0  0  0  0
    6.2195    0.4120  -14.1141 C   0  0  0  0  0  0  0  0  0  0  0  0
    5.5112    1.4212  -13.4471 C   0  0  0  0  0  0  0  0  0  0  0  0
    6.0859    2.6932  -13.3488 C   0  0  0  0  0  0  0  0  0  0  0  0
    7.3851    2.9261  -13.8470 C   0  0  0  0  0  0  0  0  0  0  0  0
    8.1349    1.8724  -14.4602 C   0  0  0  0  0  0  0  0  0  0  0  0
    8.0053    4.3045  -13.8732 C   0  0  0  0  0  0  0  0  0  0  0  0
    8.7513    4.7543  -12.6014 C   0  0  0  0  0  0  0  0  0  0  0  0
    8.7410    6.9759  -10.9693 H   0  0  0  0  0  0  0  0  0  0  0  0
    7.5306    7.1373  -12.2481 H   0  0  0  0  0  0  0  0  0  0  0  0
    8.9675    8.1481  -12.2701 H   0  0  0  0  0  0  0  0  0  0  0  0
   10.9817    7.2686  -13.3077 H   0  0  0  0  0  0  0  0  0  0  0  0
   11.1354    6.3982  -11.8388 H   0  0  0  0  0  0  0  0  0  0  0  0
   12.6608    5.5982  -13.6022 H   0  0  0  0  0  0  0  0  0  0  0  0
   11.6995    4.3161  -13.0472 H   0  0  0  0  0  0  0  0  0  0  0  0
   11.9079    6.9997  -15.6315 H   0  0  0  0  0  0  0  0  0  0  0  0
   11.4167    6.7248  -18.0341 H   0  0  0  0  0  0  0  0  0  0  0  0
   10.5177    4.5698  -18.8859 H   0  0  0  0  0  0  0  0  0  0  0  0
   10.1378    2.6871  -17.3385 H   0  0  0  0  0  0  0  0  0  0  0  0
   11.4927    2.0108  -14.6671 H   0  0  0  0  0  0  0  0  0  0  0  0
   10.4401    2.8158  -13.6057 H   0  0  0  0  0  0  0  0  0  0  0  0
   10.3419   -0.2036  -15.9772 H   0  0  0  0  0  0  0  0  0  0  0  0
    8.0860   -1.2140  -15.4470 H   0  0  0  0  0  0  0  0  0  0  0  0
    5.7681   -0.5607  -14.2377 H   0  0  0  0  0  0  0  0  0  0  0  0
    4.5183    1.2375  -13.0619 H   0  0  0  0  0  0  0  0  0  0  0  0
    5.5249    3.4960  -12.8913 H   0  0  0  0  0  0  0  0  0  0  0  0
    8.5686    4.4566  -14.7831 H   0  0  0  0  0  0  0  0  0  0  0  0
    7.1578    4.9739  -13.9991 H   0  0  0  0  0  0  0  0  0  0  0  0
    9.5269    4.0697  -12.2728 H   0  0  0  0  0  0  0  0  0  0  0  0
    8.0420    4.7671  -11.7719 H   0  0  0  0  0  0  0  0  0  0  0  0
    9.0274    6.3085  -13.7991 H   0  0  0  0  0  0  0  0  0  0  0  0
  2  1  1  0
  3  2  1  0
  4  3  1  0
  5  4  1  0
  6  5  2  0
  7  6  1  0
  8  7  2  0
  9  8  1  0
 10  5  1  0
 10  9  2  0
 11 10  1  0
 12 11  1  0
 13 12  2  0
 14 13  1  0
 15 14  1  0
 16 15  2  0
 17 16  1  0
 18 17  2  0
 19 18  1  0
 20 12  1  0
 20 15  1  0
 20 19  2  0
 21 19  1  0
 22  2  1  0
 22 21  1  0
 23  1  1  0
 24  1  1  0
 25  1  1  0
 26  3  1  0
 27  3  1  0
 28  4  1  0
 29  4  1  0
 30  6  1  0
 31  7  1  0
 32  8  1  0
 33  9  1  0
 34 11  1  0
 35 11  1  0
 36 13  1  0
 37 14  1  0
 38 16  1  0
 39 17  1  0
 40 18  1  0
 41 21  1  0
 42 21  1  0
 43 22  1  0
 44 22  1  0
  2 45  1  6
M  CHG  1   2   1
M  END
>  <b_m_subgroup_collapsed>  (767) 
0

>  <r_i_docking_score>  (767) 
-7.3755298766361097

>  <s_m_subgroup_title>  (767) 
glide-dock_SP_D22_pv

>  <s_m_subgroupid>  (767) 
glide-dock_SP_D22_pv

>  <Molecule ChEMBL ID>  (767) 
CHEMBL1087300

>  <Standard Type>  (767) 
Ki

>  <Standard Value>  (767) 
4.0

>  <label>  (767) 
1

$$$$
CHEMBL382780
     RDKit          3D

 46 49  0  0  1  0  0  0  0  0999 V2000
   10.9500    7.6543  -11.0767 O   0  0  0  0  0  0  0  0  0  0  0  0
   10.0865    6.7784  -11.0017 C   0  0  0  0  0  0  0  0  0  0  0  0
    9.7217    5.9453  -12.2739 C   0  0  1  0  0  0  0  0  0  0  0  0
   10.8771    5.7004  -13.2862 C   0  0  0  0  0  0  0  0  0  0  0  0
   11.1014    4.4139  -13.8449 C   0  0  0  0  0  0  0  0  0  0  0  0
   12.0864    4.2037  -14.8283 C   0  0  0  0  0  0  0  0  0  0  0  0
   12.8725    5.2752  -15.2840 C   0  0  0  0  0  0  0  0  0  0  0  0
   12.6656    6.5595  -14.7530 C   0  0  0  0  0  0  0  0  0  0  0  0
   11.6858    6.7647  -13.7636 C   0  0  0  0  0  0  0  0  0  0  0  0
    8.9331    4.6636  -11.9217 C   0  0  0  0  0  0  0  0  0  0  0  0
    7.8487    4.9377  -10.8890 C   0  0  0  0  0  0  0  0  0  0  0  0
    8.4847    5.4641   -9.6025 C   0  0  0  0  0  0  0  0  0  0  0  0
    9.4158    6.5724   -9.8360 N   0  0  0  0  0  0  0  0  0  0  0  0
    9.5887    7.4692   -8.6816 C   0  0  0  0  0  0  0  0  0  0  0  0
   10.8149    7.0936   -7.8250 C   0  0  0  0  0  0  0  0  0  0  0  0
   11.1271    8.1263   -6.7803 C   0  0  0  0  0  0  0  0  0  0  0  0
   11.3031    9.4613   -7.0255 C   0  0  0  0  0  0  0  0  0  0  0  0
   11.6009   10.1176   -5.8463 N   0  0  0  0  0  0  0  0  0  0  0  0
   11.6883    9.2168   -4.8061 C   0  0  0  0  0  0  0  0  0  0  0  0
   12.0211    9.3719   -3.4481 C   0  0  0  0  0  0  0  0  0  0  0  0
   12.0854    8.2398   -2.6178 C   0  0  0  0  0  0  0  0  0  0  0  0
   11.7916    6.9699   -3.1481 C   0  0  0  0  0  0  0  0  0  0  0  0
   11.4380    6.8270   -4.5066 C   0  0  0  0  0  0  0  0  0  0  0  0
   11.3831    7.9427   -5.3740 C   0  0  0  0  0  0  0  0  0  0  0  0
    9.0186    6.5840  -12.8092 H   0  0  0  0  0  0  0  0  0  0  0  0
   10.5201    3.5553  -13.5476 H   0  0  0  0  0  0  0  0  0  0  0  0
   12.2356    3.2162  -15.2389 H   0  0  0  0  0  0  0  0  0  0  0  0
   13.6266    5.1138  -16.0403 H   0  0  0  0  0  0  0  0  0  0  0  0
   13.2602    7.3904  -15.1026 H   0  0  0  0  0  0  0  0  0  0  0  0
   11.5361    7.7719  -13.4113 H   0  0  0  0  0  0  0  0  0  0  0  0
    8.4653    4.2516  -12.8162 H   0  0  0  0  0  0  0  0  0  0  0  0
    9.6055    3.8992  -11.5288 H   0  0  0  0  0  0  0  0  0  0  0  0
    7.2862    4.0286  -10.6756 H   0  0  0  0  0  0  0  0  0  0  0  0
    7.1342    5.6665  -11.2751 H   0  0  0  0  0  0  0  0  0  0  0  0
    9.0296    4.6621   -9.1028 H   0  0  0  0  0  0  0  0  0  0  0  0
    7.6870    5.7691   -8.9242 H   0  0  0  0  0  0  0  0  0  0  0  0
    9.6787    8.4934   -9.0475 H   0  0  0  0  0  0  0  0  0  0  0  0
    8.6964    7.4828   -8.0545 H   0  0  0  0  0  0  0  0  0  0  0  0
   10.6469    6.1221   -7.3601 H   0  0  0  0  0  0  0  0  0  0  0  0
   11.6856    6.9715   -8.4682 H   0  0  0  0  0  0  0  0  0  0  0  0
   11.2606    9.9897   -7.9649 H   0  0  0  0  0  0  0  0  0  0  0  0
   11.7820   11.1093   -5.7962 H   0  0  0  0  0  0  0  0  0  0  0  0
   12.2394   10.3478   -3.0420 H   0  0  0  0  0  0  0  0  0  0  0  0
   12.3480    8.3495   -1.5753 H   0  0  0  0  0  0  0  0  0  0  0  0
   11.8302    6.0970   -2.5115 H   0  0  0  0  0  0  0  0  0  0  0  0
   11.2226    5.8434   -4.8965 H   0  0  0  0  0  0  0  0  0  0  0  0
  2  1  2  0
  3  2  1  0
  4  3  1  0
  5  4  2  0
  6  5  1  0
  7  6  2  0
  8  7  1  0
  9  4  1  0
  9  8  2  0
 10  3  1  0
 11 10  1  0
 12 11  1  0
 13  2  1  0
 13 12  1  0
 14 13  1  0
 15 14  1  0
 16 15  1  0
 17 16  2  0
 18 17  1  0
 19 18  1  0
 20 19  2  0
 21 20  1  0
 22 21  2  0
 23 22  1  0
 24 16  1  0
 24 19  1  0
 24 23  2  0
  3 25  1  6
 26  5  1  0
 27  6  1  0
 28  7  1  0
 29  8  1  0
 30  9  1  0
 31 10  1  0
 32 10  1  0
 33 11  1  0
 34 11  1  0
 35 12  1  0
 36 12  1  0
 37 14  1  0
 38 14  1  0
 39 15  1  0
 40 15  1  0
 41 17  1  0
 42 18  1  0
 43 20  1  0
 44 21  1  0
 45 22  1  0
 46 23  1  0
M  END
>  <b_m_subgroup_collapsed>  (768) 
0

>  <r_i_docking_score>  (768) 
-7.3740747889081604

>  <s_m_subgroup_title>  (768) 
glide-dock_SP_D22_pv

>  <s_m_subgroupid>  (768) 
glide-dock_SP_D22_pv

>  <Molecule ChEMBL ID>  (768) 
CHEMBL382780

>  <Standard Type>  (768) 
Ki

>  <Standard Value>  (768) 
10000.0

>  <label>  (768) 
0

$$$$
CHEMBL5870352
     RDKit          3D

 72 77  0  0  1  0  0  0  0  0999 V2000
   16.3710    2.5199  -20.6500 C   0  0  0  0  0  0  0  0  0  0  0  0
   15.2448    1.8213  -20.0474 N   0  0  0  0  0  0  0  0  0  0  0  0
   14.2319    2.5466  -19.2624 C   0  0  0  0  0  0  0  0  0  0  0  0
   13.2291    1.4651  -18.9386 C   0  0  0  0  0  0  0  0  0  0  0  0
   12.0316    1.5165  -18.1912 C   0  0  0  0  0  0  0  0  0  0  0  0
   11.5362    2.7919  -17.5715 C   0  0  0  0  0  0  0  0  0  0  0  0
   11.7883    3.8890  -18.0640 O   0  0  0  0  0  0  0  0  0  0  0  0
   10.8507    2.6316  -16.4264 N   0  0  0  0  0  0  0  0  0  0  0  0
   10.3229    3.7080  -15.6041 C   0  0  1  0  0  0  0  0  0  0  0  0
    9.0943    3.2152  -14.8178 C   0  0  0  0  0  0  0  0  0  0  0  0
    8.5521    4.3083  -13.8808 C   0  0  0  0  0  0  0  0  0  0  0  0
    9.6394    4.8108  -12.9117 C   0  0  2  0  0  0  0  0  0  0  0  0
    9.0789    5.8791  -11.9506 C   0  0  0  0  0  0  0  0  0  0  0  0
   10.0870    6.2458  -10.8508 C   0  0  0  0  0  0  0  0  0  0  0  0
    9.5224    7.0638   -9.7633 N   0  0  1  0  0  0  0  0  0  0  0  0
    8.6711    6.2949   -8.8259 C   0  0  0  0  0  0  0  0  0  0  0  0
    8.6841    7.0913   -7.5539 C   0  0  2  0  0  0  0  0  0  0  0  0
    8.4856    8.5878   -7.5423 C   0  0  0  0  0  0  0  0  0  0  0  0
    9.8600    8.0051   -7.6130 C   0  0  1  0  0  0  0  0  0  0  0  0
   10.7646    8.2260   -6.4484 C   0  0  0  0  0  0  0  0  0  0  0  0
   10.9699    7.3502   -5.3541 C   0  0  0  0  0  0  0  0  0  0  0  0
   11.7773    8.0675   -4.5245 C   0  0  0  0  0  0  0  0  0  0  0  0
   12.4255    7.7318   -3.2286 C   0  0  0  0  0  0  0  0  0  0  0  0
   12.4082    8.9033   -2.2403 C   0  0  0  0  0  0  0  0  0  0  0  0
   11.8129    6.7087   -2.6325 F   0  0  0  0  0  0  0  0  0  0  0  0
   13.6859    7.3722   -3.4429 F   0  0  0  0  0  0  0  0  0  0  0  0
   12.0836    9.2693   -5.0846 O   0  0  0  0  0  0  0  0  0  0  0  0
   11.4060    9.3708   -6.3035 N   0  0  0  0  0  0  0  0  0  0  0  0
   10.5415    7.7716   -8.9394 C   0  0  0  0  0  0  0  0  0  0  0  0
   10.8734    5.2990  -13.7066 C   0  0  0  0  0  0  0  0  0  0  0  0
   11.4140    4.2087  -14.6413 C   0  0  0  0  0  0  0  0  0  0  0  0
   11.2917    0.3117  -18.0682 C   0  0  0  0  0  0  0  0  0  0  0  0
   11.7582   -0.8893  -18.6466 C   0  0  0  0  0  0  0  0  0  0  0  0
   12.9758   -0.9216  -19.3676 C   0  0  0  0  0  0  0  0  0  0  0  0
   13.6863    0.2806  -19.4942 C   0  0  0  0  0  0  0  0  0  0  0  0
   14.9677    0.5112  -20.2004 C   0  0  0  0  0  0  0  0  0  0  0  0
   15.6219   -0.3397  -20.8015 O   0  0  0  0  0  0  0  0  0  0  0  0
   17.3068    1.9857  -20.4708 H   0  0  0  0  0  0  0  0  0  0  0  0
   16.2283    2.6001  -21.7288 H   0  0  0  0  0  0  0  0  0  0  0  0
   16.4700    3.5305  -20.2494 H   0  0  0  0  0  0  0  0  0  0  0  0
   13.7749    3.3416  -19.8527 H   0  0  0  0  0  0  0  0  0  0  0  0
   14.6614    2.9685  -18.3528 H   0  0  0  0  0  0  0  0  0  0  0  0
   10.7234    1.6902  -16.0887 H   0  0  0  0  0  0  0  0  0  0  0  0
   10.0087    4.5345  -16.2444 H   0  0  0  0  0  0  0  0  0  0  0  0
    9.3595    2.3363  -14.2275 H   0  0  0  0  0  0  0  0  0  0  0  0
    8.3107    2.9004  -15.5077 H   0  0  0  0  0  0  0  0  0  0  0  0
    7.7047    3.9133  -13.3205 H   0  0  0  0  0  0  0  0  0  0  0  0
    8.1660    5.1405  -14.4718 H   0  0  0  0  0  0  0  0  0  0  0  0
    9.9509    3.9558  -12.3076 H   0  0  0  0  0  0  0  0  0  0  0  0
    8.1676    5.4941  -11.4940 H   0  0  0  0  0  0  0  0  0  0  0  0
    8.7880    6.7729  -12.5032 H   0  0  0  0  0  0  0  0  0  0  0  0
   10.9199    6.7917  -11.2930 H   0  0  0  0  0  0  0  0  0  0  0  0
   10.4860    5.3408  -10.3984 H   0  0  0  0  0  0  0  0  0  0  0  0
    9.0850    5.3062   -8.6215 H   0  0  0  0  0  0  0  0  0  0  0  0
    7.6719    6.1723   -9.2215 H   0  0  0  0  0  0  0  0  0  0  0  0
    8.4572    6.5528   -6.6380 H   0  0  0  0  0  0  0  0  0  0  0  0
    8.0924    8.9721   -6.6062 H   0  0  0  0  0  0  0  0  0  0  0  0
    8.1037    9.0815   -8.4324 H   0  0  0  0  0  0  0  0  0  0  0  0
   10.5784    6.3566   -5.1853 H   0  0  0  0  0  0  0  0  0  0  0  0
   12.8880    8.6396   -1.2960 H   0  0  0  0  0  0  0  0  0  0  0  0
   12.9285    9.7718   -2.6457 H   0  0  0  0  0  0  0  0  0  0  0  0
   11.3854    9.2106   -2.0264 H   0  0  0  0  0  0  0  0  0  0  0  0
   10.8617    8.7102   -9.3912 H   0  0  0  0  0  0  0  0  0  0  0  0
   11.4122    7.1328   -8.7869 H   0  0  0  0  0  0  0  0  0  0  0  0
   10.6115    6.1716  -14.3012 H   0  0  0  0  0  0  0  0  0  0  0  0
   11.6806    5.6076  -13.0469 H   0  0  0  0  0  0  0  0  0  0  0  0
   11.7989    3.3786  -14.0474 H   0  0  0  0  0  0  0  0  0  0  0  0
   12.2628    4.6020  -15.2049 H   0  0  0  0  0  0  0  0  0  0  0  0
   10.3541    0.2891  -17.5310 H   0  0  0  0  0  0  0  0  0  0  0  0
   11.1726   -1.7910  -18.5373 H   0  0  0  0  0  0  0  0  0  0  0  0
   13.3485   -1.8370  -19.8077 H   0  0  0  0  0  0  0  0  0  0  0  0
    8.9178    7.7714  -10.1678 H   0  0  0  0  0  0  0  0  0  0  0  0
  2  1  1  0
  3  2  1  0
  4  3  1  0
  5  4  1  0
  6  5  1  0
  7  6  2  0
  8  6  1  0
  9  8  1  0
 10  9  1  0
 11 10  1  0
 12 11  1  0
 13 12  1  0
 14 13  1  0
 15 14  1  0
 16 15  1  0
 17 16  1  0
 18 17  1  0
 19 17  1  0
 19 18  1  0
 19 20  1  1
 21 20  1  0
 22 21  2  0
 23 22  1  0
 24 23  1  0
 25 23  1  0
 26 23  1  0
 27 22  1  0
 28 20  2  0
 28 27  1  0
 29 15  1  0
 29 19  1  0
 30 12  1  0
 31  9  1  0
 31 30  1  0
 32  5  2  0
 33 32  1  0
 34 33  2  0
 35  4  2  0
 35 34  1  0
 36  2  1  0
 36 35  1  0
 37 36  2  0
 38  1  1  0
 39  1  1  0
 40  1  1  0
 41  3  1  0
 42  3  1  0
 43  8  1  0
  9 44  1  6
 45 10  1  0
 46 10  1  0
 47 11  1  0
 48 11  1  0
 12 49  1  1
 50 13  1  0
 51 13  1  0
 52 14  1  0
 53 14  1  0
 54 16  1  0
 55 16  1  0
 17 56  1  1
 57 18  1  0
 58 18  1  0
 59 21  1  0
 60 24  1  0
 61 24  1  0
 62 24  1  0
 63 29  1  0
 64 29  1  0
 65 30  1  0
 66 30  1  0
 67 31  1  0
 68 31  1  0
 69 32  1  0
 70 33  1  0
 71 34  1  0
 15 72  1  6
M  CHG  1  15   1
M  END
>  <b_m_subgroup_collapsed>  (769) 
0

>  <r_i_docking_score>  (769) 
-7.3686934252729097

>  <s_m_subgroup_title>  (769) 
glide-dock_SP_D22_pv

>  <s_m_subgroupid>  (769) 
glide-dock_SP_D22_pv

>  <Molecule ChEMBL ID>  (769) 
CHEMBL5870352

>  <Standard Type>  (769) 
Ki

>  <Standard Value>  (769) 
86.0

>  <label>  (769) 
1

$$$$
CHEMBL413483
     RDKit          3D

 41 42  0  0  1  0  0  0  0  0999 V2000
   11.8421    7.5097  -11.4327 C   0  0  0  0  0  0  0  0  0  0  0  0
   10.4459    7.3851  -12.0606 C   0  0  0  0  0  0  0  0  0  0  0  0
    9.2940    8.1230  -11.3168 C   0  0  1  0  0  0  0  0  0  0  0  0
    8.1001    8.3609  -12.2542 C   0  0  0  0  0  0  0  0  0  0  0  0
    8.8877    7.5288  -10.0033 N   0  0  1  0  0  0  0  0  0  0  0  0
    8.9166    6.0421   -9.9525 C   0  0  0  0  0  0  0  0  0  0  0  0
    8.5091    5.5162   -8.5770 C   0  0  0  0  0  0  0  0  0  0  0  0
    9.4066    6.0865   -7.4833 C   0  0  0  0  0  0  0  0  0  0  0  0
    9.4398    7.6182   -7.4753 C   0  0  1  0  0  0  0  0  0  0  0  0
   10.4699    8.1684   -6.4623 C   0  0  0  0  0  0  0  0  0  0  0  0
   11.0540    9.4443   -6.6364 C   0  0  0  0  0  0  0  0  0  0  0  0
   11.9479    9.9773   -5.6960 C   0  0  0  0  0  0  0  0  0  0  0  0
   12.2801    9.2500   -4.5415 C   0  0  0  0  0  0  0  0  0  0  0  0
   11.7400    7.9634   -4.3604 C   0  0  0  0  0  0  0  0  0  0  0  0
   12.0865    7.1922   -3.1819 C   0  0  0  0  0  0  0  0  0  0  0  0
   12.3640    6.5750   -2.2469 N   0  0  0  0  0  0  0  0  0  0  0  0
   10.8673    7.4195   -5.3256 C   0  0  0  0  0  0  0  0  0  0  0  0
    9.6649    8.1756   -8.9001 C   0  0  0  0  0  0  0  0  0  0  0  0
   12.5930    7.0978  -12.1079 H   0  0  0  0  0  0  0  0  0  0  0  0
   12.1092    8.5507  -11.2497 H   0  0  0  0  0  0  0  0  0  0  0  0
   11.9262    6.9725  -10.4915 H   0  0  0  0  0  0  0  0  0  0  0  0
   10.2037    6.3414  -12.2549 H   0  0  0  0  0  0  0  0  0  0  0  0
   10.5444    7.8242  -13.0456 H   0  0  0  0  0  0  0  0  0  0  0  0
    9.6576    9.1260  -11.1192 H   0  0  0  0  0  0  0  0  0  0  0  0
    8.4529    8.9656  -13.0764 H   0  0  0  0  0  0  0  0  0  0  0  0
    7.6822    7.4325  -12.6397 H   0  0  0  0  0  0  0  0  0  0  0  0
    7.2937    8.9654  -11.8452 H   0  0  0  0  0  0  0  0  0  0  0  0
    9.9154    5.6649  -10.1652 H   0  0  0  0  0  0  0  0  0  0  0  0
    8.2457    5.6416  -10.7147 H   0  0  0  0  0  0  0  0  0  0  0  0
    8.5571    4.4269   -8.5653 H   0  0  0  0  0  0  0  0  0  0  0  0
    7.4788    5.7723   -8.3601 H   0  0  0  0  0  0  0  0  0  0  0  0
   10.4174    5.6858   -7.5916 H   0  0  0  0  0  0  0  0  0  0  0  0
    9.0089    5.7726   -6.5245 H   0  0  0  0  0  0  0  0  0  0  0  0
    8.4589    7.9622   -7.1413 H   0  0  0  0  0  0  0  0  0  0  0  0
   10.8400   10.0560   -7.4902 H   0  0  0  0  0  0  0  0  0  0  0  0
   12.3780   10.9531   -5.8654 H   0  0  0  0  0  0  0  0  0  0  0  0
   12.9565    9.6738   -3.8117 H   0  0  0  0  0  0  0  0  0  0  0  0
   10.4703    6.4329   -5.1370 H   0  0  0  0  0  0  0  0  0  0  0  0
    9.4093    9.2364   -8.9057 H   0  0  0  0  0  0  0  0  0  0  0  0
   10.7270    8.1074   -9.1171 H   0  0  0  0  0  0  0  0  0  0  0  0
    7.8905    7.7720   -9.8941 H   0  0  0  0  0  0  0  0  0  0  0  0
  2  1  1  0
  3  2  1  0
  4  3  1  0
  5  3  1  0
  6  5  1  0
  7  6  1  0
  8  7  1  0
  9  8  1  0
 10  9  1  0
 11 10  2  0
 12 11  1  0
 13 12  2  0
 14 13  1  0
 15 14  1  0
 16 15  3  0
 17 10  1  0
 17 14  2  0
 18  5  1  0
 18  9  1  0
 19  1  1  0
 20  1  1  0
 21  1  1  0
 22  2  1  0
 23  2  1  0
  3 24  1  1
 25  4  1  0
 26  4  1  0
 27  4  1  0
 28  6  1  0
 29  6  1  0
 30  7  1  0
 31  7  1  0
 32  8  1  0
 33  8  1  0
  9 34  1  1
 35 11  1  0
 36 12  1  0
 37 13  1  0
 38 17  1  0
 39 18  1  0
 40 18  1  0
  5 41  1  1
M  CHG  1   5   1
M  END
>  <b_m_subgroup_collapsed>  (770) 
0

>  <r_i_docking_score>  (770) 
-7.3663214867248596

>  <s_m_subgroup_title>  (770) 
glide-dock_SP_D22_pv

>  <s_m_subgroupid>  (770) 
glide-dock_SP_D22_pv

>  <Molecule ChEMBL ID>  (770) 
CHEMBL413483

>  <Standard Type>  (770) 
Ki

>  <Standard Value>  (770) 
98.0

>  <label>  (770) 
1

$$$$
CHEMBL5201074
     RDKit          3D

 45 46  0  0  1  0  0  0  0  0999 V2000
   11.6568   10.8250   -6.1135 C   0  0  0  0  0  0  0  0  0  0  0  0
   10.7413    9.7130   -5.5736 C   0  0  1  0  0  0  0  0  0  0  0  0
   10.1174    8.9336   -6.6516 N   0  0  0  0  0  0  0  0  0  0  0  0
   10.7313    8.4784   -7.7555 C   0  0  0  0  0  0  0  0  0  0  0  0
   11.9438    8.5444   -7.9588 O   0  0  0  0  0  0  0  0  0  0  0  0
    9.8338    7.9094   -8.7241 N   0  0  0  0  0  0  0  0  0  0  0  0
   10.1829    7.5108   -9.9704 C   0  0  0  0  0  0  0  0  0  0  0  0
   11.4032    7.7186  -10.5043 N   0  0  0  0  0  0  0  0  0  0  0  0
    9.2467    6.8834  -10.7028 N   0  0  0  0  0  0  0  0  0  0  0  0
    9.4425    6.2678  -12.0240 C   0  0  0  0  0  0  0  0  0  0  0  0
    8.6504    4.9681  -12.1693 C   0  0  0  0  0  0  0  0  0  0  0  0
    7.1837    5.2086  -12.5404 C   0  0  0  0  0  0  0  0  0  0  0  0
    6.4712    3.9254  -12.7722 C   0  0  0  0  0  0  0  0  0  0  0  0
    6.5908    3.1562  -13.8469 N   0  0  0  0  0  0  0  0  0  0  0  0
    5.8349    2.0838  -13.4619 C   0  0  0  0  0  0  0  0  0  0  0  0
    5.2835    2.1679  -12.2555 N   0  0  0  0  0  0  0  0  0  0  0  0
    5.6861    3.3881  -11.8469 N   0  0  0  0  0  0  0  0  0  0  0  0
   11.4025    8.9035   -4.4644 C   0  0  0  0  0  0  0  0  0  0  0  0
   11.5654    7.5026   -4.5492 C   0  0  0  0  0  0  0  0  0  0  0  0
   12.0860    6.7892   -3.4559 C   0  0  0  0  0  0  0  0  0  0  0  0
   12.4860    7.4577   -2.2886 C   0  0  0  0  0  0  0  0  0  0  0  0
   12.3664    8.8535   -2.2103 C   0  0  0  0  0  0  0  0  0  0  0  0
   11.8141    9.5674   -3.2885 C   0  0  0  0  0  0  0  0  0  0  0  0
   11.6860   11.6738   -5.4469 H   0  0  0  0  0  0  0  0  0  0  0  0
   12.6761   10.4735   -6.2737 H   0  0  0  0  0  0  0  0  0  0  0  0
   11.2861   11.2239   -7.0469 H   0  0  0  0  0  0  0  0  0  0  0  0
    9.9121   10.2076   -5.0685 H   0  0  0  0  0  0  0  0  0  0  0  0
    9.1194    8.7944   -6.5697 H   0  0  0  0  0  0  0  0  0  0  0  0
   12.1034    8.2143   -9.9651 H   0  0  0  0  0  0  0  0  0  0  0  0
   11.6096    7.4354  -11.4501 H   0  0  0  0  0  0  0  0  0  0  0  0
    8.2781    6.9447  -10.3918 H   0  0  0  0  0  0  0  0  0  0  0  0
   10.4948    6.0342  -12.1757 H   0  0  0  0  0  0  0  0  0  0  0  0
    9.1578    6.9748  -12.7970 H   0  0  0  0  0  0  0  0  0  0  0  0
    8.7092    4.3853  -11.2488 H   0  0  0  0  0  0  0  0  0  0  0  0
    9.1204    4.3569  -12.9413 H   0  0  0  0  0  0  0  0  0  0  0  0
    7.1227    5.8037  -13.4468 H   0  0  0  0  0  0  0  0  0  0  0  0
    6.6746    5.7706  -11.7557 H   0  0  0  0  0  0  0  0  0  0  0  0
    5.6948    1.2144  -14.0875 H   0  0  0  0  0  0  0  0  0  0  0  0
    5.4807    3.7717  -10.9271 H   0  0  0  0  0  0  0  0  0  0  0  0
   11.2592    6.9509   -5.4247 H   0  0  0  0  0  0  0  0  0  0  0  0
   12.1844    5.7208   -3.5157 H   0  0  0  0  0  0  0  0  0  0  0  0
   12.8838    6.8962   -1.4563 H   0  0  0  0  0  0  0  0  0  0  0  0
   12.6719    9.3731   -1.3142 H   0  0  0  0  0  0  0  0  0  0  0  0
   11.6860   10.6331   -3.1902 H   0  0  0  0  0  0  0  0  0  0  0  0
    8.8479    7.7885   -8.5274 H   0  0  0  0  0  0  0  0  0  0  0  0
  2  1  1  0
  3  2  1  0
  4  3  1  0
  5  4  2  0
  6  4  1  0
  7  6  2  0
  8  7  1  0
  9  7  1  0
 10  9  1  0
 11 10  1  0
 12 11  1  0
 13 12  1  0
 14 13  2  0
 15 14  1  0
 16 15  2  0
 17 13  1  0
 17 16  1  0
 18  2  1  0
 19 18  2  0
 20 19  1  0
 21 20  2  0
 22 21  1  0
 23 18  1  0
 23 22  2  0
 24  1  1  0
 25  1  1  0
 26  1  1  0
  2 27  1  1
 28  3  1  0
 29  8  1  0
 30  8  1  0
 31  9  1  0
 32 10  1  0
 33 10  1  0
 34 11  1  0
 35 11  1  0
 36 12  1  0
 37 12  1  0
 38 15  1  0
 39 17  1  0
 40 19  1  0
 41 20  1  0
 42 21  1  0
 43 22  1  0
 44 23  1  0
 45  6  1  0
M  CHG  1   6   1
M  END
>  <b_m_subgroup_collapsed>  (771) 
0

>  <r_i_docking_score>  (771) 
-7.3656153035810403

>  <s_m_subgroup_title>  (771) 
glide-dock_SP_D22_pv

>  <s_m_subgroupid>  (771) 
glide-dock_SP_D22_pv

>  <Molecule ChEMBL ID>  (771) 
CHEMBL5201074

>  <Standard Type>  (771) 
Ki

>  <Standard Value>  (771) 
10000.0

>  <label>  (771) 
0

$$$$
CHEMBL2325932
     RDKit          3D

 54 58  0  0  1  0  0  0  0  0999 V2000
    9.4082    6.4542   -9.1129 C   0  0  0  0  0  0  0  0  0  0  0  0
    8.4867    6.1673  -10.2328 N   0  0  2  0  0  0  0  0  0  0  0  0
    8.3008    4.7158  -10.4770 C   0  0  0  0  0  0  0  0  0  0  0  0
    7.1677    4.4784  -11.4962 C   0  0  0  0  0  0  0  0  0  0  0  0
    7.4377    5.1850  -12.8320 C   0  0  2  0  0  0  0  0  0  0  0  0
    8.4570    4.4539  -13.6590 C   0  0  0  0  0  0  0  0  0  0  0  0
    9.6781    4.8928  -14.0919 C   0  0  0  0  0  0  0  0  0  0  0  0
   10.2737    3.9470  -14.9151 N   0  0  0  0  0  0  0  0  0  0  0  0
   11.4623    4.1906  -15.6439 C   0  0  0  0  0  0  0  0  0  0  0  0
   12.4774    4.9986  -15.0855 C   0  0  0  0  0  0  0  0  0  0  0  0
   13.5884    5.3757  -15.8635 C   0  0  0  0  0  0  0  0  0  0  0  0
   13.7107    4.9243  -17.1901 C   0  0  0  0  0  0  0  0  0  0  0  0
   14.7880    5.2779  -17.9301 F   0  0  0  0  0  0  0  0  0  0  0  0
   12.7129    4.1006  -17.7456 C   0  0  0  0  0  0  0  0  0  0  0  0
   11.5878    3.7437  -16.9786 C   0  0  0  0  0  0  0  0  0  0  0  0
    9.4666    2.8121  -14.9538 C   0  0  0  0  0  0  0  0  0  0  0  0
    9.5971    1.5511  -15.5677 C   0  0  0  0  0  0  0  0  0  0  0  0
    8.5150    0.6493  -15.5463 C   0  0  0  0  0  0  0  0  0  0  0  0
    7.2899    0.9987  -14.9301 C   0  0  0  0  0  0  0  0  0  0  0  0
    6.0870    0.1477  -15.0519 C   0  0  0  0  0  0  0  0  0  0  0  0
    5.0788    0.1108  -14.0598 C   0  0  0  0  0  0  0  0  0  0  0  0
    3.9002   -0.6271  -14.2883 C   0  0  0  0  0  0  0  0  0  0  0  0
    3.7752   -1.3201  -15.5068 C   0  0  0  0  0  0  0  0  0  0  0  0
    4.7300   -1.3193  -16.4550 N   0  0  0  0  0  0  0  0  0  0  0  0
    5.8509   -0.6103  -16.2217 C   0  0  0  0  0  0  0  0  0  0  0  0
    7.2152    2.2336  -14.2503 C   0  0  0  0  0  0  0  0  0  0  0  0
    8.2865    3.1543  -14.2332 C   0  0  0  0  0  0  0  0  0  0  0  0
    7.7541    6.6712  -12.5505 C   0  0  0  0  0  0  0  0  0  0  0  0
    8.8367    6.8890  -11.4745 C   0  0  0  0  0  0  0  0  0  0  0  0
   10.4124    6.0863   -9.3292 H   0  0  0  0  0  0  0  0  0  0  0  0
    9.4667    7.5269   -8.9267 H   0  0  0  0  0  0  0  0  0  0  0  0
    9.0555    5.9830   -8.1941 H   0  0  0  0  0  0  0  0  0  0  0  0
    8.0766    4.2172   -9.5343 H   0  0  0  0  0  0  0  0  0  0  0  0
    9.2346    4.2810  -10.8391 H   0  0  0  0  0  0  0  0  0  0  0  0
    6.2542    4.9129  -11.1071 H   0  0  0  0  0  0  0  0  0  0  0  0
    6.9554    3.4120  -11.6238 H   0  0  0  0  0  0  0  0  0  0  0  0
    6.5119    5.1680  -13.4125 H   0  0  0  0  0  0  0  0  0  0  0  0
   10.1532    5.8471  -13.9303 H   0  0  0  0  0  0  0  0  0  0  0  0
   12.4042    5.3567  -14.0697 H   0  0  0  0  0  0  0  0  0  0  0  0
   14.3572    6.0051  -15.4393 H   0  0  0  0  0  0  0  0  0  0  0  0
   12.7966    3.7642  -18.7680 H   0  0  0  0  0  0  0  0  0  0  0  0
   10.8051    3.1574  -17.4378 H   0  0  0  0  0  0  0  0  0  0  0  0
   10.5092    1.2867  -16.0826 H   0  0  0  0  0  0  0  0  0  0  0  0
    8.6186   -0.3017  -16.0503 H   0  0  0  0  0  0  0  0  0  0  0  0
    5.1864    0.6656  -13.1394 H   0  0  0  0  0  0  0  0  0  0  0  0
    3.0941   -0.6432  -13.5693 H   0  0  0  0  0  0  0  0  0  0  0  0
    2.8858   -1.8850  -15.7322 H   0  0  0  0  0  0  0  0  0  0  0  0
    6.5652   -0.6123  -17.0306 H   0  0  0  0  0  0  0  0  0  0  0  0
    6.2954    2.5282  -13.7689 H   0  0  0  0  0  0  0  0  0  0  0  0
    8.0368    7.1962  -13.4470 H   0  0  0  0  0  0  0  0  0  0  0  0
    6.8278    7.1612  -12.2504 H   0  0  0  0  0  0  0  0  0  0  0  0
    8.9244    7.9565  -11.2655 H   0  0  0  0  0  0  0  0  0  0  0  0
    9.8134    6.5598  -11.8267 H   0  0  0  0  0  0  0  0  0  0  0  0
    7.5773    6.5536   -9.9695 H   0  0  0  0  0  0  0  0  0  0  0  0
  2  1  1  0
  3  2  1  0
  4  3  1  0
  5  4  1  0
  6  5  1  0
  7  6  2  0
  8  7  1  0
  9  8  1  0
 10  9  1  0
 11 10  2  0
 12 11  1  0
 13 12  1  0
 14 12  2  0
 15  9  2  0
 15 14  1  0
 16  8  1  0
 17 16  2  0
 18 17  1  0
 19 18  2  0
 20 19  1  0
 21 20  1  0
 22 21  2  0
 23 22  1  0
 24 23  2  0
 25 20  2  0
 25 24  1  0
 26 19  1  0
 27  6  1  0
 27 16  1  0
 27 26  2  0
 28  5  1  0
 29  2  1  0
 29 28  1  0
 30  1  1  0
 31  1  1  0
 32  1  1  0
 33  3  1  0
 34  3  1  0
 35  4  1  0
 36  4  1  0
  5 37  1  6
 38  7  1  0
 39 10  1  0
 40 11  1  0
 41 14  1  0
 42 15  1  0
 43 17  1  0
 44 18  1  0
 45 21  1  0
 46 22  1  0
 47 23  1  0
 48 25  1  0
 49 26  1  0
 50 28  1  0
 51 28  1  0
 52 29  1  0
 53 29  1  0
  2 54  1  1
M  CHG  1   2   1
M  END
>  <b_m_subgroup_collapsed>  (772) 
0

>  <r_i_docking_score>  (772) 
-7.3610559492000602

>  <s_m_subgroup_title>  (772) 
glide-dock_SP_D22_pv

>  <s_m_subgroupid>  (772) 
glide-dock_SP_D22_pv

>  <Molecule ChEMBL ID>  (772) 
CHEMBL2325932

>  <Standard Type>  (772) 
Ki

>  <Standard Value>  (772) 
76.0

>  <label>  (772) 
1

$$$$
CHEMBL3765754
     RDKit          3D

 53 56  0  0  1  0  0  0  0  0999 V2000
    9.8747   -0.2710  -15.5300 C   0  0  0  0  0  0  0  0  0  0  0  0
   10.6971    0.6619  -16.3616 C   0  0  0  0  0  0  0  0  0  0  0  0
   11.2849    0.2332  -17.5440 N   0  0  0  0  0  0  0  0  0  0  0  0
   11.9533    1.2939  -17.9884 C   0  0  0  0  0  0  0  0  0  0  0  0
   11.8444    2.3875  -17.1908 O   0  0  0  0  0  0  0  0  0  0  0  0
   11.0469    1.9760  -16.1538 C   0  0  0  0  0  0  0  0  0  0  0  0
   10.7413    2.9524  -15.1126 C   0  0  0  0  0  0  0  0  0  0  0  0
   11.6801    3.7731  -14.6281 N   0  0  0  0  0  0  0  0  0  0  0  0
   11.0512    4.5664  -13.6964 N   0  0  0  0  0  0  0  0  0  0  0  0
    9.7785    4.1694  -13.6981 C   0  0  0  0  0  0  0  0  0  0  0  0
    8.5196    4.8616  -12.6788 S   0  0  0  0  0  0  0  0  0  0  0  0
    9.4476    4.9990  -11.1257 C   0  0  0  0  0  0  0  0  0  0  0  0
    8.4857    5.0885   -9.9416 C   0  0  0  0  0  0  0  0  0  0  0  0
    9.1558    5.2517   -8.5648 C   0  0  0  0  0  0  0  0  0  0  0  0
    9.8268    6.5282   -8.3025 N   0  0  0  0  0  0  0  0  0  0  0  0
    8.9079    7.6466   -8.4373 C   0  0  0  0  0  0  0  0  0  0  0  0
    9.5781    8.9810   -8.1437 C   0  0  0  0  0  0  0  0  0  0  0  0
   10.0556    8.9694   -6.8078 O   0  0  0  0  0  0  0  0  0  0  0  0
   10.9866    7.9230   -6.5394 C   0  0  1  0  0  0  0  0  0  0  0  0
   11.4377    8.0132   -5.0826 C   0  0  0  0  0  0  0  0  0  0  0  0
   11.6463    9.2900   -4.5166 C   0  0  0  0  0  0  0  0  0  0  0  0
   12.0874    9.4189   -3.1880 C   0  0  0  0  0  0  0  0  0  0  0  0
   12.3568    8.2747   -2.4199 C   0  0  0  0  0  0  0  0  0  0  0  0
   12.8387    8.4088   -1.1647 F   0  0  0  0  0  0  0  0  0  0  0  0
   12.1437    6.9963   -2.9666 C   0  0  0  0  0  0  0  0  0  0  0  0
   11.6861    6.8664   -4.2923 C   0  0  0  0  0  0  0  0  0  0  0  0
   10.3685    6.5558   -6.9414 C   0  0  0  0  0  0  0  0  0  0  0  0
    9.5218    3.1793  -14.5750 N   0  0  0  0  0  0  0  0  0  0  0  0
    8.2511    2.5329  -14.8564 C   0  0  0  0  0  0  0  0  0  0  0  0
   10.0732   -0.1384  -14.4661 H   0  0  0  0  0  0  0  0  0  0  0  0
    8.8084   -0.1203  -15.6953 H   0  0  0  0  0  0  0  0  0  0  0  0
   10.0864   -1.3102  -15.7796 H   0  0  0  0  0  0  0  0  0  0  0  0
   12.5357    1.3124  -18.8976 H   0  0  0  0  0  0  0  0  0  0  0  0
   10.0859    4.1237  -11.0080 H   0  0  0  0  0  0  0  0  0  0  0  0
   10.0869    5.8805  -11.1713 H   0  0  0  0  0  0  0  0  0  0  0  0
    7.7419    5.8632  -10.1178 H   0  0  0  0  0  0  0  0  0  0  0  0
    7.9015    4.1728   -9.9176 H   0  0  0  0  0  0  0  0  0  0  0  0
    8.3816    5.0957   -7.8134 H   0  0  0  0  0  0  0  0  0  0  0  0
    9.8699    4.4402   -8.4383 H   0  0  0  0  0  0  0  0  0  0  0  0
    8.4867    7.6962   -9.4396 H   0  0  0  0  0  0  0  0  0  0  0  0
    8.0861    7.5171   -7.7375 H   0  0  0  0  0  0  0  0  0  0  0  0
   10.3895    9.1884   -8.8436 H   0  0  0  0  0  0  0  0  0  0  0  0
    8.8397    9.7720   -8.2481 H   0  0  0  0  0  0  0  0  0  0  0  0
   11.8707    8.0978   -7.1557 H   0  0  0  0  0  0  0  0  0  0  0  0
   11.4654   10.1797   -5.1023 H   0  0  0  0  0  0  0  0  0  0  0  0
   12.2380   10.3975   -2.7569 H   0  0  0  0  0  0  0  0  0  0  0  0
   12.3400    6.1143   -2.3738 H   0  0  0  0  0  0  0  0  0  0  0  0
   11.5413    5.8725   -4.6884 H   0  0  0  0  0  0  0  0  0  0  0  0
    9.5728    6.3156   -6.2343 H   0  0  0  0  0  0  0  0  0  0  0  0
   11.1204    5.7726   -6.8483 H   0  0  0  0  0  0  0  0  0  0  0  0
    7.4213    3.2108  -14.6574 H   0  0  0  0  0  0  0  0  0  0  0  0
    8.2020    2.2356  -15.9041 H   0  0  0  0  0  0  0  0  0  0  0  0
    8.1416    1.6531  -14.2211 H   0  0  0  0  0  0  0  0  0  0  0  0
  2  1  1  0
  3  2  1  0
  4  3  2  0
  5  4  1  0
  6  2  2  0
  6  5  1  0
  7  6  1  0
  8  7  2  0
  9  8  1  0
 10  9  2  0
 11 10  1  0
 12 11  1  0
 13 12  1  0
 14 13  1  0
 15 14  1  0
 16 15  1  0
 17 16  1  0
 18 17  1  0
 19 18  1  0
 20 19  1  0
 21 20  1  0
 22 21  2  0
 23 22  1  0
 24 23  1  0
 25 23  2  0
 26 20  2  0
 26 25  1  0
 27 15  1  0
 27 19  1  0
 28  7  1  0
 28 10  1  0
 29 28  1  0
 30  1  1  0
 31  1  1  0
 32  1  1  0
 33  4  1  0
 34 12  1  0
 35 12  1  0
 36 13  1  0
 37 13  1  0
 38 14  1  0
 39 14  1  0
 40 16  1  0
 41 16  1  0
 42 17  1  0
 43 17  1  0
 19 44  1  6
 45 21  1  0
 46 22  1  0
 47 25  1  0
 48 26  1  0
 49 27  1  0
 50 27  1  0
 51 29  1  0
 52 29  1  0
 53 29  1  0
M  END
>  <b_m_subgroup_collapsed>  (773) 
0

>  <r_i_docking_score>  (773) 
-7.3599172765204202

>  <s_m_subgroup_title>  (773) 
glide-dock_SP_D22_pv

>  <s_m_subgroupid>  (773) 
glide-dock_SP_D22_pv

>  <Molecule ChEMBL ID>  (773) 
CHEMBL3765754

>  <Standard Type>  (773) 
Ki

>  <Standard Value>  (773) 
10000.0

>  <label>  (773) 
0

$$$$
CHEMBL5751323
     RDKit          3D

 53 56  0  0  1  0  0  0  0  0999 V2000
    9.8747   -0.2710  -15.5300 C   0  0  0  0  0  0  0  0  0  0  0  0
   10.6971    0.6619  -16.3616 C   0  0  0  0  0  0  0  0  0  0  0  0
   11.2849    0.2332  -17.5440 N   0  0  0  0  0  0  0  0  0  0  0  0
   11.9533    1.2939  -17.9884 C   0  0  0  0  0  0  0  0  0  0  0  0
   11.8444    2.3875  -17.1908 O   0  0  0  0  0  0  0  0  0  0  0  0
   11.0469    1.9760  -16.1538 C   0  0  0  0  0  0  0  0  0  0  0  0
   10.7413    2.9524  -15.1126 C   0  0  0  0  0  0  0  0  0  0  0  0
   11.6801    3.7731  -14.6281 N   0  0  0  0  0  0  0  0  0  0  0  0
   11.0512    4.5664  -13.6964 N   0  0  0  0  0  0  0  0  0  0  0  0
    9.7785    4.1694  -13.6981 C   0  0  0  0  0  0  0  0  0  0  0  0
    8.5196    4.8616  -12.6788 S   0  0  0  0  0  0  0  0  0  0  0  0
    9.4476    4.9990  -11.1257 C   0  0  0  0  0  0  0  0  0  0  0  0
    8.4857    5.0885   -9.9416 C   0  0  0  0  0  0  0  0  0  0  0  0
    9.1558    5.2517   -8.5648 C   0  0  0  0  0  0  0  0  0  0  0  0
    9.8268    6.5282   -8.3025 N   0  0  0  0  0  0  0  0  0  0  0  0
    8.9079    7.6466   -8.4373 C   0  0  0  0  0  0  0  0  0  0  0  0
    9.5781    8.9810   -8.1437 C   0  0  0  0  0  0  0  0  0  0  0  0
   10.0556    8.9694   -6.8078 O   0  0  0  0  0  0  0  0  0  0  0  0
   10.9866    7.9230   -6.5394 C   0  0  1  0  0  0  0  0  0  0  0  0
   11.4377    8.0132   -5.0826 C   0  0  0  0  0  0  0  0  0  0  0  0
   11.6463    9.2900   -4.5166 C   0  0  0  0  0  0  0  0  0  0  0  0
   12.0874    9.4189   -3.1880 C   0  0  0  0  0  0  0  0  0  0  0  0
   12.3568    8.2747   -2.4199 C   0  0  0  0  0  0  0  0  0  0  0  0
   12.8387    8.4088   -1.1647 F   0  0  0  0  0  0  0  0  0  0  0  0
   12.1437    6.9963   -2.9666 C   0  0  0  0  0  0  0  0  0  0  0  0
   11.6861    6.8664   -4.2923 C   0  0  0  0  0  0  0  0  0  0  0  0
   10.3685    6.5558   -6.9414 C   0  0  0  0  0  0  0  0  0  0  0  0
    9.5218    3.1793  -14.5750 N   0  0  0  0  0  0  0  0  0  0  0  0
    8.2511    2.5329  -14.8564 C   0  0  0  0  0  0  0  0  0  0  0  0
   10.0732   -0.1384  -14.4661 H   0  0  0  0  0  0  0  0  0  0  0  0
    8.8084   -0.1203  -15.6953 H   0  0  0  0  0  0  0  0  0  0  0  0
   10.0864   -1.3102  -15.7796 H   0  0  0  0  0  0  0  0  0  0  0  0
   12.5357    1.3124  -18.8976 H   0  0  0  0  0  0  0  0  0  0  0  0
   10.0859    4.1237  -11.0080 H   0  0  0  0  0  0  0  0  0  0  0  0
   10.0869    5.8805  -11.1713 H   0  0  0  0  0  0  0  0  0  0  0  0
    7.7419    5.8632  -10.1178 H   0  0  0  0  0  0  0  0  0  0  0  0
    7.9015    4.1728   -9.9176 H   0  0  0  0  0  0  0  0  0  0  0  0
    8.3816    5.0957   -7.8134 H   0  0  0  0  0  0  0  0  0  0  0  0
    9.8699    4.4402   -8.4383 H   0  0  0  0  0  0  0  0  0  0  0  0
    8.4867    7.6962   -9.4396 H   0  0  0  0  0  0  0  0  0  0  0  0
    8.0861    7.5171   -7.7375 H   0  0  0  0  0  0  0  0  0  0  0  0
   10.3895    9.1884   -8.8436 H   0  0  0  0  0  0  0  0  0  0  0  0
    8.8397    9.7720   -8.2481 H   0  0  0  0  0  0  0  0  0  0  0  0
   11.8707    8.0978   -7.1557 H   0  0  0  0  0  0  0  0  0  0  0  0
   11.4654   10.1797   -5.1023 H   0  0  0  0  0  0  0  0  0  0  0  0
   12.2380   10.3975   -2.7569 H   0  0  0  0  0  0  0  0  0  0  0  0
   12.3400    6.1143   -2.3738 H   0  0  0  0  0  0  0  0  0  0  0  0
   11.5413    5.8725   -4.6884 H   0  0  0  0  0  0  0  0  0  0  0  0
    9.5728    6.3156   -6.2343 H   0  0  0  0  0  0  0  0  0  0  0  0
   11.1204    5.7726   -6.8483 H   0  0  0  0  0  0  0  0  0  0  0  0
    7.4213    3.2108  -14.6574 H   0  0  0  0  0  0  0  0  0  0  0  0
    8.2020    2.2356  -15.9041 H   0  0  0  0  0  0  0  0  0  0  0  0
    8.1416    1.6531  -14.2211 H   0  0  0  0  0  0  0  0  0  0  0  0
  2  1  1  0
  3  2  1  0
  4  3  2  0
  5  4  1  0
  6  2  2  0
  6  5  1  0
  7  6  1  0
  8  7  2  0
  9  8  1  0
 10  9  2  0
 11 10  1  0
 12 11  1  0
 13 12  1  0
 14 13  1  0
 15 14  1  0
 16 15  1  0
 17 16  1  0
 18 17  1  0
 19 18  1  0
 20 19  1  0
 21 20  1  0
 22 21  2  0
 23 22  1  0
 24 23  1  0
 25 23  2  0
 26 20  2  0
 26 25  1  0
 27 15  1  0
 27 19  1  0
 28  7  1  0
 28 10  1  0
 29 28  1  0
 30  1  1  0
 31  1  1  0
 32  1  1  0
 33  4  1  0
 34 12  1  0
 35 12  1  0
 36 13  1  0
 37 13  1  0
 38 14  1  0
 39 14  1  0
 40 16  1  0
 41 16  1  0
 42 17  1  0
 43 17  1  0
 19 44  1  6
 45 21  1  0
 46 22  1  0
 47 25  1  0
 48 26  1  0
 49 27  1  0
 50 27  1  0
 51 29  1  0
 52 29  1  0
 53 29  1  0
M  END
>  <b_m_subgroup_collapsed>  (774) 
0

>  <r_i_docking_score>  (774) 
-7.3599172765204202

>  <s_m_subgroup_title>  (774) 
glide-dock_SP_D22_pv

>  <s_m_subgroupid>  (774) 
glide-dock_SP_D22_pv

>  <Molecule ChEMBL ID>  (774) 
CHEMBL5751323

>  <Standard Type>  (774) 
Ki

>  <Standard Value>  (774) 
10000.0

>  <label>  (774) 
0

$$$$
CHEMBL593394
     RDKit          3D

 45 47  0  0  1  0  0  0  0  0999 V2000
    3.8762   -1.0319  -14.5508 C   0  0  0  0  0  0  0  0  0  0  0  0
    4.2619   -0.2276  -13.4470 O   0  0  0  0  0  0  0  0  0  0  0  0
    5.3462    0.5833  -13.6635 C   0  0  0  0  0  0  0  0  0  0  0  0
    6.4852    0.1821  -14.3950 C   0  0  0  0  0  0  0  0  0  0  0  0
    7.5055    1.1117  -14.6677 C   0  0  0  0  0  0  0  0  0  0  0  0
    7.3864    2.4544  -14.2499 C   0  0  0  0  0  0  0  0  0  0  0  0
    6.2518    2.8542  -13.4947 C   0  0  0  0  0  0  0  0  0  0  0  0
    5.2764    1.8936  -13.1643 C   0  0  0  0  0  0  0  0  0  0  0  0
    5.9707    4.2954  -13.0933 C   0  0  0  0  0  0  0  0  0  0  0  0
    6.5119    4.7143  -11.7146 C   0  0  0  0  0  0  0  0  0  0  0  0
    7.9853    4.8718  -11.5860 N   0  0  2  0  0  0  0  0  0  0  0  0
    8.4324    4.9947  -10.1765 C   0  0  0  0  0  0  0  0  0  0  0  0
    8.5325    5.9787  -12.3965 C   0  0  0  0  0  0  0  0  0  0  0  0
    9.9837    5.7829  -12.8314 C   0  0  0  0  0  0  0  0  0  0  0  0
   10.8505    6.8834  -12.6467 C   0  0  0  0  0  0  0  0  0  0  0  0
   12.0859    6.9284  -13.3113 C   0  0  0  0  0  0  0  0  0  0  0  0
   12.4859    5.8513  -14.1201 C   0  0  0  0  0  0  0  0  0  0  0  0
   11.6990    4.6921  -14.1941 C   0  0  0  0  0  0  0  0  0  0  0  0
   10.4505    4.6375  -13.5435 C   0  0  0  0  0  0  0  0  0  0  0  0
    9.6643    3.3393  -13.6396 C   0  0  0  0  0  0  0  0  0  0  0  0
    8.4940    3.4236  -14.6200 C   0  0  0  0  0  0  0  0  0  0  0  0
    2.8895   -1.4493  -14.3582 H   0  0  0  0  0  0  0  0  0  0  0  0
    4.5702   -1.8565  -14.7073 H   0  0  0  0  0  0  0  0  0  0  0  0
    3.8107   -0.4463  -15.4693 H   0  0  0  0  0  0  0  0  0  0  0  0
    6.5843   -0.8290  -14.7631 H   0  0  0  0  0  0  0  0  0  0  0  0
    8.3702    0.7948  -15.2329 H   0  0  0  0  0  0  0  0  0  0  0  0
    4.3963    2.1876  -12.6123 H   0  0  0  0  0  0  0  0  0  0  0  0
    6.2478    4.9723  -13.8871 H   0  0  0  0  0  0  0  0  0  0  0  0
    4.8859    4.4039  -13.0552 H   0  0  0  0  0  0  0  0  0  0  0  0
    6.0278    5.6437  -11.4105 H   0  0  0  0  0  0  0  0  0  0  0  0
    6.1971    3.9175  -11.0469 H   0  0  0  0  0  0  0  0  0  0  0  0
    8.0636    5.9184   -9.7269 H   0  0  0  0  0  0  0  0  0  0  0  0
    9.5220    5.0032  -10.1170 H   0  0  0  0  0  0  0  0  0  0  0  0
    8.0828    4.1720   -9.5587 H   0  0  0  0  0  0  0  0  0  0  0  0
    7.9587    6.1446  -13.3036 H   0  0  0  0  0  0  0  0  0  0  0  0
    8.4198    6.9129  -11.8415 H   0  0  0  0  0  0  0  0  0  0  0  0
   10.5285    7.7508  -12.0880 H   0  0  0  0  0  0  0  0  0  0  0  0
   12.7222    7.7963  -13.2212 H   0  0  0  0  0  0  0  0  0  0  0  0
   13.4301    5.8939  -14.6441 H   0  0  0  0  0  0  0  0  0  0  0  0
   12.0549    3.8496  -14.7697 H   0  0  0  0  0  0  0  0  0  0  0  0
   10.3218    2.5216  -13.9391 H   0  0  0  0  0  0  0  0  0  0  0  0
    9.3341    3.0464  -12.6465 H   0  0  0  0  0  0  0  0  0  0  0  0
    8.8464    3.2218  -15.6325 H   0  0  0  0  0  0  0  0  0  0  0  0
    8.1125    4.4352  -14.6549 H   0  0  0  0  0  0  0  0  0  0  0  0
    8.3836    4.0195  -11.9503 H   0  0  0  0  0  0  0  0  0  0  0  0
  2  1  1  0
  3  2  1  0
  4  3  1  0
  5  4  2  0
  6  5  1  0
  7  6  2  0
  8  3  2  0
  8  7  1  0
  9  7  1  0
 10  9  1  0
 11 10  1  0
 12 11  1  0
 13 11  1  0
 14 13  1  0
 15 14  2  0
 16 15  1  0
 17 16  2  0
 18 17  1  0
 19 14  1  0
 19 18  2  0
 20 19  1  0
 21  6  1  0
 21 20  1  0
 22  1  1  0
 23  1  1  0
 24  1  1  0
 25  4  1  0
 26  5  1  0
 27  8  1  0
 28  9  1  0
 29  9  1  0
 30 10  1  0
 31 10  1  0
 32 12  1  0
 33 12  1  0
 34 12  1  0
 35 13  1  0
 36 13  1  0
 37 15  1  0
 38 16  1  0
 39 17  1  0
 40 18  1  0
 41 20  1  0
 42 20  1  0
 43 21  1  0
 44 21  1  0
 11 45  1  6
M  CHG  1  11   1
M  END
>  <b_m_subgroup_collapsed>  (775) 
0

>  <r_i_docking_score>  (775) 
-7.35955421445514

>  <s_m_subgroup_title>  (775) 
glide-dock_SP_D22_pv

>  <s_m_subgroupid>  (775) 
glide-dock_SP_D22_pv

>  <Molecule ChEMBL ID>  (775) 
CHEMBL593394

>  <Standard Type>  (775) 
Ki

>  <Standard Value>  (775) 
10000.0

>  <label>  (775) 
0

$$$$
CHEMBL382773
     RDKit          3D

 64 66  0  0  1  0  0  0  0  0999 V2000
   12.2285    7.9568   -2.3641 C   0  0  0  0  0  0  0  0  0  0  0  0
   11.7966    8.0800   -3.8087 C   0  0  0  0  0  0  0  0  0  0  0  0
   11.3725    6.9150   -4.5580 C   0  0  0  0  0  0  0  0  0  0  0  0
   10.8870    7.0761   -5.7962 C   0  0  0  0  0  0  0  0  0  0  0  0
   10.8110    8.3408   -6.4098 N   0  0  0  0  0  0  0  0  0  0  0  0
   10.1745    8.3706   -7.7395 C   0  0  0  0  0  0  0  0  0  0  0  0
   11.1136    7.8285   -8.8404 C   0  0  0  0  0  0  0  0  0  0  0  0
   10.4272    7.5788  -10.2024 C   0  0  0  0  0  0  0  0  0  0  0  0
    9.4462    6.3854  -10.1825 C   0  0  0  0  0  0  0  0  0  0  0  0
    8.9216    6.0393  -11.5086 N   0  0  0  0  0  0  0  0  0  0  0  0
    7.7140    5.2205  -11.3279 C   0  0  0  0  0  0  0  0  0  0  0  0
    7.0776    4.8529  -12.6835 C   0  0  0  0  0  0  0  0  0  0  0  0
    8.0497    4.1589  -13.5253 N   0  0  0  0  0  0  0  0  0  0  0  0
    7.7734    2.9722  -14.2455 C   0  0  0  0  0  0  0  0  0  0  0  0
    6.6575    2.1562  -13.9539 C   0  0  0  0  0  0  0  0  0  0  0  0
    6.5674    0.9348  -14.6526 C   0  0  0  0  0  0  0  0  0  0  0  0
    5.4946   -0.0990  -14.3434 C   0  0  0  0  0  0  0  0  0  0  0  0
    4.8299   -0.4307  -15.4513 F   0  0  0  0  0  0  0  0  0  0  0  0
    6.0856   -1.1843  -13.8469 F   0  0  0  0  0  0  0  0  0  0  0  0
    4.6136    0.3555  -13.4479 F   0  0  0  0  0  0  0  0  0  0  0  0
    7.4669    0.5966  -15.5985 N   0  0  0  0  0  0  0  0  0  0  0  0
    8.4531    1.4540  -15.8520 C   0  0  0  0  0  0  0  0  0  0  0  0
    9.5605    0.9777  -16.8048 C   0  0  0  0  0  0  0  0  0  0  0  0
   10.6379    0.2371  -15.9952 C   0  0  0  0  0  0  0  0  0  0  0  0
    8.9951    0.0353  -17.8935 C   0  0  0  0  0  0  0  0  0  0  0  0
   10.1896    2.1734  -17.5535 C   0  0  0  0  0  0  0  0  0  0  0  0
    8.6582    2.5967  -15.1964 N   0  0  0  0  0  0  0  0  0  0  0  0
    9.3173    4.8769  -13.6696 C   0  0  0  0  0  0  0  0  0  0  0  0
    9.8846    5.2433  -12.2813 C   0  0  0  0  0  0  0  0  0  0  0  0
   11.2823    9.4652   -5.7890 C   0  0  0  0  0  0  0  0  0  0  0  0
   11.2883   10.5709   -6.3245 O   0  0  0  0  0  0  0  0  0  0  0  0
   11.7521    9.2867   -4.4107 C   0  0  0  0  0  0  0  0  0  0  0  0
   13.2893    8.1743   -2.2743 H   0  0  0  0  0  0  0  0  0  0  0  0
   11.6905    8.6679   -1.7400 H   0  0  0  0  0  0  0  0  0  0  0  0
   12.0472    6.9512   -1.9791 H   0  0  0  0  0  0  0  0  0  0  0  0
   11.4239    5.9287   -4.1160 H   0  0  0  0  0  0  0  0  0  0  0  0
   10.5278    6.2490   -6.3978 H   0  0  0  0  0  0  0  0  0  0  0  0
    9.8401    9.3731   -8.0126 H   0  0  0  0  0  0  0  0  0  0  0  0
    9.2616    7.7705   -7.6868 H   0  0  0  0  0  0  0  0  0  0  0  0
   11.5803    6.8995   -8.5108 H   0  0  0  0  0  0  0  0  0  0  0  0
   11.9328    8.5376   -8.9832 H   0  0  0  0  0  0  0  0  0  0  0  0
   11.2089    7.4041  -10.9444 H   0  0  0  0  0  0  0  0  0  0  0  0
    9.8963    8.4753  -10.5260 H   0  0  0  0  0  0  0  0  0  0  0  0
    8.6069    6.6575   -9.5411 H   0  0  0  0  0  0  0  0  0  0  0  0
    9.9047    5.5034   -9.7303 H   0  0  0  0  0  0  0  0  0  0  0  0
    6.9867    5.7714  -10.7361 H   0  0  0  0  0  0  0  0  0  0  0  0
    7.9575    4.3175  -10.7643 H   0  0  0  0  0  0  0  0  0  0  0  0
    6.7531    5.7643  -13.1877 H   0  0  0  0  0  0  0  0  0  0  0  0
    6.1775    4.2736  -12.4942 H   0  0  0  0  0  0  0  0  0  0  0  0
    5.9414    2.3899  -13.1804 H   0  0  0  0  0  0  0  0  0  0  0  0
   11.0855    0.8888  -15.2446 H   0  0  0  0  0  0  0  0  0  0  0  0
   10.2204   -0.6259  -15.4748 H   0  0  0  0  0  0  0  0  0  0  0  0
   11.4365   -0.1164  -16.6470 H   0  0  0  0  0  0  0  0  0  0  0  0
    8.2054    0.5208  -18.4688 H   0  0  0  0  0  0  0  0  0  0  0  0
    9.7721   -0.2707  -18.5944 H   0  0  0  0  0  0  0  0  0  0  0  0
    8.5780   -0.8768  -17.4632 H   0  0  0  0  0  0  0  0  0  0  0  0
   10.6753    2.8709  -16.8699 H   0  0  0  0  0  0  0  0  0  0  0  0
   10.9500    1.8412  -18.2614 H   0  0  0  0  0  0  0  0  0  0  0  0
    9.4370    2.7296  -18.1151 H   0  0  0  0  0  0  0  0  0  0  0  0
   10.0711    4.2933  -14.1971 H   0  0  0  0  0  0  0  0  0  0  0  0
    9.1482    5.7721  -14.2646 H   0  0  0  0  0  0  0  0  0  0  0  0
   10.8118    5.7983  -12.4156 H   0  0  0  0  0  0  0  0  0  0  0  0
   10.1262    4.3319  -11.7335 H   0  0  0  0  0  0  0  0  0  0  0  0
   12.0443   10.1660   -3.8558 H   0  0  0  0  0  0  0  0  0  0  0  0
  2  1  1  0
  3  2  1  0
  4  3  2  0
  5  4  1  0
  6  5  1  0
  7  6  1  0
  8  7  1  0
  9  8  1  0
 10  9  1  0
 11 10  1  0
 12 11  1  0
 13 12  1  0
 14 13  1  0
 15 14  2  0
 16 15  1  0
 17 16  1  0
 18 17  1  0
 19 17  1  0
 20 17  1  0
 21 16  2  0
 22 21  1  0
 23 22  1  0
 24 23  1  0
 25 23  1  0
 26 23  1  0
 27 14  1  0
 27 22  2  0
 28 13  1  0
 29 10  1  0
 29 28  1  0
 30  5  1  0
 31 30  2  0
 32  2  2  0
 32 30  1  0
 33  1  1  0
 34  1  1  0
 35  1  1  0
 36  3  1  0
 37  4  1  0
 38  6  1  0
 39  6  1  0
 40  7  1  0
 41  7  1  0
 42  8  1  0
 43  8  1  0
 44  9  1  0
 45  9  1  0
 46 11  1  0
 47 11  1  0
 48 12  1  0
 49 12  1  0
 50 15  1  0
 51 24  1  0
 52 24  1  0
 53 24  1  0
 54 25  1  0
 55 25  1  0
 56 25  1  0
 57 26  1  0
 58 26  1  0
 59 26  1  0
 60 28  1  0
 61 28  1  0
 62 29  1  0
 63 29  1  0
 64 32  1  0
M  END
>  <b_m_subgroup_collapsed>  (776) 
0

>  <r_i_docking_score>  (776) 
-7.3573799766935597

>  <s_m_subgroup_title>  (776) 
glide-dock_SP_D22_pv

>  <s_m_subgroupid>  (776) 
glide-dock_SP_D22_pv

>  <Molecule ChEMBL ID>  (776) 
CHEMBL382773

>  <Standard Type>  (776) 
Ki

>  <Standard Value>  (776) 
62.6

>  <label>  (776) 
1

$$$$
CHEMBL5722983
     RDKit          3D

 47 50  0  0  1  0  0  0  0  0999 V2000
   12.5202    8.9702   -1.4150 C   0  0  0  0  0  0  0  0  0  0  0  0
   12.0865    8.4486   -2.7609 C   0  0  0  0  0  0  0  0  0  0  0  0
   11.8569    7.0713   -2.9342 C   0  0  0  0  0  0  0  0  0  0  0  0
   11.4411    6.5898   -4.1868 C   0  0  0  0  0  0  0  0  0  0  0  0
   11.2871    7.4678   -5.2724 C   0  0  0  0  0  0  0  0  0  0  0  0
   10.9535    6.9673   -6.5307 N   0  0  0  0  0  0  0  0  0  0  0  0
   10.9801    7.7604   -7.6628 C   0  0  0  0  0  0  0  0  0  0  0  0
   10.7109    7.0286   -8.9561 C   0  0  0  0  0  0  0  0  0  0  0  0
    9.6552    7.6874   -9.7092 N   0  0  0  0  0  0  0  0  0  0  0  0
    9.3483    6.9715  -10.9371 C   0  0  0  0  0  0  0  0  0  0  0  0
    8.5795    5.6717  -10.6478 C   0  0  0  0  0  0  0  0  0  0  0  0
    8.1904    4.9519  -11.8880 C   0  0  0  0  0  0  0  0  0  0  0  0
    9.0010    4.1723  -12.5952 N   0  0  0  0  0  0  0  0  0  0  0  0
    8.1141    3.7049  -13.5216 C   0  0  0  0  0  0  0  0  0  0  0  0
    8.4922    2.6193  -14.4533 C   0  0  0  0  0  0  0  0  0  0  0  0
    7.5286    1.9406  -15.2316 C   0  0  0  0  0  0  0  0  0  0  0  0
    7.9241    0.8760  -16.0638 C   0  0  0  0  0  0  0  0  0  0  0  0
    9.2832    0.5174  -16.0917 C   0  0  0  0  0  0  0  0  0  0  0  0
   10.2249    1.1545  -15.3706 N   0  0  0  0  0  0  0  0  0  0  0  0
    9.8310    2.1741  -14.5758 C   0  0  0  0  0  0  0  0  0  0  0  0
    6.8663    4.1698  -13.4477 N   0  0  0  0  0  0  0  0  0  0  0  0
    6.9494    4.9920  -12.3773 N   0  0  0  0  0  0  0  0  0  0  0  0
   11.2282    9.0828   -7.5984 C   0  0  0  0  0  0  0  0  0  0  0  0
   11.4939    9.7462   -6.3057 C   0  0  0  0  0  0  0  0  0  0  0  0
   11.6860   10.9595   -6.2456 O   0  0  0  0  0  0  0  0  0  0  0  0
   11.5514    8.8495   -5.1129 C   0  0  0  0  0  0  0  0  0  0  0  0
   11.9165    9.3363   -3.8402 C   0  0  0  0  0  0  0  0  0  0  0  0
   11.8597    8.5726   -0.6468 H   0  0  0  0  0  0  0  0  0  0  0  0
   13.5388    8.6544   -1.1910 H   0  0  0  0  0  0  0  0  0  0  0  0
   12.4855   10.0562   -1.3670 H   0  0  0  0  0  0  0  0  0  0  0  0
   11.9842    6.3839   -2.1099 H   0  0  0  0  0  0  0  0  0  0  0  0
   11.2575    5.5409   -4.3195 H   0  0  0  0  0  0  0  0  0  0  0  0
   10.7524    5.9797   -6.6159 H   0  0  0  0  0  0  0  0  0  0  0  0
   10.4554    5.9939   -8.7301 H   0  0  0  0  0  0  0  0  0  0  0  0
   11.6273    7.0146   -9.5496 H   0  0  0  0  0  0  0  0  0  0  0  0
    8.8009    7.7495   -9.1641 H   0  0  0  0  0  0  0  0  0  0  0  0
   10.2600    6.7724  -11.5029 H   0  0  0  0  0  0  0  0  0  0  0  0
    8.7264    7.6234  -11.5521 H   0  0  0  0  0  0  0  0  0  0  0  0
    7.6860    5.8715  -10.0570 H   0  0  0  0  0  0  0  0  0  0  0  0
    9.1799    4.9789  -10.0610 H   0  0  0  0  0  0  0  0  0  0  0  0
    6.4861    2.2172  -15.1839 H   0  0  0  0  0  0  0  0  0  0  0  0
    7.1988    0.3363  -16.6530 H   0  0  0  0  0  0  0  0  0  0  0  0
    9.6208   -0.3001  -16.7109 H   0  0  0  0  0  0  0  0  0  0  0  0
   10.6229    2.6363  -14.0052 H   0  0  0  0  0  0  0  0  0  0  0  0
    6.1662    5.5119  -12.0017 H   0  0  0  0  0  0  0  0  0  0  0  0
   11.2406    9.6847   -8.4966 H   0  0  0  0  0  0  0  0  0  0  0  0
   12.0857   10.3856   -3.6792 H   0  0  0  0  0  0  0  0  0  0  0  0
  2  1  1  0
  3  2  2  0
  4  3  1  0
  5  4  2  0
  6  5  1  0
  7  6  1  0
  8  7  1  0
  9  8  1  0
 10  9  1  0
 11 10  1  0
 12 11  1  0
 13 12  2  0
 14 13  1  0
 15 14  1  0
 16 15  1  0
 17 16  2  0
 18 17  1  0
 19 18  2  0
 20 15  2  0
 20 19  1  0
 21 14  2  0
 22 12  1  0
 22 21  1  0
 23  7  2  0
 24 23  1  0
 25 24  2  0
 26  5  1  0
 26 24  1  0
 27  2  1  0
 27 26  2  0
 28  1  1  0
 29  1  1  0
 30  1  1  0
 31  3  1  0
 32  4  1  0
 33  6  1  0
 34  8  1  0
 35  8  1  0
 36  9  1  0
 37 10  1  0
 38 10  1  0
 39 11  1  0
 40 11  1  0
 41 16  1  0
 42 17  1  0
 43 18  1  0
 44 20  1  0
 45 22  1  0
 46 23  1  0
 47 27  1  0
M  END
>  <b_m_subgroup_collapsed>  (777) 
0

>  <r_i_docking_score>  (777) 
-7.3546491927094104

>  <s_m_subgroup_title>  (777) 
glide-dock_SP_D22_pv

>  <s_m_subgroupid>  (777) 
glide-dock_SP_D22_pv

>  <Molecule ChEMBL ID>  (777) 
CHEMBL5722983

>  <Standard Type>  (777) 
Ki

>  <Standard Value>  (777) 
10000.0

>  <label>  (777) 
0

$$$$
CHEMBL420016
     RDKit          3D

 54 58  0  0  1  0  0  0  0  0999 V2000
    8.8859    4.8033   -8.2486 N   0  0  0  0  0  0  0  0  0  0  0  0
    9.4195    5.7736   -7.9152 C   0  0  0  0  0  0  0  0  0  0  0  0
   10.0949    7.0026   -7.5178 C   0  0  0  0  0  0  0  0  0  0  0  0
   10.2239    7.2804   -6.1413 C   0  0  0  0  0  0  0  0  0  0  0  0
   10.8861    8.4421   -5.7033 C   0  0  0  0  0  0  0  0  0  0  0  0
   11.4068    9.3432   -6.6457 C   0  0  0  0  0  0  0  0  0  0  0  0
   11.2827    9.0638   -8.0185 C   0  0  0  0  0  0  0  0  0  0  0  0
   10.6426    7.8950   -8.4818 C   0  0  0  0  0  0  0  0  0  0  0  0
   10.6339    7.6222   -9.9358 C   0  0  0  0  0  0  0  0  0  0  0  0
   11.8208    7.7721  -10.6868 C   0  0  0  0  0  0  0  0  0  0  0  0
   11.8689    7.3723  -12.0339 C   0  0  0  0  0  0  0  0  0  0  0  0
   10.7270    6.8283  -12.6468 C   0  0  0  0  0  0  0  0  0  0  0  0
    9.5106    6.7263  -11.9348 C   0  0  0  0  0  0  0  0  0  0  0  0
    8.2184    6.2295  -12.5817 C   0  0  0  0  0  0  0  0  0  0  0  0
    8.0947    4.7537  -12.7456 N   0  0  0  0  0  0  0  0  0  0  0  0
    6.6767    4.3854  -13.0421 C   0  0  0  0  0  0  0  0  0  0  0  0
    6.4442    2.9195  -13.4510 C   0  0  0  0  0  0  0  0  0  0  0  0
    7.4782    2.4253  -14.3537 N   0  0  0  0  0  0  0  0  0  0  0  0
    7.1910    1.4008  -15.2877 C   0  0  0  0  0  0  0  0  0  0  0  0
    7.9625    1.2833  -16.4766 C   0  0  0  0  0  0  0  0  0  0  0  0
    7.6625    0.3190  -17.4715 C   0  0  0  0  0  0  0  0  0  0  0  0
    6.5682   -0.5580  -17.3189 C   0  0  0  0  0  0  0  0  0  0  0  0
    5.8221   -0.4362  -16.1400 C   0  0  0  0  0  0  0  0  0  0  0  0
    4.6892   -1.1211  -15.7291 N   0  0  0  0  0  0  0  0  0  0  0  0
    4.2712   -0.6186  -14.5078 C   0  0  0  0  0  0  0  0  0  0  0  0
    3.2900   -0.9515  -13.8468 O   0  0  0  0  0  0  0  0  0  0  0  0
    5.1818    0.3483  -14.1533 O   0  0  0  0  0  0  0  0  0  0  0  0
    6.1146    0.4838  -15.1492 C   0  0  0  0  0  0  0  0  0  0  0  0
    8.8659    2.7099  -13.9902 C   0  0  0  0  0  0  0  0  0  0  0  0
    9.0561    4.2103  -13.7448 C   0  0  0  0  0  0  0  0  0  0  0  0
    9.4737    7.1639  -10.6000 C   0  0  0  0  0  0  0  0  0  0  0  0
    9.8162    6.5944   -5.4120 H   0  0  0  0  0  0  0  0  0  0  0  0
   10.9829    8.6464   -4.6470 H   0  0  0  0  0  0  0  0  0  0  0  0
   11.9087   10.2425   -6.3179 H   0  0  0  0  0  0  0  0  0  0  0  0
   11.6856    9.7610   -8.7372 H   0  0  0  0  0  0  0  0  0  0  0  0
   12.7201    8.1475  -10.2200 H   0  0  0  0  0  0  0  0  0  0  0  0
   12.7896    7.4667  -12.5929 H   0  0  0  0  0  0  0  0  0  0  0  0
   10.7962    6.5230  -13.6796 H   0  0  0  0  0  0  0  0  0  0  0  0
    7.3860    6.5732  -11.9651 H   0  0  0  0  0  0  0  0  0  0  0  0
    8.0860    6.7193  -13.5435 H   0  0  0  0  0  0  0  0  0  0  0  0
    6.0422    4.6351  -12.1897 H   0  0  0  0  0  0  0  0  0  0  0  0
    6.3227    4.9861  -13.8721 H   0  0  0  0  0  0  0  0  0  0  0  0
    6.3812    2.2776  -12.5800 H   0  0  0  0  0  0  0  0  0  0  0  0
    5.4674    2.8599  -13.9308 H   0  0  0  0  0  0  0  0  0  0  0  0
    8.7823    1.9594  -16.6657 H   0  0  0  0  0  0  0  0  0  0  0  0
    8.2673    0.2658  -18.3650 H   0  0  0  0  0  0  0  0  0  0  0  0
    6.3154   -1.2872  -18.0744 H   0  0  0  0  0  0  0  0  0  0  0  0
    9.1387    2.1730  -13.0792 H   0  0  0  0  0  0  0  0  0  0  0  0
    9.5721    2.3742  -14.7476 H   0  0  0  0  0  0  0  0  0  0  0  0
    8.9468    4.7505  -14.6867 H   0  0  0  0  0  0  0  0  0  0  0  0
   10.0773    4.3623  -13.4002 H   0  0  0  0  0  0  0  0  0  0  0  0
    8.5355    7.1109  -10.0633 H   0  0  0  0  0  0  0  0  0  0  0  0
    4.2102   -1.8645  -16.2207 H   0  0  0  0  0  0  0  0  0  0  0  0
    8.3199    4.3329  -11.8544 H   0  0  0  0  0  0  0  0  0  0  0  0
  2  1  3  0
  3  2  1  0
  4  3  2  0
  5  4  1  0
  6  5  2  0
  7  6  1  0
  8  3  1  0
  8  7  2  0
  9  8  1  0
 10  9  1  0
 11 10  2  0
 12 11  1  0
 13 12  2  0
 14 13  1  0
 15 14  1  0
 16 15  1  0
 17 16  1  0
 18 17  1  0
 19 18  1  0
 20 19  1  0
 21 20  2  0
 22 21  1  0
 23 22  2  0
 24 23  1  0
 25 24  1  0
 26 25  2  0
 27 25  1  0
 28 19  2  0
 28 23  1  0
 28 27  1  0
 29 18  1  0
 30 15  1  0
 30 29  1  0
 31  9  2  0
 31 13  1  0
 32  4  1  0
 33  5  1  0
 34  6  1  0
 35  7  1  0
 36 10  1  0
 37 11  1  0
 38 12  1  0
 39 14  1  0
 40 14  1  0
 41 16  1  0
 42 16  1  0
 43 17  1  0
 44 17  1  0
 45 20  1  0
 46 21  1  0
 47 22  1  0
 48 29  1  0
 49 29  1  0
 50 30  1  0
 51 30  1  0
 52 31  1  0
 53 24  1  0
 54 15  1  0
M  CHG  1  15   1
M  END
>  <b_m_subgroup_collapsed>  (778) 
0

>  <r_i_docking_score>  (778) 
-7.3541652403958704

>  <s_m_subgroup_title>  (778) 
glide-dock_SP_D22_pv

>  <s_m_subgroupid>  (778) 
glide-dock_SP_D22_pv

>  <Molecule ChEMBL ID>  (778) 
CHEMBL420016

>  <Standard Type>  (778) 
Ki

>  <Standard Value>  (778) 
2.0

>  <label>  (778) 
1

$$$$
CHEMBL3764246
     RDKit          3D

 65 69  0  0  1  0  0  0  0  0999 V2000
   12.5144    8.7422   -1.4491 C   0  0  0  0  0  0  0  0  0  0  0  0
   12.0902    8.5253   -2.8848 C   0  0  0  0  0  0  0  0  0  0  0  0
   11.6919    9.6259   -3.6633 C   0  0  0  0  0  0  0  0  0  0  0  0
   11.2816    9.4460   -4.9962 C   0  0  0  0  0  0  0  0  0  0  0  0
   11.2264    8.1510   -5.5512 C   0  0  0  0  0  0  0  0  0  0  0  0
   10.6365    7.9424   -6.9390 C   0  0  2  0  0  0  0  0  0  0  0  0
   11.6486    8.0934   -8.1010 C   0  0  0  0  0  0  0  0  0  0  0  0
   11.0154    7.8460   -9.4039 N   0  0  0  0  0  0  0  0  0  0  0  0
   11.9563    7.9669  -10.5158 C   0  0  0  0  0  0  0  0  0  0  0  0
   11.4204    7.5104  -11.8962 C   0  0  0  0  0  0  0  0  0  0  0  0
   12.5580    7.4650  -12.9376 C   0  0  0  0  0  0  0  0  0  0  0  0
   12.0869    7.1149  -14.6650 S   0  0  0  0  0  0  0  0  0  0  0  0
   11.4370    5.4718  -14.5789 C   0  0  0  0  0  0  0  0  0  0  0  0
   11.6078    4.6455  -13.5498 N   0  0  0  0  0  0  0  0  0  0  0  0
   10.8710    3.5251  -13.8474 N   0  0  0  0  0  0  0  0  0  0  0  0
   10.3252    3.7460  -15.0440 C   0  0  0  0  0  0  0  0  0  0  0  0
    9.3874    2.8056  -15.6511 C   0  0  0  0  0  0  0  0  0  0  0  0
    9.5072    2.4173  -17.0010 C   0  0  0  0  0  0  0  0  0  0  0  0
    8.5426    1.5746  -17.5838 C   0  0  0  0  0  0  0  0  0  0  0  0
    7.4435    1.0883  -16.8352 C   0  0  0  0  0  0  0  0  0  0  0  0
    6.4164    0.2246  -17.4601 C   0  0  0  0  0  0  0  0  0  0  0  0
    6.3900    0.0189  -18.7724 N   0  0  0  0  0  0  0  0  0  0  0  0
    5.2998   -0.8488  -18.9276 O   0  0  0  0  0  0  0  0  0  0  0  0
    4.8153   -1.0659  -17.6792 C   0  0  0  0  0  0  0  0  0  0  0  0
    3.6814   -2.0117  -17.5095 C   0  0  0  0  0  0  0  0  0  0  0  0
    5.4570   -0.3981  -16.7216 N   0  0  0  0  0  0  0  0  0  0  0  0
    7.3565    1.4564  -15.4723 C   0  0  0  0  0  0  0  0  0  0  0  0
    8.3146    2.3047  -14.8857 C   0  0  0  0  0  0  0  0  0  0  0  0
   10.6892    4.9374  -15.5694 N   0  0  0  0  0  0  0  0  0  0  0  0
   10.3284    5.5011  -16.8606 C   0  0  0  0  0  0  0  0  0  0  0  0
    9.8750    8.7449   -9.5564 C   0  0  0  0  0  0  0  0  0  0  0  0
    8.8933    8.6313   -8.3853 C   0  0  0  0  0  0  0  0  0  0  0  0
    9.5748    8.8653   -7.1628 O   0  0  0  0  0  0  0  0  0  0  0  0
   11.6454    7.0474   -4.7745 C   0  0  0  0  0  0  0  0  0  0  0  0
   12.0860    7.2334   -3.4479 C   0  0  0  0  0  0  0  0  0  0  0  0
   13.2861    8.0437   -1.1549 H   0  0  0  0  0  0  0  0  0  0  0  0
   12.8854    9.7537   -1.2839 H   0  0  0  0  0  0  0  0  0  0  0  0
   11.6859    8.5758   -0.7716 H   0  0  0  0  0  0  0  0  0  0  0  0
   11.6848   10.6094   -3.2248 H   0  0  0  0  0  0  0  0  0  0  0  0
   10.9592   10.2994   -5.5743 H   0  0  0  0  0  0  0  0  0  0  0  0
   10.2213    6.9324   -6.9594 H   0  0  0  0  0  0  0  0  0  0  0  0
   12.4759    7.4007   -7.9518 H   0  0  0  0  0  0  0  0  0  0  0  0
   12.0795    9.0952   -8.0816 H   0  0  0  0  0  0  0  0  0  0  0  0
   12.8376    7.3734  -10.2782 H   0  0  0  0  0  0  0  0  0  0  0  0
   12.3118    8.9956  -10.5890 H   0  0  0  0  0  0  0  0  0  0  0  0
   10.6262    8.1709  -12.2387 H   0  0  0  0  0  0  0  0  0  0  0  0
   10.9519    6.5333  -11.7989 H   0  0  0  0  0  0  0  0  0  0  0  0
   13.2842    6.7278  -12.6442 H   0  0  0  0  0  0  0  0  0  0  0  0
   13.0959    8.4134  -12.9380 H   0  0  0  0  0  0  0  0  0  0  0  0
   10.3325    2.7699  -17.6015 H   0  0  0  0  0  0  0  0  0  0  0  0
    8.6551    1.3047  -18.6235 H   0  0  0  0  0  0  0  0  0  0  0  0
    3.2888   -1.9583  -16.4946 H   0  0  0  0  0  0  0  0  0  0  0  0
    2.8831   -1.7726  -18.2138 H   0  0  0  0  0  0  0  0  0  0  0  0
    4.0281   -3.0271  -17.6968 H   0  0  0  0  0  0  0  0  0  0  0  0
    6.5375    1.0973  -14.8663 H   0  0  0  0  0  0  0  0  0  0  0  0
    8.2122    2.5878  -13.8469 H   0  0  0  0  0  0  0  0  0  0  0  0
   10.4927    6.5735  -16.8825 H   0  0  0  0  0  0  0  0  0  0  0  0
   10.9368    5.0462  -17.6415 H   0  0  0  0  0  0  0  0  0  0  0  0
    9.2757    5.3141  -17.0701 H   0  0  0  0  0  0  0  0  0  0  0  0
   10.2269    9.7722   -9.6308 H   0  0  0  0  0  0  0  0  0  0  0  0
    9.3349    8.5259  -10.4769 H   0  0  0  0  0  0  0  0  0  0  0  0
    8.0877    9.3595   -8.4906 H   0  0  0  0  0  0  0  0  0  0  0  0
    8.4574    7.6333   -8.3674 H   0  0  0  0  0  0  0  0  0  0  0  0
   11.6034    6.0493   -5.1860 H   0  0  0  0  0  0  0  0  0  0  0  0
   12.3862    6.3777   -2.8592 H   0  0  0  0  0  0  0  0  0  0  0  0
  2  1  1  0
  3  2  1  0
  4  3  2  0
  5  4  1  0
  6  5  1  0
  7  6  1  0
  8  7  1  0
  9  8  1  0
 10  9  1  0
 11 10  1  0
 12 11  1  0
 13 12  1  0
 14 13  2  0
 15 14  1  0
 16 15  2  0
 17 16  1  0
 18 17  1  0
 19 18  2  0
 20 19  1  0
 21 20  1  0
 22 21  2  0
 23 22  1  0
 24 23  1  0
 25 24  1  0
 26 21  1  0
 26 24  2  0
 27 20  2  0
 28 17  2  0
 28 27  1  0
 29 13  1  0
 29 16  1  0
 30 29  1  0
 31  8  1  0
 32 31  1  0
 33  6  1  0
 33 32  1  0
 34  5  2  0
 35  2  2  0
 35 34  1  0
 36  1  1  0
 37  1  1  0
 38  1  1  0
 39  3  1  0
 40  4  1  0
  6 41  1  1
 42  7  1  0
 43  7  1  0
 44  9  1  0
 45  9  1  0
 46 10  1  0
 47 10  1  0
 48 11  1  0
 49 11  1  0
 50 18  1  0
 51 19  1  0
 52 25  1  0
 53 25  1  0
 54 25  1  0
 55 27  1  0
 56 28  1  0
 57 30  1  0
 58 30  1  0
 59 30  1  0
 60 31  1  0
 61 31  1  0
 62 32  1  0
 63 32  1  0
 64 34  1  0
 65 35  1  0
M  END
>  <b_m_subgroup_collapsed>  (779) 
0

>  <r_i_docking_score>  (779) 
-7.3527945302843003

>  <s_m_subgroup_title>  (779) 
glide-dock_SP_D22_pv

>  <s_m_subgroupid>  (779) 
glide-dock_SP_D22_pv

>  <Molecule ChEMBL ID>  (779) 
CHEMBL3764246

>  <Standard Type>  (779) 
Ki

>  <Standard Value>  (779) 
25118.86

>  <label>  (779) 
0

$$$$
CHEMBL5723033
     RDKit          3D

 48 50  0  0  1  0  0  0  0  0999 V2000
   12.2878    7.9428   -3.5672 C   0  0  0  0  0  0  0  0  0  0  0  0
   11.8769    8.8990   -4.7023 C   0  0  0  0  0  0  0  0  0  0  0  0
   11.1268   10.1071   -4.1239 C   0  0  0  0  0  0  0  0  0  0  0  0
   11.0622    8.2217   -5.7785 C   0  0  0  0  0  0  0  0  0  0  0  0
   10.4862    6.9725   -5.7535 C   0  0  0  0  0  0  0  0  0  0  0  0
    9.5941    6.6239   -7.2101 S   0  0  0  0  0  0  0  0  0  0  0  0
   10.0551    8.1983   -7.8239 C   0  0  0  0  0  0  0  0  0  0  0  0
    9.6767    8.6905   -9.1765 C   0  0  0  0  0  0  0  0  0  0  0  0
   10.6262    8.2038  -10.2818 C   0  0  0  0  0  0  0  0  0  0  0  0
   10.1870    6.9505  -10.8829 N   0  0  0  0  0  0  0  0  0  0  0  0
    9.1693    7.1936  -11.8957 C   0  0  0  0  0  0  0  0  0  0  0  0
    8.7781    5.9033  -12.5857 C   0  0  0  0  0  0  0  0  0  0  0  0
    9.5947    5.2566  -13.4452 C   0  0  0  0  0  0  0  0  0  0  0  0
    9.1634    4.0125  -14.1166 C   0  0  0  0  0  0  0  0  0  0  0  0
    9.8897    3.4328  -14.9237 O   0  0  0  0  0  0  0  0  0  0  0  0
    7.8049    3.5093  -13.7545 C   0  0  0  0  0  0  0  0  0  0  0  0
    7.3360    2.2670  -14.2469 C   0  0  0  0  0  0  0  0  0  0  0  0
    6.0860    1.7512  -13.8175 C   0  0  0  0  0  0  0  0  0  0  0  0
    5.6351    0.3593  -14.1809 C   0  0  0  0  0  0  0  0  0  0  0  0
    6.2458   -0.2278  -15.2094 N   0  0  0  0  0  0  0  0  0  0  0  0
    4.7220   -0.1945  -13.5700 O   0  0  0  0  0  0  0  0  0  0  0  0
    5.2860    2.5335  -12.9532 C   0  0  0  0  0  0  0  0  0  0  0  0
    5.7382    3.7778  -12.4762 C   0  0  0  0  0  0  0  0  0  0  0  0
    7.0068    4.2545  -12.8509 C   0  0  0  0  0  0  0  0  0  0  0  0
    7.5006    5.4468  -12.3056 N   0  0  0  0  0  0  0  0  0  0  0  0
   10.8283    8.8920   -6.9818 N   0  0  0  0  0  0  0  0  0  0  0  0
   12.8831    7.1093   -3.9410 H   0  0  0  0  0  0  0  0  0  0  0  0
   12.8880    8.4619   -2.8205 H   0  0  0  0  0  0  0  0  0  0  0  0
   11.4192    7.5330   -3.0515 H   0  0  0  0  0  0  0  0  0  0  0  0
   12.7956    9.2774   -5.1532 H   0  0  0  0  0  0  0  0  0  0  0  0
   10.9382   10.8648   -4.8855 H   0  0  0  0  0  0  0  0  0  0  0  0
   10.1672    9.8107   -3.7134 H   0  0  0  0  0  0  0  0  0  0  0  0
   11.6878   10.5724   -3.3134 H   0  0  0  0  0  0  0  0  0  0  0  0
   10.5137    6.2348   -4.9644 H   0  0  0  0  0  0  0  0  0  0  0  0
    8.6369    8.4315   -9.3734 H   0  0  0  0  0  0  0  0  0  0  0  0
    9.7105    9.7726   -9.1530 H   0  0  0  0  0  0  0  0  0  0  0  0
   10.7137    8.9667  -11.0510 H   0  0  0  0  0  0  0  0  0  0  0  0
   11.6311    8.0793   -9.8739 H   0  0  0  0  0  0  0  0  0  0  0  0
    9.8054    6.3441  -10.1699 H   0  0  0  0  0  0  0  0  0  0  0  0
    8.2898    7.6559  -11.4472 H   0  0  0  0  0  0  0  0  0  0  0  0
    9.5434    7.8900  -12.6463 H   0  0  0  0  0  0  0  0  0  0  0  0
   10.5834    5.6364  -13.6575 H   0  0  0  0  0  0  0  0  0  0  0  0
    7.9775    1.6896  -14.8968 H   0  0  0  0  0  0  0  0  0  0  0  0
    6.9794    0.2494  -15.7069 H   0  0  0  0  0  0  0  0  0  0  0  0
    5.9919   -1.1730  -15.4607 H   0  0  0  0  0  0  0  0  0  0  0  0
    4.3235    2.1719  -12.6259 H   0  0  0  0  0  0  0  0  0  0  0  0
    5.1324    4.3433  -11.7844 H   0  0  0  0  0  0  0  0  0  0  0  0
    6.9286    5.9611  -11.6411 H   0  0  0  0  0  0  0  0  0  0  0  0
  2  1  1  0
  3  2  1  0
  4  2  1  0
  5  4  2  0
  6  5  1  0
  7  6  1  0
  8  7  1  0
  9  8  1  0
 10  9  1  0
 11 10  1  0
 12 11  1  0
 13 12  2  0
 14 13  1  0
 15 14  2  0
 16 14  1  0
 17 16  2  0
 18 17  1  0
 19 18  1  0
 20 19  1  0
 21 19  2  0
 22 18  2  0
 23 22  1  0
 24 16  1  0
 24 23  2  0
 25 12  1  0
 25 24  1  0
 26  4  1  0
 26  7  2  0
 27  1  1  0
 28  1  1  0
 29  1  1  0
 30  2  1  0
 31  3  1  0
 32  3  1  0
 33  3  1  0
 34  5  1  0
 35  8  1  0
 36  8  1  0
 37  9  1  0
 38  9  1  0
 39 10  1  0
 40 11  1  0
 41 11  1  0
 42 13  1  0
 43 17  1  0
 44 20  1  0
 45 20  1  0
 46 22  1  0
 47 23  1  0
 48 25  1  0
M  END
>  <b_m_subgroup_collapsed>  (780) 
0

>  <r_i_docking_score>  (780) 
-7.3520071236732596

>  <s_m_subgroup_title>  (780) 
glide-dock_SP_D22_pv

>  <s_m_subgroupid>  (780) 
glide-dock_SP_D22_pv

>  <Molecule ChEMBL ID>  (780) 
CHEMBL5723033

>  <Standard Type>  (780) 
Ki

>  <Standard Value>  (780) 
10000.0

>  <label>  (780) 
0

$$$$
CHEMBL5407845
     RDKit          3D

 63 65  0  0  1  0  0  0  0  0999 V2000
   12.8878    7.2081  -14.1610 C   0  0  0  0  0  0  0  0  0  0  0  0
   11.6540    6.3328  -13.9082 C   0  0  0  0  0  0  0  0  0  0  0  0
   11.0715    5.5451  -15.1343 C   0  0  0  0  0  0  0  0  0  0  0  0
   11.3836    6.3010  -16.4574 C   0  0  0  0  0  0  0  0  0  0  0  0
   10.6180    5.8538  -17.7130 C   0  0  0  0  0  0  0  0  0  0  0  0
    9.5481    5.1972  -14.9364 C   0  0  0  0  0  0  0  0  0  0  0  0
    9.2740    4.1348  -13.8637 C   0  0  1  0  0  0  0  0  0  0  0  0
    9.6591    4.7901  -12.6467 O   0  0  0  0  0  0  0  0  0  0  0  0
    9.3903    4.1855  -11.3915 C   0  0  0  0  0  0  0  0  0  0  0  0
    9.4872    5.2967  -10.3383 C   0  0  0  0  0  0  0  0  0  0  0  0
    9.1349    4.8119   -8.9222 C   0  0  0  0  0  0  0  0  0  0  0  0
    9.3593    5.8537   -7.8946 N   0  0  0  0  0  0  0  0  0  0  0  0
   10.7911    6.0815   -7.5927 C   0  0  0  0  0  0  0  0  0  0  0  0
   11.0155    7.0316   -6.4258 C   0  0  0  0  0  0  0  0  0  0  0  0
   11.3411    6.5719   -5.1329 C   0  0  0  0  0  0  0  0  0  0  0  0
   11.6863    7.4460   -4.0914 C   0  0  0  0  0  0  0  0  0  0  0  0
   11.6847    8.8234   -4.3334 C   0  0  0  0  0  0  0  0  0  0  0  0
   11.3121    9.2945   -5.6028 C   0  0  0  0  0  0  0  0  0  0  0  0
   11.2861   10.9723   -5.8472 Cl  0  0  0  0  0  0  0  0  0  0  0  0
   10.9779    8.4117   -6.6523 C   0  0  0  0  0  0  0  0  0  0  0  0
   10.5350    8.9730   -8.2246 Cl  0  0  0  0  0  0  0  0  0  0  0  0
    7.7900    3.7304  -13.8296 C   0  0  0  0  0  0  0  0  0  0  0  0
    7.3427    2.4519  -14.2468 C   0  0  0  0  0  0  0  0  0  0  0  0
    6.0766    2.0186  -13.8292 C   0  0  0  0  0  0  0  0  0  0  0  0
    5.2860    2.8809  -13.0471 C   0  0  0  0  0  0  0  0  0  0  0  0
    5.7635    4.1766  -12.7923 C   0  0  0  0  0  0  0  0  0  0  0  0
    6.9731    4.6046  -13.1976 N   0  0  0  0  0  0  0  0  0  0  0  0
   10.1787    2.9382  -14.1811 C   0  0  0  0  0  0  0  0  0  0  0  0
   11.6325    3.3120  -14.3781 C   0  0  0  0  0  0  0  0  0  0  0  0
   11.7897    4.3300  -15.3497 O   0  0  0  0  0  0  0  0  0  0  0  0
   13.2841    7.5887  -13.2198 H   0  0  0  0  0  0  0  0  0  0  0  0
   13.6830    6.6416  -14.6475 H   0  0  0  0  0  0  0  0  0  0  0  0
   12.6660    8.0784  -14.7748 H   0  0  0  0  0  0  0  0  0  0  0  0
   10.8873    6.9731  -13.4737 H   0  0  0  0  0  0  0  0  0  0  0  0
   11.9102    5.6593  -13.0959 H   0  0  0  0  0  0  0  0  0  0  0  0
   11.2859    7.3709  -16.3211 H   0  0  0  0  0  0  0  0  0  0  0  0
   12.4449    6.1751  -16.6797 H   0  0  0  0  0  0  0  0  0  0  0  0
   11.0263    6.3356  -18.6010 H   0  0  0  0  0  0  0  0  0  0  0  0
   10.6904    4.7758  -17.8593 H   0  0  0  0  0  0  0  0  0  0  0  0
    9.5644    6.1242  -17.6610 H   0  0  0  0  0  0  0  0  0  0  0  0
    9.1282    4.8229  -15.8677 H   0  0  0  0  0  0  0  0  0  0  0  0
    8.9536    6.0598  -14.6471 H   0  0  0  0  0  0  0  0  0  0  0  0
    8.3886    3.7743  -11.3381 H   0  0  0  0  0  0  0  0  0  0  0  0
   10.0860    3.3727  -11.1970 H   0  0  0  0  0  0  0  0  0  0  0  0
   10.4857    5.7277  -10.3748 H   0  0  0  0  0  0  0  0  0  0  0  0
    8.8073    6.1049  -10.6120 H   0  0  0  0  0  0  0  0  0  0  0  0
    8.0860    4.5237   -8.8932 H   0  0  0  0  0  0  0  0  0  0  0  0
    9.6993    3.9153   -8.6670 H   0  0  0  0  0  0  0  0  0  0  0  0
    8.9277    6.7158   -8.2055 H   0  0  0  0  0  0  0  0  0  0  0  0
   11.3086    5.1427   -7.4311 H   0  0  0  0  0  0  0  0  0  0  0  0
   11.2860    6.4905   -8.4724 H   0  0  0  0  0  0  0  0  0  0  0  0
   11.3745    5.5212   -4.9229 H   0  0  0  0  0  0  0  0  0  0  0  0
   11.9501    7.0615   -3.1177 H   0  0  0  0  0  0  0  0  0  0  0  0
   11.9459    9.5152   -3.5455 H   0  0  0  0  0  0  0  0  0  0  0  0
    7.9621    1.7456  -14.7751 H   0  0  0  0  0  0  0  0  0  0  0  0
    5.7284    1.0263  -14.0727 H   0  0  0  0  0  0  0  0  0  0  0  0
    4.3206    2.5660  -12.6821 H   0  0  0  0  0  0  0  0  0  0  0  0
    5.1903    4.8785  -12.2096 H   0  0  0  0  0  0  0  0  0  0  0  0
   10.0832    2.1720  -13.4219 H   0  0  0  0  0  0  0  0  0  0  0  0
    9.8770    2.4903  -15.1272 H   0  0  0  0  0  0  0  0  0  0  0  0
   12.1298    3.5618  -13.4469 H   0  0  0  0  0  0  0  0  0  0  0  0
   12.0882    2.4175  -14.7792 H   0  0  0  0  0  0  0  0  0  0  0  0
    8.8988    5.5691   -7.0431 H   0  0  0  0  0  0  0  0  0  0  0  0
  2  1  1  0
  3  2  1  0
  4  3  1  0
  5  4  1  0
  6  3  1  0
  7  6  1  0
  7  8  1  1
  9  8  1  0
 10  9  1  0
 11 10  1  0
 12 11  1  0
 13 12  1  0
 14 13  1  0
 15 14  2  0
 16 15  1  0
 17 16  2  0
 18 17  1  0
 19 18  1  0
 20 14  1  0
 20 18  2  0
 21 20  1  0
 22  7  1  0
 23 22  2  0
 24 23  1  0
 25 24  2  0
 26 25  1  0
 27 22  1  0
 27 26  2  0
 28  7  1  0
 29 28  1  0
 30  3  1  0
 30 29  1  0
 31  1  1  0
 32  1  1  0
 33  1  1  0
 34  2  1  0
 35  2  1  0
 36  4  1  0
 37  4  1  0
 38  5  1  0
 39  5  1  0
 40  5  1  0
 41  6  1  0
 42  6  1  0
 43  9  1  0
 44  9  1  0
 45 10  1  0
 46 10  1  0
 47 11  1  0
 48 11  1  0
 49 12  1  0
 50 13  1  0
 51 13  1  0
 52 15  1  0
 53 16  1  0
 54 17  1  0
 55 23  1  0
 56 24  1  0
 57 25  1  0
 58 26  1  0
 59 28  1  0
 60 28  1  0
 61 29  1  0
 62 29  1  0
 63 12  1  0
M  CHG  1  12   1
M  END
>  <b_m_subgroup_collapsed>  (781) 
0

>  <r_i_docking_score>  (781) 
-7.3508926312741698

>  <s_m_subgroup_title>  (781) 
glide-dock_SP_D22_pv

>  <s_m_subgroupid>  (781) 
glide-dock_SP_D22_pv

>  <Molecule ChEMBL ID>  (781) 
CHEMBL5407845

>  <Standard Type>  (781) 
Ki

>  <Standard Value>  (781) 
13400.0

>  <label>  (781) 
0

$$$$
CHEMBL336851
     RDKit          3D

 41 42  0  0  1  0  0  0  0  0999 V2000
    8.5571    4.4545   -8.7374 C   0  0  0  0  0  0  0  0  0  0  0  0
    9.7023    5.4322   -8.9877 C   0  0  0  0  0  0  0  0  0  0  0  0
    9.2213    6.9000   -9.0512 C   0  0  0  0  0  0  0  0  0  0  0  0
   10.2719    7.9124   -8.8761 N   0  0  0  0  0  0  0  0  0  0  0  0
   11.5073    7.7443   -9.6516 C   0  0  0  0  0  0  0  0  0  0  0  0
   11.3592    7.3730  -11.1146 C   0  0  0  0  0  0  0  0  0  0  0  0
   12.3094    7.6394  -12.0233 C   0  0  0  0  0  0  0  0  0  0  0  0
   12.0861    6.9724  -14.0568 I   0  0  0  0  0  0  0  0  0  0  0  0
   10.4701    8.3162   -7.4687 C   0  0  2  0  0  0  0  0  0  0  0  0
   11.4741    9.4641   -7.3510 C   0  0  0  0  0  0  0  0  0  0  0  0
   11.4175   10.1193   -5.9721 C   0  0  0  0  0  0  0  0  0  0  0  0
   11.5698    9.0875   -4.8723 C   0  0  0  0  0  0  0  0  0  0  0  0
   12.0128    9.5007   -3.6023 C   0  0  0  0  0  0  0  0  0  0  0  0
   12.3274    8.5562   -2.6150 C   0  0  0  0  0  0  0  0  0  0  0  0
   12.8860    8.9715   -1.4469 O   0  0  0  0  0  0  0  0  0  0  0  0
   12.1036    7.1898   -2.8531 C   0  0  0  0  0  0  0  0  0  0  0  0
   11.6007    6.7793   -4.1002 C   0  0  0  0  0  0  0  0  0  0  0  0
   11.3319    7.7125   -5.1188 C   0  0  0  0  0  0  0  0  0  0  0  0
   10.8660    7.1989   -6.4786 C   0  0  0  0  0  0  0  0  0  0  0  0
    8.9372    3.4446   -8.5891 H   0  0  0  0  0  0  0  0  0  0  0  0
    7.9938    4.7332   -7.8473 H   0  0  0  0  0  0  0  0  0  0  0  0
    7.8815    4.4332   -9.5916 H   0  0  0  0  0  0  0  0  0  0  0  0
   10.1830    5.1548   -9.9222 H   0  0  0  0  0  0  0  0  0  0  0  0
   10.4513    5.2844   -8.2160 H   0  0  0  0  0  0  0  0  0  0  0  0
    8.4552    7.0703   -8.2949 H   0  0  0  0  0  0  0  0  0  0  0  0
    8.7215    7.0688  -10.0055 H   0  0  0  0  0  0  0  0  0  0  0  0
   12.1138    8.6487   -9.6288 H   0  0  0  0  0  0  0  0  0  0  0  0
   12.0861    6.9725   -9.1679 H   0  0  0  0  0  0  0  0  0  0  0  0
   10.4712    6.8445  -11.4257 H   0  0  0  0  0  0  0  0  0  0  0  0
   13.2247    8.1696  -11.8016 H   0  0  0  0  0  0  0  0  0  0  0  0
    9.5075    8.7107   -7.1377 H   0  0  0  0  0  0  0  0  0  0  0  0
   11.2860   10.1723   -8.1440 H   0  0  0  0  0  0  0  0  0  0  0  0
   12.4890    9.0923   -7.5044 H   0  0  0  0  0  0  0  0  0  0  0  0
   10.4860   10.6581   -5.8296 H   0  0  0  0  0  0  0  0  0  0  0  0
   12.2163   10.8569   -5.8915 H   0  0  0  0  0  0  0  0  0  0  0  0
   12.1373   10.5480   -3.3849 H   0  0  0  0  0  0  0  0  0  0  0  0
   13.1465    9.8878   -1.4474 H   0  0  0  0  0  0  0  0  0  0  0  0
   12.3312    6.4557   -2.0939 H   0  0  0  0  0  0  0  0  0  0  0  0
   11.4302    5.7368   -4.2879 H   0  0  0  0  0  0  0  0  0  0  0  0
   11.6863    6.6083   -6.8859 H   0  0  0  0  0  0  0  0  0  0  0  0
   10.0250    6.5234   -6.3177 H   0  0  0  0  0  0  0  0  0  0  0  0
  2  1  1  0
  3  2  1  0
  4  3  1  0
  5  4  1  0
  6  5  1  0
  7  6  2  0
  8  7  1  0
  9  4  1  0
 10  9  1  0
 11 10  1  0
 12 11  1  0
 13 12  1  0
 14 13  2  0
 15 14  1  0
 16 14  1  0
 17 16  2  0
 18 12  2  0
 18 17  1  0
 19  9  1  0
 19 18  1  0
 20  1  1  0
 21  1  1  0
 22  1  1  0
 23  2  1  0
 24  2  1  0
 25  3  1  0
 26  3  1  0
 27  5  1  0
 28  5  1  0
 29  6  1  0
 30  7  1  0
  9 31  1  1
 32 10  1  0
 33 10  1  0
 34 11  1  0
 35 11  1  0
 36 13  1  0
 37 15  1  0
 38 16  1  0
 39 17  1  0
 40 19  1  0
 41 19  1  0
M  END
>  <b_m_subgroup_collapsed>  (782) 
0

>  <r_i_docking_score>  (782) 
-7.34975706629172

>  <s_m_subgroup_title>  (782) 
glide-dock_SP_D22_pv

>  <s_m_subgroupid>  (782) 
glide-dock_SP_D22_pv

>  <Molecule ChEMBL ID>  (782) 
CHEMBL336851

>  <Standard Type>  (782) 
Ki

>  <Standard Value>  (782) 
9.7

>  <label>  (782) 
1

$$$$
CHEMBL1644980
     RDKit          3D

 64 67  0  0  1  0  0  0  0  0999 V2000
    8.8840    8.6806  -10.2121 O   0  0  0  0  0  0  0  0  0  0  0  0
    9.6857    7.5949   -9.7673 C   0  0  1  0  0  0  0  0  0  0  0  0
   10.0075    7.6870   -8.2623 C   0  0  0  0  0  0  0  0  0  0  0  0
    9.8676    6.5728   -7.4033 C   0  0  0  0  0  0  0  0  0  0  0  0
   10.3706    6.6187   -6.0934 C   0  0  0  0  0  0  0  0  0  0  0  0
   10.9853    7.7627   -5.5905 C   0  0  0  0  0  0  0  0  0  0  0  0
   11.6862    7.6878   -4.0078 Cl  0  0  0  0  0  0  0  0  0  0  0  0
   11.0409    8.9212   -6.3866 C   0  0  0  0  0  0  0  0  0  0  0  0
   11.6407   10.1749   -5.7871 C   0  0  0  0  0  0  0  0  0  0  0  0
   11.6870   11.1789   -6.6473 F   0  0  0  0  0  0  0  0  0  0  0  0
   10.9044   10.5697   -4.7448 F   0  0  0  0  0  0  0  0  0  0  0  0
   12.8859    9.9084   -5.3978 F   0  0  0  0  0  0  0  0  0  0  0  0
   10.5672    8.8739   -7.7227 C   0  0  0  0  0  0  0  0  0  0  0  0
    8.9904    6.2641  -10.1829 C   0  0  0  0  0  0  0  0  0  0  0  0
    8.8954    6.0704  -11.7066 C   0  0  0  0  0  0  0  0  0  0  0  0
   10.2537    6.1314  -12.2983 N   0  0  1  0  0  0  0  0  0  0  0  0
   10.3329    5.7318  -13.7224 C   0  0  0  0  0  0  0  0  0  0  0  0
   11.0694    4.3923  -13.8787 C   0  0  0  0  0  0  0  0  0  0  0  0
   11.3586    4.0286  -15.3468 C   0  0  0  0  0  0  0  0  0  0  0  0
   10.1016    3.7083  -16.1867 C   0  0  0  0  0  0  0  0  0  0  0  0
    9.3819    2.4679  -15.6739 C   0  0  0  0  0  0  0  0  0  0  0  0
    9.9415    1.1872  -15.8684 C   0  0  0  0  0  0  0  0  0  0  0  0
    9.2659    0.0463  -15.4041 C   0  0  0  0  0  0  0  0  0  0  0  0
    8.0266    0.1723  -14.7471 C   0  0  0  0  0  0  0  0  0  0  0  0
    7.4715    1.4450  -14.5349 C   0  0  0  0  0  0  0  0  0  0  0  0
    8.1547    2.5886  -14.9838 C   0  0  0  0  0  0  0  0  0  0  0  0
   10.3710    3.6380  -17.6890 C   0  0  0  0  0  0  0  0  0  0  0  0
    9.4102    4.1517  -18.5902 C   0  0  0  0  0  0  0  0  0  0  0  0
    9.6345    4.1017  -19.9788 C   0  0  0  0  0  0  0  0  0  0  0  0
   10.8232    3.5396  -20.4799 C   0  0  0  0  0  0  0  0  0  0  0  0
   11.7851    3.0229  -19.5908 C   0  0  0  0  0  0  0  0  0  0  0  0
   11.5610    3.0712  -18.2016 C   0  0  0  0  0  0  0  0  0  0  0  0
   10.8895    7.4349  -12.0398 C   0  0  0  0  0  0  0  0  0  0  0  0
   11.0247    7.7029  -10.5344 C   0  0  0  0  0  0  0  0  0  0  0  0
    7.9464    8.4256  -10.2351 H   0  0  0  0  0  0  0  0  0  0  0  0
    9.4224    5.6456   -7.7259 H   0  0  0  0  0  0  0  0  0  0  0  0
   10.3157    5.7717   -5.4392 H   0  0  0  0  0  0  0  0  0  0  0  0
   10.6732    9.7389   -8.3599 H   0  0  0  0  0  0  0  0  0  0  0  0
    9.5713    5.4162   -9.8196 H   0  0  0  0  0  0  0  0  0  0  0  0
    8.0054    6.1728   -9.7233 H   0  0  0  0  0  0  0  0  0  0  0  0
    8.4482    5.0986  -11.9194 H   0  0  0  0  0  0  0  0  0  0  0  0
    8.2454    6.8253  -12.1540 H   0  0  0  0  0  0  0  0  0  0  0  0
    9.3329    5.6855  -14.1546 H   0  0  0  0  0  0  0  0  0  0  0  0
   10.8862    6.4756  -14.2983 H   0  0  0  0  0  0  0  0  0  0  0  0
   12.0280    4.4553  -13.3624 H   0  0  0  0  0  0  0  0  0  0  0  0
   10.5149    3.5916  -13.3875 H   0  0  0  0  0  0  0  0  0  0  0  0
   11.8997    4.8561  -15.8075 H   0  0  0  0  0  0  0  0  0  0  0  0
   12.0418    3.1790  -15.3630 H   0  0  0  0  0  0  0  0  0  0  0  0
    9.4160    4.5475  -16.0722 H   0  0  0  0  0  0  0  0  0  0  0  0
   10.8872    1.0708  -16.3751 H   0  0  0  0  0  0  0  0  0  0  0  0
    9.6902   -0.9349  -15.5584 H   0  0  0  0  0  0  0  0  0  0  0  0
    7.5007   -0.7065  -14.4049 H   0  0  0  0  0  0  0  0  0  0  0  0
    6.5277    1.5438  -14.0192 H   0  0  0  0  0  0  0  0  0  0  0  0
    7.7254    3.5590  -14.7879 H   0  0  0  0  0  0  0  0  0  0  0  0
    8.4915    4.5862  -18.2233 H   0  0  0  0  0  0  0  0  0  0  0  0
    8.8953    4.4977  -20.6593 H   0  0  0  0  0  0  0  0  0  0  0  0
   10.9967    3.5050  -21.5456 H   0  0  0  0  0  0  0  0  0  0  0  0
   12.6971    2.5895  -19.9746 H   0  0  0  0  0  0  0  0  0  0  0  0
   12.3108    2.6661  -17.5389 H   0  0  0  0  0  0  0  0  0  0  0  0
   11.8772    7.4759  -12.5034 H   0  0  0  0  0  0  0  0  0  0  0  0
   10.2634    8.1823  -12.5172 H   0  0  0  0  0  0  0  0  0  0  0  0
   11.4760    8.6853  -10.3848 H   0  0  0  0  0  0  0  0  0  0  0  0
   11.7333    6.9845  -10.1193 H   0  0  0  0  0  0  0  0  0  0  0  0
   10.8017    5.4462  -11.8009 H   0  0  0  0  0  0  0  0  0  0  0  0
  2  1  1  6
  3  2  1  0
  4  3  2  0
  5  4  1  0
  6  5  2  0
  7  6  1  0
  8  6  1  0
  9  8  1  0
 10  9  1  0
 11  9  1  0
 12  9  1  0
 13  3  1  0
 13  8  2  0
 14  2  1  0
 15 14  1  0
 16 15  1  0
 17 16  1  0
 18 17  1  0
 19 18  1  0
 20 19  1  0
 21 20  1  0
 22 21  2  0
 23 22  1  0
 24 23  2  0
 25 24  1  0
 26 21  1  0
 26 25  2  0
 27 20  1  0
 28 27  2  0
 29 28  1  0
 30 29  2  0
 31 30  1  0
 32 27  1  0
 32 31  2  0
 33 16  1  0
 34  2  1  0
 34 33  1  0
 35  1  1  0
 36  4  1  0
 37  5  1  0
 38 13  1  0
 39 14  1  0
 40 14  1  0
 41 15  1  0
 42 15  1  0
 43 17  1  0
 44 17  1  0
 45 18  1  0
 46 18  1  0
 47 19  1  0
 48 19  1  0
 49 20  1  0
 50 22  1  0
 51 23  1  0
 52 24  1  0
 53 25  1  0
 54 26  1  0
 55 28  1  0
 56 29  1  0
 57 30  1  0
 58 31  1  0
 59 32  1  0
 60 33  1  0
 61 33  1  0
 62 34  1  0
 63 34  1  0
 16 64  1  1
M  CHG  1  16   1
M  END
>  <b_m_subgroup_collapsed>  (783) 
0

>  <r_i_docking_score>  (783) 
-7.3491171773603501

>  <s_m_subgroup_title>  (783) 
glide-dock_SP_D22_pv

>  <s_m_subgroupid>  (783) 
glide-dock_SP_D22_pv

>  <Molecule ChEMBL ID>  (783) 
CHEMBL1644980

>  <Standard Type>  (783) 
Ki

>  <Standard Value>  (783) 
38.0

>  <label>  (783) 
1

$$$$
CHEMBL2335737
     RDKit          3D

 47 50  0  0  1  0  0  0  0  0999 V2000
    6.0653    1.5023  -14.1656 C   0  0  0  0  0  0  0  0  0  0  0  0
    6.9082    2.7219  -13.8466 C   0  0  0  0  0  0  0  0  0  0  0  0
    8.1950    2.8319  -14.4034 C   0  0  0  0  0  0  0  0  0  0  0  0
    9.0631    3.8661  -13.9998 C   0  0  0  0  0  0  0  0  0  0  0  0
    8.6457    4.8171  -13.0352 C   0  0  0  0  0  0  0  0  0  0  0  0
    7.3392    4.7269  -12.5124 C   0  0  0  0  0  0  0  0  0  0  0  0
    6.4874    3.6755  -12.8888 C   0  0  0  0  0  0  0  0  0  0  0  0
    5.2866    3.5688  -12.2526 O   0  0  0  0  0  0  0  0  0  0  0  0
    9.5567    5.9699  -12.5993 C   0  0  1  0  0  0  0  0  0  0  0  0
    9.6165    6.2045  -11.0658 C   0  0  0  0  0  0  0  0  0  0  0  0
   10.3694    7.5171  -10.7062 C   0  0  1  0  0  0  0  0  0  0  0  0
    9.5676    8.5664  -11.2108 O   0  0  0  0  0  0  0  0  0  0  0  0
   10.5724    7.7239   -9.1949 C   0  0  0  0  0  0  0  0  0  0  0  0
   11.4428    8.7440   -8.7461 C   0  0  0  0  0  0  0  0  0  0  0  0
   11.6578    8.9697   -7.3748 C   0  0  0  0  0  0  0  0  0  0  0  0
   10.9952    8.1829   -6.4214 C   0  0  0  0  0  0  0  0  0  0  0  0
   11.2895    8.4582   -4.7440 Cl  0  0  0  0  0  0  0  0  0  0  0  0
   10.0996    7.1828   -6.8442 C   0  0  0  0  0  0  0  0  0  0  0  0
    9.8879    6.9538   -8.2202 C   0  0  0  0  0  0  0  0  0  0  0  0
   11.7411    7.5611  -11.4492 C   0  0  0  0  0  0  0  0  0  0  0  0
   11.7150    7.0962  -12.9204 C   0  0  0  0  0  0  0  0  0  0  0  0
   10.9477    5.8462  -13.1156 N   0  0  2  0  0  0  0  0  0  0  0  0
   11.0265    5.3486  -14.5070 C   0  0  0  0  0  0  0  0  0  0  0  0
   10.4570    3.9316  -14.5860 C   0  0  0  0  0  0  0  0  0  0  0  0
    6.1015    1.2656  -15.2308 H   0  0  0  0  0  0  0  0  0  0  0  0
    6.4457    0.6400  -13.6128 H   0  0  0  0  0  0  0  0  0  0  0  0
    5.0220    1.6370  -13.8736 H   0  0  0  0  0  0  0  0  0  0  0  0
    8.5324    2.0915  -15.1131 H   0  0  0  0  0  0  0  0  0  0  0  0
    6.9865    5.4512  -11.7907 H   0  0  0  0  0  0  0  0  0  0  0  0
    5.2257    4.1547  -11.5096 H   0  0  0  0  0  0  0  0  0  0  0  0
    9.0897    6.8440  -13.0467 H   0  0  0  0  0  0  0  0  0  0  0  0
   10.0856    5.3433  -10.5873 H   0  0  0  0  0  0  0  0  0  0  0  0
    8.6082    6.2680  -10.6537 H   0  0  0  0  0  0  0  0  0  0  0  0
    8.7205    8.5339  -10.7775 H   0  0  0  0  0  0  0  0  0  0  0  0
   11.9631    9.3742   -9.4480 H   0  0  0  0  0  0  0  0  0  0  0  0
   12.3365    9.7475   -7.0490 H   0  0  0  0  0  0  0  0  0  0  0  0
    9.5751    6.5872   -6.1123 H   0  0  0  0  0  0  0  0  0  0  0  0
    9.1843    6.1874   -8.5010 H   0  0  0  0  0  0  0  0  0  0  0  0
   12.4818    6.9723  -10.9059 H   0  0  0  0  0  0  0  0  0  0  0  0
   12.1506    8.5710  -11.4379 H   0  0  0  0  0  0  0  0  0  0  0  0
   12.7408    6.9575  -13.2663 H   0  0  0  0  0  0  0  0  0  0  0  0
   11.2865    7.8608  -13.5642 H   0  0  0  0  0  0  0  0  0  0  0  0
   12.0662    5.3321  -14.8417 H   0  0  0  0  0  0  0  0  0  0  0  0
   10.4852    6.0185  -15.1757 H   0  0  0  0  0  0  0  0  0  0  0  0
   11.0926    3.2316  -14.0419 H   0  0  0  0  0  0  0  0  0  0  0  0
   10.4382    3.5960  -15.6239 H   0  0  0  0  0  0  0  0  0  0  0  0
   11.3929    5.1325  -12.5572 H   0  0  0  0  0  0  0  0  0  0  0  0
  2  1  1  0
  3  2  2  0
  4  3  1  0
  5  4  2  0
  6  5  1  0
  7  2  1  0
  7  6  2  0
  8  7  1  0
  9  5  1  0
 10  9  1  0
 11 10  1  0
 11 12  1  6
 13 11  1  0
 14 13  1  0
 15 14  2  0
 16 15  1  0
 17 16  1  0
 18 16  2  0
 19 13  2  0
 19 18  1  0
 20 11  1  0
 21 20  1  0
 22  9  1  0
 22 21  1  0
 23 22  1  0
 24  4  1  0
 24 23  1  0
 25  1  1  0
 26  1  1  0
 27  1  1  0
 28  3  1  0
 29  6  1  0
 30  8  1  0
  9 31  1  6
 32 10  1  0
 33 10  1  0
 34 12  1  0
 35 14  1  0
 36 15  1  0
 37 18  1  0
 38 19  1  0
 39 20  1  0
 40 20  1  0
 41 21  1  0
 42 21  1  0
 43 23  1  0
 44 23  1  0
 45 24  1  0
 46 24  1  0
 22 47  1  1
M  CHG  1  22   1
M  END
>  <b_m_subgroup_collapsed>  (784) 
0

>  <r_i_docking_score>  (784) 
-7.3472892224636404

>  <s_m_subgroup_title>  (784) 
glide-dock_SP_D22_pv

>  <s_m_subgroupid>  (784) 
glide-dock_SP_D22_pv

>  <Molecule ChEMBL ID>  (784) 
CHEMBL2335737

>  <Standard Type>  (784) 
Ki

>  <Standard Value>  (784) 
12.3

>  <label>  (784) 
1

$$$$
CHEMBL104800
     RDKit          3D

 52 55  0  0  1  0  0  0  0  0999 V2000
   10.2240    3.3467  -16.6968 O   0  0  0  0  0  0  0  0  0  0  0  0
   10.1554    2.8435  -15.3156 S   0  0  0  0  0  0  0  0  0  0  0  0
   11.2651    2.9841  -14.3578 O   0  0  0  0  0  0  0  0  0  0  0  0
    9.4556    1.1405  -15.2639 C   0  0  0  0  0  0  0  0  0  0  0  0
    8.0775    1.3363  -14.6474 C   0  0  0  0  0  0  0  0  0  0  0  0
    7.1833    0.2793  -14.3923 C   0  0  0  0  0  0  0  0  0  0  0  0
    5.9413    0.5599  -13.7877 C   0  0  0  0  0  0  0  0  0  0  0  0
    5.5985    1.8855  -13.4438 C   0  0  0  0  0  0  0  0  0  0  0  0
    6.4875    2.9489  -13.7110 C   0  0  0  0  0  0  0  0  0  0  0  0
    7.7361    2.6589  -14.3059 C   0  0  0  0  0  0  0  0  0  0  0  0
    8.7654    3.5552  -14.6037 N   0  0  0  0  0  0  0  0  0  0  0  0
    8.8594    4.7821  -13.8177 C   0  0  0  0  0  0  0  0  0  0  0  0
    9.3180    4.4853  -12.3803 C   0  0  0  0  0  0  0  0  0  0  0  0
    8.9667    5.5431  -11.4406 N   0  0  0  0  0  0  0  0  0  0  0  0
    9.8494    6.7036  -11.5651 C   0  0  0  0  0  0  0  0  0  0  0  0
    9.4853    7.7748  -10.5168 C   0  0  0  0  0  0  0  0  0  0  0  0
    9.5679    7.2271   -9.1377 N   0  0  0  0  0  0  0  0  0  0  0  0
    9.2453    8.2331   -8.0900 C   0  0  0  0  0  0  0  0  0  0  0  0
   10.1730    8.1641   -6.8820 C   0  0  0  0  0  0  0  0  0  0  0  0
   10.9188    9.2984   -6.4908 C   0  0  0  0  0  0  0  0  0  0  0  0
   11.6633    9.2901   -5.2949 C   0  0  0  0  0  0  0  0  0  0  0  0
   11.6870    8.1365   -4.4903 C   0  0  0  0  0  0  0  0  0  0  0  0
   12.4860    8.1518   -2.9628 Cl  0  0  0  0  0  0  0  0  0  0  0  0
   11.0280    6.9729   -4.9193 C   0  0  0  0  0  0  0  0  0  0  0  0
   10.2508    6.9994   -6.0891 C   0  0  0  0  0  0  0  0  0  0  0  0
    8.7278    6.0091   -9.0364 C   0  0  0  0  0  0  0  0  0  0  0  0
    9.0957    4.9815  -10.0991 C   0  0  0  0  0  0  0  0  0  0  0  0
   10.0857    0.5079  -14.6403 H   0  0  0  0  0  0  0  0  0  0  0  0
    9.3956    0.7378  -16.2743 H   0  0  0  0  0  0  0  0  0  0  0  0
    7.4409   -0.7373  -14.6486 H   0  0  0  0  0  0  0  0  0  0  0  0
    5.2497   -0.2459  -13.5886 H   0  0  0  0  0  0  0  0  0  0  0  0
    4.6439    2.0921  -12.9818 H   0  0  0  0  0  0  0  0  0  0  0  0
    6.2056    3.9558  -13.4426 H   0  0  0  0  0  0  0  0  0  0  0  0
    9.5691    5.4530  -14.3033 H   0  0  0  0  0  0  0  0  0  0  0  0
    7.9026    5.3048  -13.8318 H   0  0  0  0  0  0  0  0  0  0  0  0
    8.8255    3.5685  -12.0563 H   0  0  0  0  0  0  0  0  0  0  0  0
   10.3881    4.2766  -12.3447 H   0  0  0  0  0  0  0  0  0  0  0  0
   10.8863    6.4024  -11.4463 H   0  0  0  0  0  0  0  0  0  0  0  0
    9.7573    7.1325  -12.5634 H   0  0  0  0  0  0  0  0  0  0  0  0
   10.1709    8.6169  -10.6128 H   0  0  0  0  0  0  0  0  0  0  0  0
    8.4863    8.1596  -10.7137 H   0  0  0  0  0  0  0  0  0  0  0  0
    9.3068    9.2398   -8.5080 H   0  0  0  0  0  0  0  0  0  0  0  0
    8.2158    8.1277   -7.7458 H   0  0  0  0  0  0  0  0  0  0  0  0
   10.8868   10.2014   -7.0745 H   0  0  0  0  0  0  0  0  0  0  0  0
   12.1960   10.1731   -4.9794 H   0  0  0  0  0  0  0  0  0  0  0  0
   11.0475    6.0826   -4.3069 H   0  0  0  0  0  0  0  0  0  0  0  0
    9.6792    6.1232   -6.3202 H   0  0  0  0  0  0  0  0  0  0  0  0
    8.8013    5.5351   -8.0655 H   0  0  0  0  0  0  0  0  0  0  0  0
    7.6860    6.2567   -9.1605 H   0  0  0  0  0  0  0  0  0  0  0  0
    8.3794    4.1723   -9.9996 H   0  0  0  0  0  0  0  0  0  0  0  0
   10.0887    4.5687   -9.9257 H   0  0  0  0  0  0  0  0  0  0  0  0
   10.5247    6.9486   -8.9877 H   0  0  0  0  0  0  0  0  0  0  0  0
  2  1  2  0
  3  2  2  0
  4  2  1  0
  5  4  1  0
  6  5  2  0
  7  6  1  0
  8  7  2  0
  9  8  1  0
 10  5  1  0
 10  9  2  0
 11  2  1  0
 11 10  1  0
 12 11  1  0
 13 12  1  0
 14 13  1  0
 15 14  1  0
 16 15  1  0
 17 16  1  0
 18 17  1  0
 19 18  1  0
 20 19  1  0
 21 20  2  0
 22 21  1  0
 23 22  1  0
 24 22  2  0
 25 19  2  0
 25 24  1  0
 26 17  1  0
 27 14  1  0
 27 26  1  0
 28  4  1  0
 29  4  1  0
 30  6  1  0
 31  7  1  0
 32  8  1  0
 33  9  1  0
 34 12  1  0
 35 12  1  0
 36 13  1  0
 37 13  1  0
 38 15  1  0
 39 15  1  0
 40 16  1  0
 41 16  1  0
 42 18  1  0
 43 18  1  0
 44 20  1  0
 45 21  1  0
 46 24  1  0
 47 25  1  0
 48 26  1  0
 49 26  1  0
 50 27  1  0
 51 27  1  0
 52 17  1  0
M  CHG  1  17   1
M  END
>  <b_m_subgroup_collapsed>  (785) 
0

>  <r_i_docking_score>  (785) 
-7.3449029115289797

>  <s_m_subgroup_title>  (785) 
glide-dock_SP_D22_pv

>  <s_m_subgroupid>  (785) 
glide-dock_SP_D22_pv

>  <Molecule ChEMBL ID>  (785) 
CHEMBL104800

>  <Standard Type>  (785) 
Ki

>  <Standard Value>  (785) 
10000.0

>  <label>  (785) 
0

$$$$
CHEMBL553500
     RDKit          3D

 45 48  0  0  1  0  0  0  0  0999 V2000
    8.8859    9.0531   -8.3795 O   0  0  0  0  0  0  0  0  0  0  0  0
    9.7768    8.5769   -7.6878 C   0  0  0  0  0  0  0  0  0  0  0  0
   10.1407    8.9644   -6.3618 C   0  0  0  0  0  0  0  0  0  0  0  0
   11.0951    8.1327   -5.9556 C   0  0  0  0  0  0  0  0  0  0  0  0
   11.6738    8.1669   -4.6114 C   0  0  0  0  0  0  0  0  0  0  0  0
   11.6863    9.3724   -3.8806 C   0  0  0  0  0  0  0  0  0  0  0  0
   12.0930    9.3702   -2.5377 C   0  0  0  0  0  0  0  0  0  0  0  0
   12.4862    8.1715   -1.9203 C   0  0  0  0  0  0  0  0  0  0  0  0
   12.4850    6.9687   -2.6506 C   0  0  0  0  0  0  0  0  0  0  0  0
   12.0770    6.9678   -3.9961 C   0  0  0  0  0  0  0  0  0  0  0  0
   11.5125    7.2565   -6.9285 O   0  0  0  0  0  0  0  0  0  0  0  0
   10.7357    7.4762   -8.1137 C   0  0  0  0  0  0  0  0  0  0  0  0
   11.6169    7.9596   -9.2846 C   0  0  0  0  0  0  0  0  0  0  0  0
   10.8504    7.9397  -10.6229 C   0  0  0  0  0  0  0  0  0  0  0  0
   10.2191    6.6429  -10.8997 N   0  0  0  0  0  0  0  0  0  0  0  0
    9.4942    6.7998  -12.1584 C   0  0  0  0  0  0  0  0  0  0  0  0
    8.8000    5.5623  -12.6982 C   0  0  0  0  0  0  0  0  0  0  0  0
    7.4078    5.4109  -12.5292 C   0  0  0  0  0  0  0  0  0  0  0  0
    6.7421    4.3076  -13.1003 C   0  0  0  0  0  0  0  0  0  0  0  0
    7.4670    3.3578  -13.8468 C   0  0  0  0  0  0  0  0  0  0  0  0
    8.8610    3.4932  -13.9938 C   0  0  0  0  0  0  0  0  0  0  0  0
    9.5292    4.5928  -13.4184 C   0  0  0  0  0  0  0  0  0  0  0  0
    9.2868    6.2760   -9.8305 C   0  0  0  0  0  0  0  0  0  0  0  0
   10.0213    6.1665   -8.4854 C   0  0  0  0  0  0  0  0  0  0  0  0
    9.6860    9.7528   -5.7933 H   0  0  0  0  0  0  0  0  0  0  0  0
   11.3649   10.2996   -4.3315 H   0  0  0  0  0  0  0  0  0  0  0  0
   12.1038   10.2887   -1.9758 H   0  0  0  0  0  0  0  0  0  0  0  0
   12.8059    8.1743   -0.8908 H   0  0  0  0  0  0  0  0  0  0  0  0
   12.7812    6.0430   -2.1759 H   0  0  0  0  0  0  0  0  0  0  0  0
   12.0432    6.0379   -4.5448 H   0  0  0  0  0  0  0  0  0  0  0  0
   11.9722    8.9726   -9.0931 H   0  0  0  0  0  0  0  0  0  0  0  0
   12.5247    7.3723   -9.3660 H   0  0  0  0  0  0  0  0  0  0  0  0
   10.0950    8.7276  -10.6227 H   0  0  0  0  0  0  0  0  0  0  0  0
   11.5457    8.1770  -11.4300 H   0  0  0  0  0  0  0  0  0  0  0  0
    8.7606    7.6051  -12.0758 H   0  0  0  0  0  0  0  0  0  0  0  0
   10.2160    7.1057  -12.9145 H   0  0  0  0  0  0  0  0  0  0  0  0
    6.8457    6.1458  -11.9681 H   0  0  0  0  0  0  0  0  0  0  0  0
    5.6749    4.2005  -12.9757 H   0  0  0  0  0  0  0  0  0  0  0  0
    6.9571    2.5163  -14.2922 H   0  0  0  0  0  0  0  0  0  0  0  0
    9.4205    2.7590  -14.5544 H   0  0  0  0  0  0  0  0  0  0  0  0
   10.5958    4.7028  -13.5451 H   0  0  0  0  0  0  0  0  0  0  0  0
    8.4861    7.0098   -9.7701 H   0  0  0  0  0  0  0  0  0  0  0  0
    8.8159    5.3183  -10.0520 H   0  0  0  0  0  0  0  0  0  0  0  0
   10.7491    5.3579   -8.5348 H   0  0  0  0  0  0  0  0  0  0  0  0
    9.3123    5.8862   -7.7044 H   0  0  0  0  0  0  0  0  0  0  0  0
  2  1  2  0
  3  2  1  0
  4  3  2  0
  5  4  1  0
  6  5  2  0
  7  6  1  0
  8  7  2  0
  9  8  1  0
 10  5  1  0
 10  9  2  0
 11  4  1  0
 12  2  1  0
 12 11  1  0
 13 12  1  0
 14 13  1  0
 15 14  1  0
 16 15  1  0
 17 16  1  0
 18 17  2  0
 19 18  1  0
 20 19  2  0
 21 20  1  0
 22 17  1  0
 22 21  2  0
 23 15  1  0
 24 12  1  0
 24 23  1  0
 25  3  1  0
 26  6  1  0
 27  7  1  0
 28  8  1  0
 29  9  1  0
 30 10  1  0
 31 13  1  0
 32 13  1  0
 33 14  1  0
 34 14  1  0
 35 16  1  0
 36 16  1  0
 37 18  1  0
 38 19  1  0
 39 20  1  0
 40 21  1  0
 41 22  1  0
 42 23  1  0
 43 23  1  0
 44 24  1  0
 45 24  1  0
M  END
>  <b_m_subgroup_collapsed>  (786) 
0

>  <r_i_docking_score>  (786) 
-7.3414134383223804

>  <s_m_subgroup_title>  (786) 
glide-dock_SP_D22_pv

>  <s_m_subgroupid>  (786) 
glide-dock_SP_D22_pv

>  <Molecule ChEMBL ID>  (786) 
CHEMBL553500

>  <Standard Type>  (786) 
Ki

>  <Standard Value>  (786) 
10000.0

>  <label>  (786) 
0

$$$$
CHEMBL3597639
     RDKit          3D

 58 61  0  0  1  0  0  0  0  0999 V2000
    9.8971    5.3734   -8.6461 O   0  0  0  0  0  0  0  0  0  0  0  0
   10.0717    6.5853   -8.7714 C   0  0  0  0  0  0  0  0  0  0  0  0
    9.9916    7.2223   -9.9489 N   0  0  0  0  0  0  0  0  0  0  0  0
    9.6553    6.6412  -11.2430 C   0  0  0  0  0  0  0  0  0  0  0  0
    8.3674    5.7934  -11.2401 C   0  0  0  0  0  0  0  0  0  0  0  0
    7.6545    5.8120  -12.5982 C   0  0  0  0  0  0  0  0  0  0  0  0
    8.2643    4.8500  -13.6408 C   0  0  0  0  0  0  0  0  0  0  0  0
    7.8231    3.4330  -13.5155 N   0  0  0  0  0  0  0  0  0  0  0  0
    6.3500    3.2453  -13.6823 C   0  0  0  0  0  0  0  0  0  0  0  0
    5.9356    1.7711  -13.5789 C   0  0  0  0  0  0  0  0  0  0  0  0
    6.7311    0.9745  -14.4939 N   0  0  0  0  0  0  0  0  0  0  0  0
    6.0820    0.1414  -15.4264 C   0  0  0  0  0  0  0  0  0  0  0  0
    5.1036   -0.7566  -14.9473 C   0  0  0  0  0  0  0  0  0  0  0  0
    4.3650   -1.5604  -15.8337 C   0  0  0  0  0  0  0  0  0  0  0  0
    4.6016   -1.4832  -17.2158 C   0  0  0  0  0  0  0  0  0  0  0  0
    5.5728   -0.5953  -17.7133 C   0  0  0  0  0  0  0  0  0  0  0  0
    5.8147   -0.4969  -19.4226 Cl  0  0  0  0  0  0  0  0  0  0  0  0
    6.3132    0.2225  -16.8274 C   0  0  0  0  0  0  0  0  0  0  0  0
    7.4221    1.3754  -17.4932 Cl  0  0  0  0  0  0  0  0  0  0  0  0
    8.1775    1.0705  -14.3863 C   0  0  0  0  0  0  0  0  0  0  0  0
    8.6213    2.5490  -14.4169 C   0  0  0  0  0  0  0  0  0  0  0  0
   10.4639    7.4315   -7.5917 C   0  0  0  0  0  0  0  0  0  0  0  0
   10.3175    8.8347   -7.5677 C   0  0  0  0  0  0  0  0  0  0  0  0
   10.6614    9.6011   -6.5096 N   0  0  0  0  0  0  0  0  0  0  0  0
   11.1250    9.0057   -5.3907 C   0  0  0  0  0  0  0  0  0  0  0  0
   11.4362    9.7723   -4.2550 C   0  0  0  0  0  0  0  0  0  0  0  0
   11.9297    9.1776   -3.0763 C   0  0  0  0  0  0  0  0  0  0  0  0
   12.0726    7.7799   -3.0065 C   0  0  0  0  0  0  0  0  0  0  0  0
   12.4861    7.1971   -1.8620 F   0  0  0  0  0  0  0  0  0  0  0  0
   11.7448    6.9874   -4.1208 C   0  0  0  0  0  0  0  0  0  0  0  0
   11.2848    7.6018   -5.3041 C   0  0  0  0  0  0  0  0  0  0  0  0
   10.9629    6.8237   -6.4277 C   0  0  0  0  0  0  0  0  0  0  0  0
   10.1640    8.2159   -9.9454 H   0  0  0  0  0  0  0  0  0  0  0  0
    9.5468    7.4863  -11.9229 H   0  0  0  0  0  0  0  0  0  0  0  0
   10.4859    6.0497  -11.6216 H   0  0  0  0  0  0  0  0  0  0  0  0
    8.5865    4.7701  -10.9332 H   0  0  0  0  0  0  0  0  0  0  0  0
    7.6858    6.1710  -10.4841 H   0  0  0  0  0  0  0  0  0  0  0  0
    6.5921    5.6483  -12.4440 H   0  0  0  0  0  0  0  0  0  0  0  0
    7.6970    6.8255  -12.9959 H   0  0  0  0  0  0  0  0  0  0  0  0
    8.0344    5.2001  -14.6455 H   0  0  0  0  0  0  0  0  0  0  0  0
    9.3509    4.8948  -13.5696 H   0  0  0  0  0  0  0  0  0  0  0  0
    5.7856    3.7786  -12.9239 H   0  0  0  0  0  0  0  0  0  0  0  0
    6.0452    3.6483  -14.6468 H   0  0  0  0  0  0  0  0  0  0  0  0
    6.0840    1.3972  -12.5654 H   0  0  0  0  0  0  0  0  0  0  0  0
    4.8701    1.6718  -13.7915 H   0  0  0  0  0  0  0  0  0  0  0  0
    4.9095   -0.8334  -13.8903 H   0  0  0  0  0  0  0  0  0  0  0  0
    3.6131   -2.2382  -15.4540 H   0  0  0  0  0  0  0  0  0  0  0  0
    4.0303   -2.1040  -17.8916 H   0  0  0  0  0  0  0  0  0  0  0  0
    8.4813    0.6068  -13.4480 H   0  0  0  0  0  0  0  0  0  0  0  0
    8.6706    0.4996  -15.1757 H   0  0  0  0  0  0  0  0  0  0  0  0
    8.5317    2.9288  -15.4335 H   0  0  0  0  0  0  0  0  0  0  0  0
    9.6765    2.6113  -14.1547 H   0  0  0  0  0  0  0  0  0  0  0  0
    9.9177    9.3707   -8.4170 H   0  0  0  0  0  0  0  0  0  0  0  0
   11.2863   10.8402   -4.2933 H   0  0  0  0  0  0  0  0  0  0  0  0
   12.1694    9.7855   -2.2152 H   0  0  0  0  0  0  0  0  0  0  0  0
   11.8384    5.9135   -4.0591 H   0  0  0  0  0  0  0  0  0  0  0  0
   11.0982    5.7660   -6.3897 H   0  0  0  0  0  0  0  0  0  0  0  0
    8.0403    3.1434  -12.5734 H   0  0  0  0  0  0  0  0  0  0  0  0
  2  1  2  0
  3  2  1  0
  4  3  1  0
  5  4  1  0
  6  5  1  0
  7  6  1  0
  8  7  1  0
  9  8  1  0
 10  9  1  0
 11 10  1  0
 12 11  1  0
 13 12  2  0
 14 13  1  0
 15 14  2  0
 16 15  1  0
 17 16  1  0
 18 12  1  0
 18 16  2  0
 19 18  1  0
 20 11  1  0
 21  8  1  0
 21 20  1  0
 22  2  1  0
 23 22  1  0
 24 23  2  0
 25 24  1  0
 26 25  2  0
 27 26  1  0
 28 27  2  0
 29 28  1  0
 30 28  1  0
 31 25  1  0
 31 30  2  0
 32 22  2  0
 32 31  1  0
 33  3  1  0
 34  4  1  0
 35  4  1  0
 36  5  1  0
 37  5  1  0
 38  6  1  0
 39  6  1  0
 40  7  1  0
 41  7  1  0
 42  9  1  0
 43  9  1  0
 44 10  1  0
 45 10  1  0
 46 13  1  0
 47 14  1  0
 48 15  1  0
 49 20  1  0
 50 20  1  0
 51 21  1  0
 52 21  1  0
 53 23  1  0
 54 26  1  0
 55 27  1  0
 56 30  1  0
 57 32  1  0
 58  8  1  0
M  CHG  1   8   1
M  END
>  <b_m_subgroup_collapsed>  (787) 
0

>  <r_i_docking_score>  (787) 
-7.3413782757540798

>  <s_m_subgroup_title>  (787) 
glide-dock_SP_D22_pv

>  <s_m_subgroupid>  (787) 
glide-dock_SP_D22_pv

>  <Molecule ChEMBL ID>  (787) 
CHEMBL3597639

>  <Standard Type>  (787) 
Ki

>  <Standard Value>  (787) 
39.2

>  <label>  (787) 
1

$$$$
CHEMBL201577
     RDKit          3D

 47 49  0  0  1  0  0  0  0  0999 V2000
   10.0392    6.7553  -10.4509 O   0  0  0  0  0  0  0  0  0  0  0  0
    9.3572    5.8604   -9.9488 C   0  0  0  0  0  0  0  0  0  0  0  0
    9.0617    4.5727  -10.7189 C   0  0  0  0  0  0  0  0  0  0  0  0
    9.3093    4.6341  -12.2438 C   0  0  0  0  0  0  0  0  0  0  0  0
    8.2030    5.3368  -13.0639 C   0  0  0  0  0  0  0  0  0  0  0  0
    6.8376    4.6309  -13.0344 C   0  0  0  0  0  0  0  0  0  0  0  0
    5.8566    5.2571  -12.6361 O   0  0  0  0  0  0  0  0  0  0  0  0
    6.7553    3.2183  -13.4930 C   0  0  0  0  0  0  0  0  0  0  0  0
    7.7061    2.6562  -14.3785 C   0  0  0  0  0  0  0  0  0  0  0  0
    7.6035    1.3101  -14.7773 C   0  0  0  0  0  0  0  0  0  0  0  0
    6.5413    0.5103  -14.3089 C   0  0  0  0  0  0  0  0  0  0  0  0
    5.5789    1.0649  -13.4466 C   0  0  0  0  0  0  0  0  0  0  0  0
    5.6845    2.4130  -13.0444 C   0  0  0  0  0  0  0  0  0  0  0  0
    8.8882    5.9043   -8.6924 N   0  0  0  0  0  0  0  0  0  0  0  0
    9.1583    6.9728   -7.7392 C   0  0  0  0  0  0  0  0  0  0  0  0
   10.5848    6.8540   -7.1678 C   0  0  0  0  0  0  0  0  0  0  0  0
   10.9327    7.9647   -6.2292 C   0  0  0  0  0  0  0  0  0  0  0  0
   10.8863    9.3009   -6.5204 C   0  0  0  0  0  0  0  0  0  0  0  0
   11.2861   10.0252   -5.4083 N   0  0  0  0  0  0  0  0  0  0  0  0
   11.6249    9.1748   -4.3727 C   0  0  0  0  0  0  0  0  0  0  0  0
   12.0857    9.4057   -3.0647 C   0  0  0  0  0  0  0  0  0  0  0  0
   12.3482    8.3140   -2.2187 C   0  0  0  0  0  0  0  0  0  0  0  0
   12.1429    7.0025   -2.6850 C   0  0  0  0  0  0  0  0  0  0  0  0
   11.6860    6.7836   -4.0003 C   0  0  0  0  0  0  0  0  0  0  0  0
   11.4066    7.8594   -4.8758 C   0  0  0  0  0  0  0  0  0  0  0  0
    8.0466    4.2402  -10.5034 H   0  0  0  0  0  0  0  0  0  0  0  0
    9.7288    3.8191  -10.3035 H   0  0  0  0  0  0  0  0  0  0  0  0
    9.4538    3.6152  -12.6028 H   0  0  0  0  0  0  0  0  0  0  0  0
   10.2588    5.1336  -12.4438 H   0  0  0  0  0  0  0  0  0  0  0  0
    8.5172    5.4340  -14.1033 H   0  0  0  0  0  0  0  0  0  0  0  0
    8.0691    6.3560  -12.6955 H   0  0  0  0  0  0  0  0  0  0  0  0
    8.5261    3.2478  -14.7580 H   0  0  0  0  0  0  0  0  0  0  0  0
    8.3408    0.8863  -15.4429 H   0  0  0  0  0  0  0  0  0  0  0  0
    6.4707   -0.5267  -14.6133 H   0  0  0  0  0  0  0  0  0  0  0  0
    4.7603    0.4588  -13.0908 H   0  0  0  0  0  0  0  0  0  0  0  0
    4.9393    2.8188  -12.3756 H   0  0  0  0  0  0  0  0  0  0  0  0
    8.2825    5.1575   -8.3859 H   0  0  0  0  0  0  0  0  0  0  0  0
    9.0040    7.9369   -8.2276 H   0  0  0  0  0  0  0  0  0  0  0  0
    8.4236    6.9130   -6.9341 H   0  0  0  0  0  0  0  0  0  0  0  0
   10.6908    5.8932   -6.6650 H   0  0  0  0  0  0  0  0  0  0  0  0
   11.3066    6.8426   -7.9851 H   0  0  0  0  0  0  0  0  0  0  0  0
   10.5949    9.7735   -7.4453 H   0  0  0  0  0  0  0  0  0  0  0  0
   11.3354   11.0351   -5.3949 H   0  0  0  0  0  0  0  0  0  0  0  0
   12.2273   10.4123   -2.7008 H   0  0  0  0  0  0  0  0  0  0  0  0
   12.6958    8.4852   -1.2110 H   0  0  0  0  0  0  0  0  0  0  0  0
   12.3381    6.1579   -2.0403 H   0  0  0  0  0  0  0  0  0  0  0  0
   11.5299    5.7729   -4.3471 H   0  0  0  0  0  0  0  0  0  0  0  0
  2  1  2  0
  3  2  1  0
  4  3  1  0
  5  4  1  0
  6  5  1  0
  7  6  2  0
  8  6  1  0
  9  8  2  0
 10  9  1  0
 11 10  2  0
 12 11  1  0
 13  8  1  0
 13 12  2  0
 14  2  1  0
 15 14  1  0
 16 15  1  0
 17 16  1  0
 18 17  2  0
 19 18  1  0
 20 19  1  0
 21 20  2  0
 22 21  1  0
 23 22  2  0
 24 23  1  0
 25 17  1  0
 25 20  1  0
 25 24  2  0
 26  3  1  0
 27  3  1  0
 28  4  1  0
 29  4  1  0
 30  5  1  0
 31  5  1  0
 32  9  1  0
 33 10  1  0
 34 11  1  0
 35 12  1  0
 36 13  1  0
 37 14  1  0
 38 15  1  0
 39 15  1  0
 40 16  1  0
 41 16  1  0
 42 18  1  0
 43 19  1  0
 44 21  1  0
 45 22  1  0
 46 23  1  0
 47 24  1  0
M  END
>  <b_m_subgroup_collapsed>  (788) 
0

>  <r_i_docking_score>  (788) 
-7.3382035247558104

>  <s_m_subgroup_title>  (788) 
glide-dock_SP_D22_pv

>  <s_m_subgroupid>  (788) 
glide-dock_SP_D22_pv

>  <Molecule ChEMBL ID>  (788) 
CHEMBL201577

>  <Standard Type>  (788) 
Ki

>  <Standard Value>  (788) 
10000.0

>  <label>  (788) 
0

$$$$
CHEMBL5855629
     RDKit          3D

 61 64  0  0  1  0  0  0  0  0999 V2000
    8.6219    6.1724   -8.6590 C   0  0  0  0  0  0  0  0  0  0  0  0
    9.6890    6.9020   -9.3254 N   0  0  0  0  0  0  0  0  0  0  0  0
    9.9126    7.0468  -10.6485 C   0  0  0  0  0  0  0  0  0  0  0  0
    8.8671    6.3617  -11.8902 S   0  0  0  0  0  0  0  0  0  0  0  0
    9.9836    5.1124  -12.5825 C   0  0  0  0  0  0  0  0  0  0  0  0
   10.9945    5.6771  -13.6097 C   0  0  0  0  0  0  0  0  0  0  0  0
   12.0796    4.6693  -14.0468 C   0  0  0  0  0  0  0  0  0  0  0  0
   11.7606    3.7708  -15.1613 N   0  0  0  0  0  0  0  0  0  0  0  0
   11.7737    4.4057  -16.4711 C   0  0  0  0  0  0  0  0  0  0  0  0
   11.5511    3.3662  -17.5848 C   0  0  0  0  0  0  0  0  0  0  0  0
   10.3279    2.6661  -17.3613 O   0  0  0  0  0  0  0  0  0  0  0  0
   10.2684    1.9897  -16.1021 C   0  0  2  0  0  0  0  0  0  0  0  0
    8.9266    1.2952  -15.8865 C   0  0  0  0  0  0  0  0  0  0  0  0
    7.9442    1.2553  -16.9018 C   0  0  0  0  0  0  0  0  0  0  0  0
    6.6947    0.6459  -16.6639 C   0  0  0  0  0  0  0  0  0  0  0  0
    6.4062    0.0793  -15.4024 C   0  0  0  0  0  0  0  0  0  0  0  0
    5.0692   -0.5836  -15.1077 C   0  0  0  0  0  0  0  0  0  0  0  0
    5.2853   -1.8273  -14.6859 F   0  0  0  0  0  0  0  0  0  0  0  0
    4.4397    0.0872  -14.1422 F   0  0  0  0  0  0  0  0  0  0  0  0
    4.2823   -0.6280  -16.1830 F   0  0  0  0  0  0  0  0  0  0  0  0
    7.3853    0.1201  -14.3914 C   0  0  0  0  0  0  0  0  0  0  0  0
    8.6411    0.7009  -14.6394 C   0  0  0  0  0  0  0  0  0  0  0  0
   10.5262    3.0219  -14.9847 C   0  0  0  0  0  0  0  0  0  0  0  0
   10.9921    7.7737  -10.9308 N   0  0  0  0  0  0  0  0  0  0  0  0
   11.5055    8.1530   -9.7174 N   0  0  0  0  0  0  0  0  0  0  0  0
   10.7011    7.6226   -8.7886 C   0  0  0  0  0  0  0  0  0  0  0  0
   10.9586    7.8424   -7.3667 C   0  0  0  0  0  0  0  0  0  0  0  0
   10.9437    6.7809   -6.4385 C   0  0  0  0  0  0  0  0  0  0  0  0
   11.2860    7.0106   -5.0901 C   0  0  0  0  0  0  0  0  0  0  0  0
   11.6555    8.3033   -4.6486 C   0  0  0  0  0  0  0  0  0  0  0  0
   12.1094    8.5128   -3.2296 C   0  0  0  0  0  0  0  0  0  0  0  0
   12.0858    9.7654   -2.7727 N   0  0  0  0  0  0  0  0  0  0  0  0
   12.4686    7.5734   -2.5242 O   0  0  0  0  0  0  0  0  0  0  0  0
   11.6428    9.3689   -5.5797 C   0  0  0  0  0  0  0  0  0  0  0  0
   11.2866    9.1387   -6.9208 C   0  0  0  0  0  0  0  0  0  0  0  0
    8.9331    5.1426   -8.4838 H   0  0  0  0  0  0  0  0  0  0  0  0
    8.3825    6.6417   -7.7054 H   0  0  0  0  0  0  0  0  0  0  0  0
    7.7183    6.1691   -9.2696 H   0  0  0  0  0  0  0  0  0  0  0  0
   10.4857    4.6005  -11.7669 H   0  0  0  0  0  0  0  0  0  0  0  0
    9.3372    4.3659  -13.0348 H   0  0  0  0  0  0  0  0  0  0  0  0
   10.4833    6.0834  -14.4797 H   0  0  0  0  0  0  0  0  0  0  0  0
   11.5126    6.5218  -13.1605 H   0  0  0  0  0  0  0  0  0  0  0  0
   12.9763    5.2314  -14.3120 H   0  0  0  0  0  0  0  0  0  0  0  0
   12.3770    4.0813  -13.1813 H   0  0  0  0  0  0  0  0  0  0  0  0
   10.9981    5.1702  -16.5285 H   0  0  0  0  0  0  0  0  0  0  0  0
   12.7268    4.9107  -16.6311 H   0  0  0  0  0  0  0  0  0  0  0  0
   11.5078    3.8559  -18.5574 H   0  0  0  0  0  0  0  0  0  0  0  0
   12.3796    2.6571  -17.6191 H   0  0  0  0  0  0  0  0  0  0  0  0
   11.0469    1.2250  -16.0802 H   0  0  0  0  0  0  0  0  0  0  0  0
    8.1400    1.6943  -17.8688 H   0  0  0  0  0  0  0  0  0  0  0  0
    5.9578    0.6224  -17.4529 H   0  0  0  0  0  0  0  0  0  0  0  0
    7.1784   -0.3187  -13.4262 H   0  0  0  0  0  0  0  0  0  0  0  0
    9.3755    0.7023  -13.8485 H   0  0  0  0  0  0  0  0  0  0  0  0
   10.5428    2.5338  -14.0103 H   0  0  0  0  0  0  0  0  0  0  0  0
    9.6826    3.7108  -14.9941 H   0  0  0  0  0  0  0  0  0  0  0  0
   10.7053    5.7771   -6.7612 H   0  0  0  0  0  0  0  0  0  0  0  0
   11.2908    6.1762   -4.4022 H   0  0  0  0  0  0  0  0  0  0  0  0
   11.7460   10.5143   -3.3540 H   0  0  0  0  0  0  0  0  0  0  0  0
   12.4380    9.9629   -1.8465 H   0  0  0  0  0  0  0  0  0  0  0  0
   11.9294   10.3694   -5.2944 H   0  0  0  0  0  0  0  0  0  0  0  0
   11.2925    9.9597   -7.6213 H   0  0  0  0  0  0  0  0  0  0  0  0
  2  1  1  0
  3  2  1  0
  4  3  1  0
  5  4  1  0
  6  5  1  0
  7  6  1  0
  8  7  1  0
  9  8  1  0
 10  9  1  0
 11 10  1  0
 12 11  1  0
 13 12  1  0
 14 13  1  0
 15 14  2  0
 16 15  1  0
 17 16  1  0
 18 17  1  0
 19 17  1  0
 20 17  1  0
 21 16  2  0
 22 13  2  0
 22 21  1  0
 23  8  1  0
 23 12  1  0
 24  3  2  0
 25 24  1  0
 26  2  1  0
 26 25  2  0
 27 26  1  0
 28 27  1  0
 29 28  2  0
 30 29  1  0
 31 30  1  0
 32 31  1  0
 33 31  2  0
 34 30  2  0
 35 27  2  0
 35 34  1  0
 36  1  1  0
 37  1  1  0
 38  1  1  0
 39  5  1  0
 40  5  1  0
 41  6  1  0
 42  6  1  0
 43  7  1  0
 44  7  1  0
 45  9  1  0
 46  9  1  0
 47 10  1  0
 48 10  1  0
 12 49  1  6
 50 14  1  0
 51 15  1  0
 52 21  1  0
 53 22  1  0
 54 23  1  0
 55 23  1  0
 56 28  1  0
 57 29  1  0
 58 32  1  0
 59 32  1  0
 60 34  1  0
 61 35  1  0
M  END
>  <b_m_subgroup_collapsed>  (789) 
0

>  <r_i_docking_score>  (789) 
-7.3377480267259996

>  <s_m_subgroup_title>  (789) 
glide-dock_SP_D22_pv

>  <s_m_subgroupid>  (789) 
glide-dock_SP_D22_pv

>  <Molecule ChEMBL ID>  (789) 
CHEMBL5855629

>  <Standard Type>  (789) 
Ki

>  <Standard Value>  (789) 
13804.0

>  <label>  (789) 
0

$$$$
CHEMBL405345
     RDKit          3D

 47 50  0  0  1  0  0  0  0  0999 V2000
    5.2860    3.4140  -12.4773 C   0  0  0  0  0  0  0  0  0  0  0  0
    5.9055    4.4227  -13.4468 C   0  0  0  0  0  0  0  0  0  0  0  0
    6.9608    5.3131  -12.7651 C   0  0  0  0  0  0  0  0  0  0  0  0
    8.1236    4.5723  -12.1938 N   0  0  1  0  0  0  0  0  0  0  0  0
    8.7487    3.5705  -13.0854 C   0  0  0  0  0  0  0  0  0  0  0  0
    9.4201    4.2646  -14.2598 C   0  0  0  0  0  0  0  0  0  0  0  0
   10.4179    5.3356  -13.8592 C   0  0  0  0  0  0  0  0  0  0  0  0
   11.4445    5.7880  -14.6976 C   0  0  0  0  0  0  0  0  0  0  0  0
   12.2872    6.8323  -14.2711 C   0  0  0  0  0  0  0  0  0  0  0  0
   13.2860    7.3785  -15.0454 O   0  0  0  0  0  0  0  0  0  0  0  0
   13.5084    6.8408  -16.3401 C   0  0  0  0  0  0  0  0  0  0  0  0
   12.1085    7.3723  -12.9823 C   0  0  0  0  0  0  0  0  0  0  0  0
   11.0981    6.9722  -12.0723 C   0  0  0  0  0  0  0  0  0  0  0  0
   10.2578    5.9399  -12.5807 C   0  0  0  0  0  0  0  0  0  0  0  0
    9.1809    5.4328  -11.5995 C   0  0  1  0  0  0  0  0  0  0  0  0
    8.6058    6.5721  -10.7480 C   0  0  0  0  0  0  0  0  0  0  0  0
    9.6942    7.3386  -10.0408 C   0  0  0  0  0  0  0  0  0  0  0  0
    9.4540    7.8269   -8.7399 C   0  0  0  0  0  0  0  0  0  0  0  0
   10.4783    8.4598   -8.0231 C   0  0  0  0  0  0  0  0  0  0  0  0
   11.7486    8.5723   -8.6055 C   0  0  0  0  0  0  0  0  0  0  0  0
   11.9840    8.0928   -9.9092 C   0  0  0  0  0  0  0  0  0  0  0  0
   13.2615    8.1723  -10.3629 O   0  0  0  0  0  0  0  0  0  0  0  0
   10.9456    7.4988  -10.6800 C   0  0  0  0  0  0  0  0  0  0  0  0
    4.4729    2.8649  -12.9514 H   0  0  0  0  0  0  0  0  0  0  0  0
    4.8865    3.9358  -11.6089 H   0  0  0  0  0  0  0  0  0  0  0  0
    6.0112    2.6832  -12.1222 H   0  0  0  0  0  0  0  0  0  0  0  0
    6.3079    3.9120  -14.3202 H   0  0  0  0  0  0  0  0  0  0  0  0
    5.1102    5.0618  -13.8320 H   0  0  0  0  0  0  0  0  0  0  0  0
    7.3289    6.0755  -13.4469 H   0  0  0  0  0  0  0  0  0  0  0  0
    6.4461    5.8504  -11.9673 H   0  0  0  0  0  0  0  0  0  0  0  0
    9.4974    3.0073  -12.5247 H   0  0  0  0  0  0  0  0  0  0  0  0
    8.0342    2.8327  -13.4469 H   0  0  0  0  0  0  0  0  0  0  0  0
    9.9383    3.5192  -14.8643 H   0  0  0  0  0  0  0  0  0  0  0  0
    8.6790    4.7202  -14.9164 H   0  0  0  0  0  0  0  0  0  0  0  0
   11.5469    5.3408  -15.6745 H   0  0  0  0  0  0  0  0  0  0  0  0
   14.3353    7.3721  -16.8111 H   0  0  0  0  0  0  0  0  0  0  0  0
   12.6321    6.9629  -16.9782 H   0  0  0  0  0  0  0  0  0  0  0  0
   13.7797    5.7853  -16.2918 H   0  0  0  0  0  0  0  0  0  0  0  0
   12.7889    8.1622  -12.7074 H   0  0  0  0  0  0  0  0  0  0  0  0
    9.7185    4.7759  -10.9129 H   0  0  0  0  0  0  0  0  0  0  0  0
    8.0860    7.2849  -11.3920 H   0  0  0  0  0  0  0  0  0  0  0  0
    7.8984    6.1723  -10.0193 H   0  0  0  0  0  0  0  0  0  0  0  0
    8.4860    7.6979   -8.2788 H   0  0  0  0  0  0  0  0  0  0  0  0
   10.2986    8.8235   -7.0221 H   0  0  0  0  0  0  0  0  0  0  0  0
   12.5564    9.0093   -8.0370 H   0  0  0  0  0  0  0  0  0  0  0  0
   13.6326    9.0470  -10.2303 H   0  0  0  0  0  0  0  0  0  0  0  0
    7.7320    4.0553  -11.4185 H   0  0  0  0  0  0  0  0  0  0  0  0
  2  1  1  0
  3  2  1  0
  4  3  1  0
  5  4  1  0
  6  5  1  0
  7  6  1  0
  8  7  1  0
  9  8  2  0
 10  9  1  0
 11 10  1  0
 12  9  1  0
 13 12  2  0
 14  7  2  0
 14 13  1  0
 15  4  1  0
 15 14  1  0
 16 15  1  0
 17 16  1  0
 18 17  2  0
 19 18  1  0
 20 19  2  0
 21 20  1  0
 22 21  1  0
 23 13  1  0
 23 17  1  0
 23 21  2  0
 24  1  1  0
 25  1  1  0
 26  1  1  0
 27  2  1  0
 28  2  1  0
 29  3  1  0
 30  3  1  0
 31  5  1  0
 32  5  1  0
 33  6  1  0
 34  6  1  0
 35  8  1  0
 36 11  1  0
 37 11  1  0
 38 11  1  0
 39 12  1  0
 15 40  1  1
 41 16  1  0
 42 16  1  0
 43 18  1  0
 44 19  1  0
 45 20  1  0
 46 22  1  0
  4 47  1  1
M  CHG  1   4   1
M  END
>  <b_m_subgroup_collapsed>  (790) 
0

>  <r_i_docking_score>  (790) 
-7.3352171497049499

>  <s_m_subgroup_title>  (790) 
glide-dock_SP_D22_pv

>  <s_m_subgroupid>  (790) 
glide-dock_SP_D22_pv

>  <Molecule ChEMBL ID>  (790) 
CHEMBL405345

>  <Standard Type>  (790) 
Ki

>  <Standard Value>  (790) 
44.0

>  <label>  (790) 
1

$$$$
CHEMBL331172
     RDKit          3D

 50 53  0  0  1  0  0  0  0  0999 V2000
    6.5874    4.5515  -13.4463 O   0  0  0  0  0  0  0  0  0  0  0  0
    7.8028    4.3601  -13.4424 C   0  0  0  0  0  0  0  0  0  0  0  0
    8.3827    3.1336  -14.1262 C   0  0  0  0  0  0  0  0  0  0  0  0
    9.3820    3.5724  -15.1903 C   0  0  0  0  0  0  0  0  0  0  0  0
   10.3891    4.5808  -14.6756 C   0  0  0  0  0  0  0  0  0  0  0  0
   11.5733    4.7327  -15.4269 C   0  0  0  0  0  0  0  0  0  0  0  0
   12.5541    5.6530  -15.0341 C   0  0  0  0  0  0  0  0  0  0  0  0
   12.3662    6.3913  -13.8581 C   0  0  0  0  0  0  0  0  0  0  0  0
   11.2042    6.2163  -13.0877 C   0  0  0  0  0  0  0  0  0  0  0  0
   10.1528    5.3589  -13.4995 C   0  0  0  0  0  0  0  0  0  0  0  0
    8.8089    5.2842  -12.7025 C   0  0  2  0  0  0  0  0  0  0  0  0
    8.9819    4.6598  -11.2980 C   0  0  0  0  0  0  0  0  0  0  0  0
    9.5354    5.5849  -10.2019 C   0  0  0  0  0  0  0  0  0  0  0  0
    8.8861    6.9172  -10.1049 N   0  0  1  0  0  0  0  0  0  0  0  0
    9.5553    7.7810   -9.0885 C   0  0  0  0  0  0  0  0  0  0  0  0
    9.5486    7.2130   -7.6387 C   0  0  0  0  0  0  0  0  0  0  0  0
   10.4446    7.9432   -6.6390 C   0  0  0  0  0  0  0  0  0  0  0  0
   10.8787    9.2660   -6.8605 C   0  0  0  0  0  0  0  0  0  0  0  0
   11.6862    9.9289   -5.9165 C   0  0  0  0  0  0  0  0  0  0  0  0
   12.0857    9.2648   -4.7416 C   0  0  0  0  0  0  0  0  0  0  0  0
   11.6860    7.9333   -4.5229 C   0  0  0  0  0  0  0  0  0  0  0  0
   10.8694    7.2774   -5.4666 C   0  0  0  0  0  0  0  0  0  0  0  0
    8.7633    7.5984  -11.4285 C   0  0  0  0  0  0  0  0  0  0  0  0
    8.1336    6.6788  -12.4972 C   0  0  0  0  0  0  0  0  0  0  0  0
    8.8884    2.5234  -13.3799 H   0  0  0  0  0  0  0  0  0  0  0  0
    7.5888    2.5254  -14.5610 H   0  0  0  0  0  0  0  0  0  0  0  0
    9.9146    2.6923  -15.5537 H   0  0  0  0  0  0  0  0  0  0  0  0
    8.8861    4.0050  -16.0571 H   0  0  0  0  0  0  0  0  0  0  0  0
   11.7286    4.1456  -16.3208 H   0  0  0  0  0  0  0  0  0  0  0  0
   13.4560    5.7753  -15.6162 H   0  0  0  0  0  0  0  0  0  0  0  0
   13.1312    7.0803  -13.5318 H   0  0  0  0  0  0  0  0  0  0  0  0
   11.1676    6.7706  -12.1725 H   0  0  0  0  0  0  0  0  0  0  0  0
    8.0132    4.3097  -10.9325 H   0  0  0  0  0  0  0  0  0  0  0  0
    9.6122    3.7722  -11.3654 H   0  0  0  0  0  0  0  0  0  0  0  0
   10.5919    5.7722  -10.3220 H   0  0  0  0  0  0  0  0  0  0  0  0
    9.4253    5.0346   -9.2702 H   0  0  0  0  0  0  0  0  0  0  0  0
    9.0602    8.7535   -9.0902 H   0  0  0  0  0  0  0  0  0  0  0  0
   10.5843    7.9511   -9.4101 H   0  0  0  0  0  0  0  0  0  0  0  0
    9.8896    6.1814   -7.6104 H   0  0  0  0  0  0  0  0  0  0  0  0
    8.5278    7.2088   -7.2519 H   0  0  0  0  0  0  0  0  0  0  0  0
   10.5967    9.7723   -7.7647 H   0  0  0  0  0  0  0  0  0  0  0  0
   12.0062   10.9448   -6.0987 H   0  0  0  0  0  0  0  0  0  0  0  0
   12.7071    9.7711   -4.0172 H   0  0  0  0  0  0  0  0  0  0  0  0
   11.9962    7.4164   -3.6269 H   0  0  0  0  0  0  0  0  0  0  0  0
   10.5594    6.2591   -5.2793 H   0  0  0  0  0  0  0  0  0  0  0  0
    8.1146    8.4708  -11.3287 H   0  0  0  0  0  0  0  0  0  0  0  0
    9.7013    8.0377  -11.7500 H   0  0  0  0  0  0  0  0  0  0  0  0
    7.1014    6.5474  -12.1677 H   0  0  0  0  0  0  0  0  0  0  0  0
    8.0505    7.2010  -13.4468 H   0  0  0  0  0  0  0  0  0  0  0  0
    7.9150    6.8075   -9.8150 H   0  0  0  0  0  0  0  0  0  0  0  0
  2  1  2  0
  3  2  1  0
  4  3  1  0
  5  4  1  0
  6  5  2  0
  7  6  1  0
  8  7  2  0
  9  8  1  0
 10  5  1  0
 10  9  2  0
 11  2  1  0
 11 10  1  0
 11 12  1  1
 13 12  1  0
 14 13  1  0
 15 14  1  0
 16 15  1  0
 17 16  1  0
 18 17  2  0
 19 18  1  0
 20 19  2  0
 21 20  1  0
 22 17  1  0
 22 21  2  0
 23 14  1  0
 24 11  1  0
 24 23  1  0
 25  3  1  0
 26  3  1  0
 27  4  1  0
 28  4  1  0
 29  6  1  0
 30  7  1  0
 31  8  1  0
 32  9  1  0
 33 12  1  0
 34 12  1  0
 35 13  1  0
 36 13  1  0
 37 15  1  0
 38 15  1  0
 39 16  1  0
 40 16  1  0
 41 18  1  0
 42 19  1  0
 43 20  1  0
 44 21  1  0
 45 22  1  0
 46 23  1  0
 47 23  1  0
 48 24  1  0
 49 24  1  0
 14 50  1  1
M  CHG  1  14   1
M  END
>  <b_m_subgroup_collapsed>  (791) 
0

>  <r_i_docking_score>  (791) 
-7.33339543234991

>  <s_m_subgroup_title>  (791) 
glide-dock_SP_D22_pv

>  <s_m_subgroupid>  (791) 
glide-dock_SP_D22_pv

>  <Molecule ChEMBL ID>  (791) 
CHEMBL331172

>  <Standard Type>  (791) 
Ki

>  <Standard Value>  (791) 
10000.0

>  <label>  (791) 
0

$$$$
CHEMBL104201
     RDKit          3D

 45 47  0  0  1  0  0  0  0  0999 V2000
    7.1754    1.9849  -14.2470 N   0  0  0  0  0  0  0  0  0  0  0  0
    8.2507    1.8320  -14.6513 C   0  0  0  0  0  0  0  0  0  0  0  0
    9.5518    1.6346  -15.1969 C   0  0  0  0  0  0  0  0  0  0  0  0
    9.8347    0.4866  -15.9914 C   0  0  0  0  0  0  0  0  0  0  0  0
   10.0860   -0.4403  -16.6351 N   0  0  0  0  0  0  0  0  0  0  0  0
   10.5501    2.5194  -15.0042 C   0  0  0  0  0  0  0  0  0  0  0  0
   10.5415    3.7487  -14.1934 C   0  0  0  0  0  0  0  0  0  0  0  0
   11.4488    4.8238  -14.3796 C   0  0  0  0  0  0  0  0  0  0  0  0
   11.1376    5.7723  -13.4468 C   0  0  0  0  0  0  0  0  0  0  0  0
   10.0858    5.3047  -12.6625 N   0  0  0  0  0  0  0  0  0  0  0  0
    9.4580    5.9834  -11.5217 C   0  0  1  0  0  0  0  0  0  0  0  0
    9.1849    4.9807  -10.3795 C   0  0  0  0  0  0  0  0  0  0  0  0
    8.6534    5.6543   -9.1124 C   0  0  0  0  0  0  0  0  0  0  0  0
    9.5465    6.7313   -8.6255 N   0  0  2  0  0  0  0  0  0  0  0  0
    9.0575    7.2984   -7.3431 C   0  0  0  0  0  0  0  0  0  0  0  0
   10.1664    7.8896   -6.4904 C   0  0  0  0  0  0  0  0  0  0  0  0
   10.5794    9.2171   -6.6924 C   0  0  0  0  0  0  0  0  0  0  0  0
   11.5374    9.8106   -5.8472 C   0  0  0  0  0  0  0  0  0  0  0  0
   12.0832    9.0709   -4.7821 C   0  0  0  0  0  0  0  0  0  0  0  0
   11.6863    7.7357   -4.5823 C   0  0  0  0  0  0  0  0  0  0  0  0
   10.7469    7.1441   -5.4468 C   0  0  0  0  0  0  0  0  0  0  0  0
    9.7475    7.7605   -9.6828 C   0  0  0  0  0  0  0  0  0  0  0  0
   10.3146    7.1518  -10.9758 C   0  0  0  0  0  0  0  0  0  0  0  0
    9.6837    4.0821  -13.1836 C   0  0  0  0  0  0  0  0  0  0  0  0
   11.4992    2.3051  -15.4767 H   0  0  0  0  0  0  0  0  0  0  0  0
   12.2434    4.8971  -15.1078 H   0  0  0  0  0  0  0  0  0  0  0  0
   11.6027    6.7287  -13.2620 H   0  0  0  0  0  0  0  0  0  0  0  0
    8.5045    6.3857  -11.8661 H   0  0  0  0  0  0  0  0  0  0  0  0
    8.4502    4.2421  -10.6969 H   0  0  0  0  0  0  0  0  0  0  0  0
   10.0859    4.4207  -10.1364 H   0  0  0  0  0  0  0  0  0  0  0  0
    8.5039    4.9021   -8.3379 H   0  0  0  0  0  0  0  0  0  0  0  0
    7.6860    6.0921   -9.3256 H   0  0  0  0  0  0  0  0  0  0  0  0
    8.2910    8.0534   -7.5269 H   0  0  0  0  0  0  0  0  0  0  0  0
    8.5646    6.5251   -6.7521 H   0  0  0  0  0  0  0  0  0  0  0  0
   10.1298    9.7723   -7.4942 H   0  0  0  0  0  0  0  0  0  0  0  0
   11.8413   10.8361   -6.0065 H   0  0  0  0  0  0  0  0  0  0  0  0
   12.8088    9.5254   -4.1210 H   0  0  0  0  0  0  0  0  0  0  0  0
   12.1041    7.1639   -3.7656 H   0  0  0  0  0  0  0  0  0  0  0  0
   10.4288    6.1338   -5.2590 H   0  0  0  0  0  0  0  0  0  0  0  0
   10.4398    8.5255   -9.3357 H   0  0  0  0  0  0  0  0  0  0  0  0
    8.8041    8.2635   -9.8961 H   0  0  0  0  0  0  0  0  0  0  0  0
   11.3301    6.8145  -10.7782 H   0  0  0  0  0  0  0  0  0  0  0  0
   10.3908    7.9363  -11.7294 H   0  0  0  0  0  0  0  0  0  0  0  0
    8.8540    3.5456  -12.7520 H   0  0  0  0  0  0  0  0  0  0  0  0
   10.4402    6.3052   -8.4328 H   0  0  0  0  0  0  0  0  0  0  0  0
  2  1  3  0
  3  2  1  0
  4  3  1  0
  5  4  3  0
  6  3  2  0
  7  6  1  0
  8  7  1  0
  9  8  2  0
 10  9  1  0
 11 10  1  0
 12 11  1  0
 13 12  1  0
 14 13  1  0
 15 14  1  0
 16 15  1  0
 17 16  2  0
 18 17  1  0
 19 18  2  0
 20 19  1  0
 21 16  1  0
 21 20  2  0
 22 14  1  0
 23 11  1  0
 23 22  1  0
 24  7  2  0
 24 10  1  0
 25  6  1  0
 26  8  1  0
 27  9  1  0
 11 28  1  6
 29 12  1  0
 30 12  1  0
 31 13  1  0
 32 13  1  0
 33 15  1  0
 34 15  1  0
 35 17  1  0
 36 18  1  0
 37 19  1  0
 38 20  1  0
 39 21  1  0
 40 22  1  0
 41 22  1  0
 42 23  1  0
 43 23  1  0
 44 24  1  0
 14 45  1  1
M  CHG  1  14   1
M  END
>  <b_m_subgroup_collapsed>  (792) 
0

>  <r_i_docking_score>  (792) 
-7.3304233548527096

>  <s_m_subgroup_title>  (792) 
glide-dock_SP_D22_pv

>  <s_m_subgroupid>  (792) 
glide-dock_SP_D22_pv

>  <Molecule ChEMBL ID>  (792) 
CHEMBL104201

>  <Standard Type>  (792) 
Ki

>  <Standard Value>  (792) 
13000.0

>  <label>  (792) 
0

$$$$
CHEMBL6026273
     RDKit          3D

 65 68  0  0  1  0  0  0  0  0999 V2000
   11.5102    6.5467   -2.2502 C   0  0  0  0  0  0  0  0  0  0  0  0
   12.2242    6.7098   -3.5948 C   0  0  0  0  0  0  0  0  0  0  0  0
   11.6907    7.8396   -4.4526 C   0  0  0  0  0  0  0  0  0  0  0  0
   11.6841    9.1286   -3.8983 C   0  0  0  0  0  0  0  0  0  0  0  0
   11.2860   10.2111   -4.6867 C   0  0  0  0  0  0  0  0  0  0  0  0
   10.8828   10.0417   -6.0124 C   0  0  0  0  0  0  0  0  0  0  0  0
   10.7910    8.7520   -6.5504 C   0  0  0  0  0  0  0  0  0  0  0  0
   10.1293    8.5424   -7.7687 N   0  0  0  0  0  0  0  0  0  0  0  0
    8.8642    7.8260   -7.7461 C   0  0  0  0  0  0  0  0  0  0  0  0
    8.8764    6.6531   -8.7430 C   0  0  0  0  0  0  0  0  0  0  0  0
    9.3245    7.0851  -10.0926 N   0  0  0  0  0  0  0  0  0  0  0  0
    9.3089    5.9323  -11.0290 C   0  0  0  0  0  0  0  0  0  0  0  0
    9.4757    6.3085  -12.5157 C   0  0  0  0  0  0  0  0  0  0  0  0
    9.9528    5.1284  -13.3749 C   0  0  0  0  0  0  0  0  0  0  0  0
    8.8601    4.1026  -13.7008 C   0  0  0  0  0  0  0  0  0  0  0  0
    9.4476    2.8582  -14.3816 C   0  0  0  0  0  0  0  0  0  0  0  0
    8.3989    2.0671  -15.0083 N   0  0  0  0  0  0  0  0  0  0  0  0
    8.1692    2.0017  -16.3267 C   0  0  0  0  0  0  0  0  0  0  0  0
    8.8450    2.6090  -17.1568 O   0  0  0  0  0  0  0  0  0  0  0  0
    6.9842    1.1844  -16.7224 C   0  0  0  0  0  0  0  0  0  0  0  0
    6.3787    1.3581  -17.9676 N   0  0  0  0  0  0  0  0  0  0  0  0
    5.4602    0.4338  -17.9863 C   0  0  0  0  0  0  0  0  0  0  0  0
    4.2104   -0.2102  -19.0490 S   0  0  0  0  0  0  0  0  0  0  0  0
    3.6864   -1.4308  -17.9119 C   0  0  0  0  0  0  0  0  0  0  0  0
    4.4561   -1.3186  -16.7880 C   0  0  0  0  0  0  0  0  0  0  0  0
    5.3947   -0.3301  -16.8361 N   0  0  0  0  0  0  0  0  0  0  0  0
    6.3892    0.1663  -16.0007 C   0  0  0  0  0  0  0  0  0  0  0  0
    6.6598   -0.4097  -14.6438 C   0  0  0  0  0  0  0  0  0  0  0  0
   10.6509    7.7821  -10.0350 C   0  0  0  0  0  0  0  0  0  0  0  0
   10.6665    8.9645   -9.0473 C   0  0  0  0  0  0  0  0  0  0  0  0
   11.2853    7.6632   -5.8020 C   0  0  0  0  0  0  0  0  0  0  0  0
   11.5116    6.1723   -6.6273 Cl  0  0  0  0  0  0  0  0  0  0  0  0
   12.0046    5.7747   -1.6621 H   0  0  0  0  0  0  0  0  0  0  0  0
   11.5065    7.4667   -1.6680 H   0  0  0  0  0  0  0  0  0  0  0  0
   10.4807    6.2218   -2.3867 H   0  0  0  0  0  0  0  0  0  0  0  0
   12.1593    5.7715   -4.1327 H   0  0  0  0  0  0  0  0  0  0  0  0
   13.2801    6.9166   -3.4189 H   0  0  0  0  0  0  0  0  0  0  0  0
   12.0076    9.3018   -2.8828 H   0  0  0  0  0  0  0  0  0  0  0  0
   11.2819   11.1951   -4.2576 H   0  0  0  0  0  0  0  0  0  0  0  0
   10.5471   10.8962   -6.5760 H   0  0  0  0  0  0  0  0  0  0  0  0
    8.0861    8.5395   -8.0064 H   0  0  0  0  0  0  0  0  0  0  0  0
    8.6288    7.4637   -6.7436 H   0  0  0  0  0  0  0  0  0  0  0  0
    7.8909    6.1917   -8.8023 H   0  0  0  0  0  0  0  0  0  0  0  0
    9.5384    5.8642   -8.3899 H   0  0  0  0  0  0  0  0  0  0  0  0
    8.3620    5.3997  -10.9229 H   0  0  0  0  0  0  0  0  0  0  0  0
   10.0839    5.2299  -10.7234 H   0  0  0  0  0  0  0  0  0  0  0  0
   10.2171    7.0938  -12.6445 H   0  0  0  0  0  0  0  0  0  0  0  0
    8.5407    6.7182  -12.9049 H   0  0  0  0  0  0  0  0  0  0  0  0
   10.7971    4.6379  -12.8892 H   0  0  0  0  0  0  0  0  0  0  0  0
   10.3423    5.5197  -14.3163 H   0  0  0  0  0  0  0  0  0  0  0  0
    8.1188    4.5738  -14.3477 H   0  0  0  0  0  0  0  0  0  0  0  0
    8.3359    3.7974  -12.7948 H   0  0  0  0  0  0  0  0  0  0  0  0
    9.9634    2.2391  -13.6458 H   0  0  0  0  0  0  0  0  0  0  0  0
   10.2057    3.1478  -15.1141 H   0  0  0  0  0  0  0  0  0  0  0  0
    7.7881    1.5347  -14.4048 H   0  0  0  0  0  0  0  0  0  0  0  0
    2.8860   -2.1219  -18.1391 H   0  0  0  0  0  0  0  0  0  0  0  0
    4.3741   -1.9502  -15.9134 H   0  0  0  0  0  0  0  0  0  0  0  0
    6.3598    0.2833  -13.8587 H   0  0  0  0  0  0  0  0  0  0  0  0
    6.1206   -1.3438  -14.4827 H   0  0  0  0  0  0  0  0  0  0  0  0
    7.7218   -0.6276  -14.5237 H   0  0  0  0  0  0  0  0  0  0  0  0
   11.4118    7.0578   -9.7413 H   0  0  0  0  0  0  0  0  0  0  0  0
   10.9440    8.1682  -11.0084 H   0  0  0  0  0  0  0  0  0  0  0  0
   10.0518    9.7731   -9.4407 H   0  0  0  0  0  0  0  0  0  0  0  0
   11.6801    9.3493   -8.9312 H   0  0  0  0  0  0  0  0  0  0  0  0
    8.6179    7.7436  -10.4044 H   0  0  0  0  0  0  0  0  0  0  0  0
  2  1  1  0
  3  2  1  0
  4  3  2  0
  5  4  1  0
  6  5  2  0
  7  6  1  0
  8  7  1  0
  9  8  1  0
 10  9  1  0
 11 10  1  0
 12 11  1  0
 13 12  1  0
 14 13  1  0
 15 14  1  0
 16 15  1  0
 17 16  1  0
 18 17  1  0
 19 18  2  0
 20 18  1  0
 21 20  1  0
 22 21  2  0
 23 22  1  0
 24 23  1  0
 25 24  2  0
 26 22  1  0
 26 25  1  0
 27 20  2  0
 27 26  1  0
 28 27  1  0
 29 11  1  0
 30  8  1  0
 30 29  1  0
 31  3  1  0
 31  7  2  0
 32 31  1  0
 33  1  1  0
 34  1  1  0
 35  1  1  0
 36  2  1  0
 37  2  1  0
 38  4  1  0
 39  5  1  0
 40  6  1  0
 41  9  1  0
 42  9  1  0
 43 10  1  0
 44 10  1  0
 45 12  1  0
 46 12  1  0
 47 13  1  0
 48 13  1  0
 49 14  1  0
 50 14  1  0
 51 15  1  0
 52 15  1  0
 53 16  1  0
 54 16  1  0
 55 17  1  0
 56 24  1  0
 57 25  1  0
 58 28  1  0
 59 28  1  0
 60 28  1  0
 61 29  1  0
 62 29  1  0
 63 30  1  0
 64 30  1  0
 65 11  1  0
M  CHG  1  11   1
M  END
>  <b_m_subgroup_collapsed>  (793) 
0

>  <r_i_docking_score>  (793) 
-7.33008067178167

>  <s_m_subgroup_title>  (793) 
glide-dock_SP_D22_pv

>  <s_m_subgroupid>  (793) 
glide-dock_SP_D22_pv

>  <Molecule ChEMBL ID>  (793) 
CHEMBL6026273

>  <Standard Type>  (793) 
Ki

>  <Standard Value>  (793) 
4.65

>  <label>  (793) 
1

$$$$
CHEMBL5938222
     RDKit          3D

 51 55  0  0  1  0  0  0  0  0999 V2000
   10.2131    4.2625  -13.1656 O   0  0  0  0  0  0  0  0  0  0  0  0
    9.0219    3.9754  -13.2876 C   0  0  0  0  0  0  0  0  0  0  0  0
    8.6088    2.8868  -14.2397 C   0  0  0  0  0  0  0  0  0  0  0  0
    9.5495    2.2785  -15.1010 C   0  0  0  0  0  0  0  0  0  0  0  0
    9.1369    1.2105  -15.9190 C   0  0  0  0  0  0  0  0  0  0  0  0
    7.7973    0.7843  -15.8424 C   0  0  0  0  0  0  0  0  0  0  0  0
    6.8885    1.3603  -15.0284 N   0  0  0  0  0  0  0  0  0  0  0  0
    7.2887    2.3871  -14.2473 C   0  0  0  0  0  0  0  0  0  0  0  0
    6.2351    2.9740  -13.3275 C   0  0  0  0  0  0  0  0  0  0  0  0
    6.6023    4.3810  -12.8266 C   0  0  0  0  0  0  0  0  0  0  0  0
    8.0401    4.5988  -12.5922 N   0  0  0  0  0  0  0  0  0  0  0  0
    8.3522    5.6845  -11.6495 C   0  0  0  0  0  0  0  0  0  0  0  0
    8.8664    5.1527  -10.3009 C   0  0  0  0  0  0  0  0  0  0  0  0
    9.1124    6.2585   -9.3772 N   0  0  0  0  0  0  0  0  0  0  0  0
    9.0330    5.7803   -7.9937 C   0  0  0  0  0  0  0  0  0  0  0  0
    9.2942    6.9302   -6.9997 C   0  0  0  0  0  0  0  0  0  0  0  0
   10.5828    7.5595   -7.2655 N   0  0  0  0  0  0  0  0  0  0  0  0
   10.9484    8.4893   -6.2845 C   0  0  0  0  0  0  0  0  0  0  0  0
   10.8871    9.8105   -6.4272 N   0  0  0  0  0  0  0  0  0  0  0  0
   11.2879   10.3754   -5.1864 O   0  0  0  0  0  0  0  0  0  0  0  0
   11.6356    9.3672   -4.2993 C   0  0  0  0  0  0  0  0  0  0  0  0
   12.0846    9.4026   -2.9720 C   0  0  0  0  0  0  0  0  0  0  0  0
   12.3275    8.1762   -2.3245 C   0  0  0  0  0  0  0  0  0  0  0  0
   12.1288    6.9552   -3.0151 C   0  0  0  0  0  0  0  0  0  0  0  0
   11.6855    6.9472   -4.3569 C   0  0  0  0  0  0  0  0  0  0  0  0
   11.4218    8.1773   -4.9941 C   0  0  0  0  0  0  0  0  0  0  0  0
   10.6430    8.0479   -8.6409 C   0  0  0  0  0  0  0  0  0  0  0  0
   10.4196    6.8805   -9.6157 C   0  0  0  0  0  0  0  0  0  0  0  0
   10.5767    2.6104  -15.1291 H   0  0  0  0  0  0  0  0  0  0  0  0
    9.8323    0.7216  -16.5857 H   0  0  0  0  0  0  0  0  0  0  0  0
    7.4473   -0.0354  -16.4532 H   0  0  0  0  0  0  0  0  0  0  0  0
    5.2778    3.0144  -13.8454 H   0  0  0  0  0  0  0  0  0  0  0  0
    6.0852    2.3005  -12.4853 H   0  0  0  0  0  0  0  0  0  0  0  0
    6.0145    4.6096  -11.9361 H   0  0  0  0  0  0  0  0  0  0  0  0
    6.2950    5.1063  -13.5822 H   0  0  0  0  0  0  0  0  0  0  0  0
    9.0699    6.3658  -12.1059 H   0  0  0  0  0  0  0  0  0  0  0  0
    7.4638    6.2837  -11.4614 H   0  0  0  0  0  0  0  0  0  0  0  0
    8.0880    4.5068   -9.8884 H   0  0  0  0  0  0  0  0  0  0  0  0
    9.7608    4.5402  -10.4190 H   0  0  0  0  0  0  0  0  0  0  0  0
    8.0367    5.3761   -7.8147 H   0  0  0  0  0  0  0  0  0  0  0  0
    9.7428    4.9717   -7.8368 H   0  0  0  0  0  0  0  0  0  0  0  0
    8.4989    7.6779   -7.0776 H   0  0  0  0  0  0  0  0  0  0  0  0
    9.2672    6.5478   -5.9790 H   0  0  0  0  0  0  0  0  0  0  0  0
   12.2148   10.3438   -2.4621 H   0  0  0  0  0  0  0  0  0  0  0  0
   12.6570    8.1705   -1.2948 H   0  0  0  0  0  0  0  0  0  0  0  0
   12.3094    6.0195   -2.5103 H   0  0  0  0  0  0  0  0  0  0  0  0
   11.5343    6.0151   -4.8806 H   0  0  0  0  0  0  0  0  0  0  0  0
    9.8899    8.8223   -8.8030 H   0  0  0  0  0  0  0  0  0  0  0  0
   11.6188    8.5012   -8.8279 H   0  0  0  0  0  0  0  0  0  0  0  0
   11.2229    6.1583   -9.4780 H   0  0  0  0  0  0  0  0  0  0  0  0
   10.4850    7.2493  -10.6386 H   0  0  0  0  0  0  0  0  0  0  0  0
  2  1  2  0
  3  2  1  0
  4  3  1  0
  5  4  2  0
  6  5  1  0
  7  6  2  0
  8  3  2  0
  8  7  1  0
  9  8  1  0
 10  9  1  0
 11  2  1  0
 11 10  1  0
 12 11  1  0
 13 12  1  0
 14 13  1  0
 15 14  1  0
 16 15  1  0
 17 16  1  0
 18 17  1  0
 19 18  2  0
 20 19  1  0
 21 20  1  0
 22 21  2  0
 23 22  1  0
 24 23  2  0
 25 24  1  0
 26 18  1  0
 26 21  1  0
 26 25  2  0
 27 17  1  0
 28 14  1  0
 28 27  1  0
 29  4  1  0
 30  5  1  0
 31  6  1  0
 32  9  1  0
 33  9  1  0
 34 10  1  0
 35 10  1  0
 36 12  1  0
 37 12  1  0
 38 13  1  0
 39 13  1  0
 40 15  1  0
 41 15  1  0
 42 16  1  0
 43 16  1  0
 44 22  1  0
 45 23  1  0
 46 24  1  0
 47 25  1  0
 48 27  1  0
 49 27  1  0
 50 28  1  0
 51 28  1  0
M  END
>  <b_m_subgroup_collapsed>  (794) 
0

>  <r_i_docking_score>  (794) 
-7.3299878970614696

>  <s_m_subgroup_title>  (794) 
glide-dock_SP_D22_pv

>  <s_m_subgroupid>  (794) 
glide-dock_SP_D22_pv

>  <Molecule ChEMBL ID>  (794) 
CHEMBL5938222

>  <Standard Type>  (794) 
Ki

>  <Standard Value>  (794) 
10000.0

>  <label>  (794) 
0

$$$$
CHEMBL2030630
     RDKit          3D

 38 40  0  0  1  0  0  0  0  0999 V2000
   12.4860    7.4096   -2.5131 F   0  0  0  0  0  0  0  0  0  0  0  0
   11.9577    7.9483   -3.6365 C   0  0  0  0  0  0  0  0  0  0  0  0
   11.8672    9.3462   -3.7729 C   0  0  0  0  0  0  0  0  0  0  0  0
   11.2860    9.9003   -4.9294 C   0  0  0  0  0  0  0  0  0  0  0  0
   10.8030    9.0619   -5.9508 C   0  0  0  0  0  0  0  0  0  0  0  0
   10.8860    7.6558   -5.8208 C   0  0  0  0  0  0  0  0  0  0  0  0
   10.3404    6.7059   -6.8814 C   0  0  0  0  0  0  0  0  0  0  0  0
    9.8778    7.3641   -8.1932 C   0  0  0  0  0  0  0  0  0  0  0  0
    9.5166    6.3432   -9.2864 C   0  0  0  0  0  0  0  0  0  0  0  0
    8.8860    6.9907  -10.4657 N   0  0  1  0  0  0  0  0  0  0  0  0
    9.6221    8.0347  -11.1878 C   0  0  1  0  0  0  0  0  0  0  0  0
   10.7131    7.2492  -11.9455 C   0  0  0  0  0  0  0  0  0  0  0  0
    9.9871    5.9311  -12.2831 C   0  0  0  0  0  0  0  0  0  0  0  0
    8.6052    6.1543  -11.6391 C   0  0  2  0  0  0  0  0  0  0  0  0
    7.8373    7.1531  -12.5228 C   0  0  0  0  0  0  0  0  0  0  0  0
    8.5436    8.4890  -12.1865 C   0  0  0  0  0  0  0  0  0  0  0  0
   11.4688    7.1083   -4.6564 C   0  0  0  0  0  0  0  0  0  0  0  0
   12.2343    9.9907   -2.9869 H   0  0  0  0  0  0  0  0  0  0  0  0
   11.2104   10.9723   -5.0358 H   0  0  0  0  0  0  0  0  0  0  0  0
   10.3570    9.5213   -6.8194 H   0  0  0  0  0  0  0  0  0  0  0  0
   11.1102    5.9629   -7.0956 H   0  0  0  0  0  0  0  0  0  0  0  0
    9.4994    6.1723   -6.4391 H   0  0  0  0  0  0  0  0  0  0  0  0
    9.0163    8.0040   -7.9928 H   0  0  0  0  0  0  0  0  0  0  0  0
   10.6778    8.0046   -8.5648 H   0  0  0  0  0  0  0  0  0  0  0  0
   10.4054    5.7788   -9.5685 H   0  0  0  0  0  0  0  0  0  0  0  0
    8.8027    5.6200   -8.8890 H   0  0  0  0  0  0  0  0  0  0  0  0
    9.9999    8.8553  -10.5779 H   0  0  0  0  0  0  0  0  0  0  0  0
   11.5783    7.0651  -11.3078 H   0  0  0  0  0  0  0  0  0  0  0  0
   11.0626    7.7723  -12.8360 H   0  0  0  0  0  0  0  0  0  0  0  0
   10.4860    5.0684  -11.8469 H   0  0  0  0  0  0  0  0  0  0  0  0
    9.9220    5.7559  -13.3577 H   0  0  0  0  0  0  0  0  0  0  0  0
    8.0480    5.2399  -11.4297 H   0  0  0  0  0  0  0  0  0  0  0  0
    7.8891    6.8881  -13.5742 H   0  0  0  0  0  0  0  0  0  0  0  0
    6.7828    7.1904  -12.2469 H   0  0  0  0  0  0  0  0  0  0  0  0
    7.8426    9.1792  -11.7141 H   0  0  0  0  0  0  0  0  0  0  0  0
    8.9671    9.0008  -13.0469 H   0  0  0  0  0  0  0  0  0  0  0  0
   11.5292    6.0366   -4.5343 H   0  0  0  0  0  0  0  0  0  0  0  0
    7.9715    7.3723  -10.1886 H   0  0  0  0  0  0  0  0  0  0  0  0
  2  1  1  0
  3  2  1  0
  4  3  2  0
  5  4  1  0
  6  5  2  0
  7  6  1  0
  8  7  1  0
  9  8  1  0
 10  9  1  0
 11 10  1  0
 12 11  1  0
 13 12  1  0
 14 10  1  0
 14 13  1  0
 15 14  1  0
 16 11  1  0
 16 15  1  0
 17  2  2  0
 17  6  1  0
 18  3  1  0
 19  4  1  0
 20  5  1  0
 21  7  1  0
 22  7  1  0
 23  8  1  0
 24  8  1  0
 25  9  1  0
 26  9  1  0
 11 27  1  1
 28 12  1  0
 29 12  1  0
 30 13  1  0
 31 13  1  0
 14 32  1  1
 33 15  1  0
 34 15  1  0
 35 16  1  0
 36 16  1  0
 37 17  1  0
 10 38  1  1
M  CHG  1  10   1
M  END
>  <b_m_subgroup_collapsed>  (795) 
0

>  <r_i_docking_score>  (795) 
-7.3291735943984504

>  <s_m_subgroup_title>  (795) 
glide-dock_SP_D22_pv

>  <s_m_subgroupid>  (795) 
glide-dock_SP_D22_pv

>  <Molecule ChEMBL ID>  (795) 
CHEMBL2030630

>  <Standard Type>  (795) 
Ki

>  <Standard Value>  (795) 
10000.0

>  <label>  (795) 
0

$$$$
CHEMBL372222
     RDKit          3D

 58 62  0  0  1  0  0  0  0  0999 V2000
    4.4886   -2.0964  -17.0012 C   0  0  0  0  0  0  0  0  0  0  0  0
    5.3593   -1.0003  -16.4273 C   0  0  0  0  0  0  0  0  0  0  0  0
    6.2599   -0.3052  -17.2604 C   0  0  0  0  0  0  0  0  0  0  0  0
    7.0731    0.7150  -16.7287 C   0  0  0  0  0  0  0  0  0  0  0  0
    6.9728    1.0540  -15.3632 C   0  0  0  0  0  0  0  0  0  0  0  0
    7.7822    2.1421  -14.7986 C   0  0  0  0  0  0  0  0  0  0  0  0
    9.0231    2.5274  -15.1768 C   0  0  0  0  0  0  0  0  0  0  0  0
    9.3563    3.7003  -14.3695 C   0  0  0  0  0  0  0  0  0  0  0  0
   10.4166    4.4025  -14.3351 N   0  0  0  0  0  0  0  0  0  0  0  0
   10.4896    5.4955  -13.4465 C   0  0  0  0  0  0  0  0  0  0  0  0
   11.5095    6.1860  -13.4162 O   0  0  0  0  0  0  0  0  0  0  0  0
    9.4163    5.7882  -12.6200 N   0  0  0  0  0  0  0  0  0  0  0  0
    9.5486    6.9383  -11.6693 C   0  0  0  0  0  0  0  0  0  0  0  0
   10.4736    6.5722  -10.4945 C   0  0  0  0  0  0  0  0  0  0  0  0
   10.2327    7.3554   -9.2788 N   0  0  0  0  0  0  0  0  0  0  0  0
   11.4624    8.0601   -8.8875 C   0  0  0  0  0  0  0  0  0  0  0  0
   11.2980    8.7792   -7.5373 C   0  0  0  0  0  0  0  0  0  0  0  0
   10.8601    7.8331   -6.5176 N   0  0  0  0  0  0  0  0  0  0  0  0
   11.2873    7.8958   -5.1761 C   0  0  0  0  0  0  0  0  0  0  0  0
   11.6241    6.6992   -4.5150 C   0  0  0  0  0  0  0  0  0  0  0  0
   12.0860    6.7022   -3.1834 C   0  0  0  0  0  0  0  0  0  0  0  0
   12.2399    7.9167   -2.4946 C   0  0  0  0  0  0  0  0  0  0  0  0
   11.9073    9.1204   -3.1357 C   0  0  0  0  0  0  0  0  0  0  0  0
   11.4155    9.1055   -4.4553 C   0  0  0  0  0  0  0  0  0  0  0  0
   10.8860   10.5820   -5.1267 Cl  0  0  0  0  0  0  0  0  0  0  0  0
    9.6330    7.1305   -6.8601 C   0  0  0  0  0  0  0  0  0  0  0  0
    9.8180    6.4240   -8.2158 C   0  0  0  0  0  0  0  0  0  0  0  0
    8.2303    4.9818  -12.6694 C   0  0  0  0  0  0  0  0  0  0  0  0
    7.3746    5.3729  -11.8463 O   0  0  0  0  0  0  0  0  0  0  0  0
    8.2060    3.9452  -13.5624 C   0  0  0  0  0  0  0  0  0  0  0  0
    7.2521    3.0040  -13.8480 N   0  0  0  0  0  0  0  0  0  0  0  0
    6.0871    0.3433  -14.5251 C   0  0  0  0  0  0  0  0  0  0  0  0
    5.2806   -0.6799  -15.0569 C   0  0  0  0  0  0  0  0  0  0  0  0
    3.8977   -2.5670  -16.2170 H   0  0  0  0  0  0  0  0  0  0  0  0
    3.8044   -1.6918  -17.7470 H   0  0  0  0  0  0  0  0  0  0  0  0
    5.1002   -2.8668  -17.4707 H   0  0  0  0  0  0  0  0  0  0  0  0
    6.3286   -0.5549  -18.3088 H   0  0  0  0  0  0  0  0  0  0  0  0
    7.7551    1.2466  -17.3754 H   0  0  0  0  0  0  0  0  0  0  0  0
    9.6893    2.1063  -15.9142 H   0  0  0  0  0  0  0  0  0  0  0  0
    8.6001    7.3147  -11.2849 H   0  0  0  0  0  0  0  0  0  0  0  0
    9.9571    7.8042  -12.1928 H   0  0  0  0  0  0  0  0  0  0  0  0
   11.5025    6.7030  -10.8251 H   0  0  0  0  0  0  0  0  0  0  0  0
   10.3559    5.5071  -10.2871 H   0  0  0  0  0  0  0  0  0  0  0  0
   11.7192    8.7867   -9.6599 H   0  0  0  0  0  0  0  0  0  0  0  0
   12.3021    7.3731   -8.8173 H   0  0  0  0  0  0  0  0  0  0  0  0
   10.5559    9.5709   -7.6376 H   0  0  0  0  0  0  0  0  0  0  0  0
   12.2419    9.2430   -7.2483 H   0  0  0  0  0  0  0  0  0  0  0  0
   11.5336    5.7723   -5.0508 H   0  0  0  0  0  0  0  0  0  0  0  0
   12.3335    5.7727   -2.6941 H   0  0  0  0  0  0  0  0  0  0  0  0
   12.5983    7.9270   -1.4758 H   0  0  0  0  0  0  0  0  0  0  0  0
   11.9978   10.0564   -2.6031 H   0  0  0  0  0  0  0  0  0  0  0  0
    9.3683    6.4054   -6.0904 H   0  0  0  0  0  0  0  0  0  0  0  0
    8.8099    7.8449   -6.9181 H   0  0  0  0  0  0  0  0  0  0  0  0
    8.8810    5.9445   -8.5060 H   0  0  0  0  0  0  0  0  0  0  0  0
   10.5620    5.6335   -8.1026 H   0  0  0  0  0  0  0  0  0  0  0  0
    6.3365    2.9507  -13.4251 H   0  0  0  0  0  0  0  0  0  0  0  0
    6.0191    0.5816  -13.4740 H   0  0  0  0  0  0  0  0  0  0  0  0
    4.6021   -1.2176  -14.4115 H   0  0  0  0  0  0  0  0  0  0  0  0
  2  1  1  0
  3  2  1  0
  4  3  2  0
  5  4  1  0
  6  5  1  0
  7  6  2  0
  8  7  1  0
  9  8  2  0
 10  9  1  0
 11 10  2  0
 12 10  1  0
 13 12  1  0
 14 13  1  0
 15 14  1  0
 16 15  1  0
 17 16  1  0
 18 17  1  0
 19 18  1  0
 20 19  2  0
 21 20  1  0
 22 21  2  0
 23 22  1  0
 24 19  1  0
 24 23  2  0
 25 24  1  0
 26 18  1  0
 27 15  1  0
 27 26  1  0
 28 12  1  0
 29 28  1  0
 30  8  1  0
 30 28  2  0
 31  6  1  0
 31 30  1  0
 32  5  2  0
 33  2  2  0
 33 32  1  0
 34  1  1  0
 35  1  1  0
 36  1  1  0
 37  3  1  0
 38  4  1  0
 39  7  1  0
 40 13  1  0
 41 13  1  0
 42 14  1  0
 43 14  1  0
 44 16  1  0
 45 16  1  0
 46 17  1  0
 47 17  1  0
 48 20  1  0
 49 21  1  0
 50 22  1  0
 51 23  1  0
 52 26  1  0
 53 26  1  0
 54 27  1  0
 55 27  1  0
 56 31  1  0
 57 32  1  0
 58 33  1  0
M  CHG  1  29  -1
M  END
>  <b_m_subgroup_collapsed>  (796) 
0

>  <r_i_docking_score>  (796) 
-7.3289812028897501

>  <s_m_subgroup_title>  (796) 
glide-dock_SP_D22_pv

>  <s_m_subgroupid>  (796) 
glide-dock_SP_D22_pv

>  <Molecule ChEMBL ID>  (796) 
CHEMBL372222

>  <Standard Type>  (796) 
Ki

>  <Standard Value>  (796) 
10000.0

>  <label>  (796) 
0

$$$$
CHEMBL3800165
     RDKit          3D

 44 46  0  0  1  0  0  0  0  0999 V2000
    9.9762    7.1302   -6.6343 C   0  0  0  0  0  0  0  0  0  0  0  0
    9.3046    7.1565   -8.0131 C   0  0  0  0  0  0  0  0  0  0  0  0
    8.7761    5.7726   -8.4273 C   0  0  0  0  0  0  0  0  0  0  0  0
    8.0860    5.7723   -9.7386 N   0  0  0  0  0  0  0  0  0  0  0  0
    8.8798    5.3648  -10.9188 C   0  0  2  0  0  0  0  0  0  0  0  0
    9.7422    6.5228  -11.4791 C   0  0  0  0  0  0  0  0  0  0  0  0
   10.5102    6.1458  -12.7380 C   0  0  0  0  0  0  0  0  0  0  0  0
   11.7169    6.6608  -13.2620 C   0  0  0  0  0  0  0  0  0  0  0  0
   12.2524    6.1333  -14.4698 C   0  0  0  0  0  0  0  0  0  0  0  0
   11.6004    5.0867  -15.1752 C   0  0  0  0  0  0  0  0  0  0  0  0
   10.3944    4.5735  -14.6566 C   0  0  0  0  0  0  0  0  0  0  0  0
    9.9265    5.1220  -13.4884 C   0  0  0  0  0  0  0  0  0  0  0  0
    8.7405    4.4431  -13.2014 N   0  0  0  0  0  0  0  0  0  0  0  0
    8.4812    3.5371  -14.1754 C   0  0  0  0  0  0  0  0  0  0  0  0
    7.4869    2.8161  -14.2462 O   0  0  0  0  0  0  0  0  0  0  0  0
    9.4977    3.5837  -15.0696 N   0  0  0  0  0  0  0  0  0  0  0  0
    9.6519    2.7882  -16.2866 C   0  0  0  0  0  0  0  0  0  0  0  0
   10.6427    1.6231  -16.1047 C   0  0  0  0  0  0  0  0  0  0  0  0
   10.1617    0.5497  -15.1194 C   0  0  0  0  0  0  0  0  0  0  0  0
    7.9615    4.7560  -12.0070 C   0  0  0  0  0  0  0  0  0  0  0  0
   10.3205    8.1247   -6.3506 H   0  0  0  0  0  0  0  0  0  0  0  0
    9.2867    6.7868   -5.8627 H   0  0  0  0  0  0  0  0  0  0  0  0
   10.8399    6.4650   -6.6282 H   0  0  0  0  0  0  0  0  0  0  0  0
   10.0212    7.5346   -8.7377 H   0  0  0  0  0  0  0  0  0  0  0  0
    8.4859    7.8753   -7.9942 H   0  0  0  0  0  0  0  0  0  0  0  0
    8.0420    5.4545   -7.6864 H   0  0  0  0  0  0  0  0  0  0  0  0
    9.5710    5.0261   -8.4040 H   0  0  0  0  0  0  0  0  0  0  0  0
    7.5929    6.6600   -9.8904 H   0  0  0  0  0  0  0  0  0  0  0  0
    9.5545    4.5648  -10.6082 H   0  0  0  0  0  0  0  0  0  0  0  0
   10.4761    6.8452  -10.7436 H   0  0  0  0  0  0  0  0  0  0  0  0
    9.1144    7.3858  -11.7064 H   0  0  0  0  0  0  0  0  0  0  0  0
   12.2401    7.4513  -12.7441 H   0  0  0  0  0  0  0  0  0  0  0  0
   13.1799    6.5331  -14.8536 H   0  0  0  0  0  0  0  0  0  0  0  0
   12.0205    4.6946  -16.0897 H   0  0  0  0  0  0  0  0  0  0  0  0
    8.6827    2.4061  -16.6115 H   0  0  0  0  0  0  0  0  0  0  0  0
    9.9994    3.4426  -17.0867 H   0  0  0  0  0  0  0  0  0  0  0  0
   10.8153    1.1539  -17.0738 H   0  0  0  0  0  0  0  0  0  0  0  0
   11.6116    2.0060  -15.7813 H   0  0  0  0  0  0  0  0  0  0  0  0
   10.8859   -0.2604  -15.0466 H   0  0  0  0  0  0  0  0  0  0  0  0
   10.0260    0.9599  -14.1202 H   0  0  0  0  0  0  0  0  0  0  0  0
    9.2112    0.1188  -15.4355 H   0  0  0  0  0  0  0  0  0  0  0  0
    7.1760    5.4614  -12.2834 H   0  0  0  0  0  0  0  0  0  0  0  0
    7.4688    3.8541  -11.6369 H   0  0  0  0  0  0  0  0  0  0  0  0
    7.3542    5.0760   -9.6536 H   0  0  0  0  0  0  0  0  0  0  0  0
  2  1  1  0
  3  2  1  0
  4  3  1  0
  5  4  1  0
  6  5  1  0
  7  6  1  0
  8  7  1  0
  9  8  2  0
 10  9  1  0
 11 10  2  0
 12  7  2  0
 12 11  1  0
 13 12  1  0
 14 13  1  0
 15 14  2  0
 16 11  1  0
 16 14  1  0
 17 16  1  0
 18 17  1  0
 19 18  1  0
 20  5  1  0
 20 13  1  0
 21  1  1  0
 22  1  1  0
 23  1  1  0
 24  2  1  0
 25  2  1  0
 26  3  1  0
 27  3  1  0
 28  4  1  0
  5 29  1  1
 30  6  1  0
 31  6  1  0
 32  8  1  0
 33  9  1  0
 34 10  1  0
 35 17  1  0
 36 17  1  0
 37 18  1  0
 38 18  1  0
 39 19  1  0
 40 19  1  0
 41 19  1  0
 42 20  1  0
 43 20  1  0
 44  4  1  0
M  CHG  1   4   1
M  END
>  <b_m_subgroup_collapsed>  (797) 
0

>  <r_i_docking_score>  (797) 
-7.3274130417080299

>  <s_m_subgroup_title>  (797) 
glide-dock_SP_D22_pv

>  <s_m_subgroupid>  (797) 
glide-dock_SP_D22_pv

>  <Molecule ChEMBL ID>  (797) 
CHEMBL3800165

>  <Standard Type>  (797) 
Ki

>  <Standard Value>  (797) 
8.08

>  <label>  (797) 
1

$$$$
CHEMBL64508
     RDKit          3D

 36 37  0  0  1  0  0  0  0  0999 V2000
   12.4860    7.6349   -2.9117 O   0  0  0  0  0  0  0  0  0  0  0  0
   11.8523    8.0102   -4.0597 C   0  0  0  0  0  0  0  0  0  0  0  0
   11.7425    9.3723   -4.3921 C   0  0  0  0  0  0  0  0  0  0  0  0
   11.0706    9.7573   -5.5689 C   0  0  0  0  0  0  0  0  0  0  0  0
   10.4860    8.7824   -6.4035 C   0  0  0  0  0  0  0  0  0  0  0  0
   10.5783    7.4104   -6.0642 C   0  0  0  0  0  0  0  0  0  0  0  0
   10.0171    6.3847   -6.7876 O   0  0  0  0  0  0  0  0  0  0  0  0
    8.9512    6.6447   -7.6895 C   0  0  0  0  0  0  0  0  0  0  0  0
    9.4954    6.6633   -9.1257 C   0  0  0  0  0  0  0  0  0  0  0  0
    8.4860    6.1723  -10.0856 N   0  0  0  0  0  0  0  0  0  0  0  0
    8.8701    6.2914  -11.5036 C   0  0  0  0  0  0  0  0  0  0  0  0
    8.0908    5.2998  -12.3446 C   0  0  0  0  0  0  0  0  0  0  0  0
    6.6802    5.3464  -12.3752 C   0  0  0  0  0  0  0  0  0  0  0  0
    5.9587    4.3891  -13.1135 C   0  0  0  0  0  0  0  0  0  0  0  0
    6.6415    3.4006  -13.8469 C   0  0  0  0  0  0  0  0  0  0  0  0
    8.0489    3.3723  -13.8469 C   0  0  0  0  0  0  0  0  0  0  0  0
    8.7724    4.3113  -13.0869 C   0  0  0  0  0  0  0  0  0  0  0  0
   11.2860    7.0367   -4.9039 C   0  0  0  0  0  0  0  0  0  0  0  0
   12.4437    6.7040   -2.7530 H   0  0  0  0  0  0  0  0  0  0  0  0
   12.1697   10.1209   -3.7406 H   0  0  0  0  0  0  0  0  0  0  0  0
   10.9940   10.8038   -5.8256 H   0  0  0  0  0  0  0  0  0  0  0  0
    9.9722    9.1072   -7.2956 H   0  0  0  0  0  0  0  0  0  0  0  0
    8.2536    5.8141   -7.5710 H   0  0  0  0  0  0  0  0  0  0  0  0
    8.3834    7.5435   -7.4482 H   0  0  0  0  0  0  0  0  0  0  0  0
    9.8222    7.6694   -9.3916 H   0  0  0  0  0  0  0  0  0  0  0  0
   10.3676    6.0116   -9.1980 H   0  0  0  0  0  0  0  0  0  0  0  0
    8.2654    5.2074   -9.8839 H   0  0  0  0  0  0  0  0  0  0  0  0
    8.6807    7.3082  -11.8506 H   0  0  0  0  0  0  0  0  0  0  0  0
    9.9387    6.1027  -11.6176 H   0  0  0  0  0  0  0  0  0  0  0  0
    6.1437    6.1051  -11.8218 H   0  0  0  0  0  0  0  0  0  0  0  0
    4.8805    4.4171  -13.1252 H   0  0  0  0  0  0  0  0  0  0  0  0
    6.0860    2.6706  -14.4168 H   0  0  0  0  0  0  0  0  0  0  0  0
    8.5739    2.6158  -14.4118 H   0  0  0  0  0  0  0  0  0  0  0  0
    9.8518    4.2631  -13.0765 H   0  0  0  0  0  0  0  0  0  0  0  0
   11.3585    5.9899   -4.6468 H   0  0  0  0  0  0  0  0  0  0  0  0
    7.6261    6.7268   -9.9815 H   0  0  0  0  0  0  0  0  0  0  0  0
  2  1  1  0
  3  2  1  0
  4  3  2  0
  5  4  1  0
  6  5  2  0
  7  6  1  0
  8  7  1  0
  9  8  1  0
 10  9  1  0
 11 10  1  0
 12 11  1  0
 13 12  2  0
 14 13  1  0
 15 14  2  0
 16 15  1  0
 17 12  1  0
 17 16  2  0
 18  2  2  0
 18  6  1  0
 19  1  1  0
 20  3  1  0
 21  4  1  0
 22  5  1  0
 23  8  1  0
 24  8  1  0
 25  9  1  0
 26  9  1  0
 27 10  1  0
 28 11  1  0
 29 11  1  0
 30 13  1  0
 31 14  1  0
 32 15  1  0
 33 16  1  0
 34 17  1  0
 35 18  1  0
 36 10  1  0
M  CHG  1  10   1
M  END
>  <b_m_subgroup_collapsed>  (798) 
0

>  <r_i_docking_score>  (798) 
-7.3237371924140797

>  <s_m_subgroup_title>  (798) 
glide-dock_SP_D22_pv

>  <s_m_subgroupid>  (798) 
glide-dock_SP_D22_pv

>  <Molecule ChEMBL ID>  (798) 
CHEMBL64508

>  <Standard Type>  (798) 
Ki

>  <Standard Value>  (798) 
75.8

>  <label>  (798) 
1

$$$$
CHEMBL4453069
     RDKit          3D

 40 42  0  0  1  0  0  0  0  0999 V2000
   10.2473    6.1724  -12.1727 O   0  0  0  0  0  0  0  0  0  0  0  0
    9.3403    6.6541  -11.4988 C   0  0  0  0  0  0  0  0  0  0  0  0
    9.6123    7.9115  -10.6637 C   0  0  0  0  0  0  0  0  0  0  0  0
   10.4294    7.7327   -9.4368 N   0  0  0  0  0  0  0  0  0  0  0  0
    9.8445    6.7774   -8.4847 C   0  0  0  0  0  0  0  0  0  0  0  0
   10.6999    6.6802   -7.1976 C   0  0  0  0  0  0  0  0  0  0  0  0
   10.8772    7.9947   -6.5876 N   0  0  0  0  0  0  0  0  0  0  0  0
   11.2887    8.0996   -5.2428 C   0  0  0  0  0  0  0  0  0  0  0  0
   11.6857    6.9717   -4.4834 C   0  0  0  0  0  0  0  0  0  0  0  0
   12.0868    7.1443   -3.1452 C   0  0  0  0  0  0  0  0  0  0  0  0
   12.0904    8.4420   -2.6044 C   0  0  0  0  0  0  0  0  0  0  0  0
   11.6884    9.5070   -3.4275 C   0  0  0  0  0  0  0  0  0  0  0  0
   11.2953    9.3445   -4.7063 N   0  0  0  0  0  0  0  0  0  0  0  0
   11.4092    8.9771   -7.5280 C   0  0  0  0  0  0  0  0  0  0  0  0
   10.5218    9.0424   -8.7799 C   0  0  0  0  0  0  0  0  0  0  0  0
    8.0862    6.1724  -11.4505 N   0  0  0  0  0  0  0  0  0  0  0  0
    7.4896    5.1673  -12.2617 C   0  0  0  0  0  0  0  0  0  0  0  0
    6.0874    5.0364  -12.2446 C   0  0  0  0  0  0  0  0  0  0  0  0
    5.4454    4.0989  -12.9682 N   0  0  0  0  0  0  0  0  0  0  0  0
    6.2042    3.3016  -13.7142 C   0  0  0  0  0  0  0  0  0  0  0  0
    7.5274    3.3477  -13.8456 N   0  0  0  0  0  0  0  0  0  0  0  0
    8.1817    4.2704  -13.1083 C   0  0  0  0  0  0  0  0  0  0  0  0
   10.1183    8.6158  -11.3262 H   0  0  0  0  0  0  0  0  0  0  0  0
    8.6583    8.3804  -10.4126 H   0  0  0  0  0  0  0  0  0  0  0  0
    8.8251    7.0750   -8.2335 H   0  0  0  0  0  0  0  0  0  0  0  0
    9.7811    5.7852   -8.9314 H   0  0  0  0  0  0  0  0  0  0  0  0
   10.1895    6.0182   -6.4995 H   0  0  0  0  0  0  0  0  0  0  0  0
   11.6805    6.2469   -7.4084 H   0  0  0  0  0  0  0  0  0  0  0  0
   11.6881    5.9763   -4.8996 H   0  0  0  0  0  0  0  0  0  0  0  0
   12.3887    6.2954   -2.5477 H   0  0  0  0  0  0  0  0  0  0  0  0
   12.3877    8.6225   -1.5822 H   0  0  0  0  0  0  0  0  0  0  0  0
   11.6804   10.5193   -3.0466 H   0  0  0  0  0  0  0  0  0  0  0  0
   11.4542    9.9714   -7.0828 H   0  0  0  0  0  0  0  0  0  0  0  0
   12.4331    8.7065   -7.7975 H   0  0  0  0  0  0  0  0  0  0  0  0
   10.9433    9.7739   -9.4695 H   0  0  0  0  0  0  0  0  0  0  0  0
    9.5253    9.3939   -8.5046 H   0  0  0  0  0  0  0  0  0  0  0  0
    7.4381    6.7245  -10.8782 H   0  0  0  0  0  0  0  0  0  0  0  0
    5.4766    5.6807  -11.6309 H   0  0  0  0  0  0  0  0  0  0  0  0
    5.6911    2.5221  -14.2526 H   0  0  0  0  0  0  0  0  0  0  0  0
    9.2543    4.2567  -13.2061 H   0  0  0  0  0  0  0  0  0  0  0  0
  2  1  2  0
  3  2  1  0
  4  3  1  0
  5  4  1  0
  6  5  1  0
  7  6  1  0
  8  7  1  0
  9  8  2  0
 10  9  1  0
 11 10  2  0
 12 11  1  0
 13  8  1  0
 13 12  2  0
 14  7  1  0
 15  4  1  0
 15 14  1  0
 16  2  1  0
 17 16  1  0
 18 17  2  0
 19 18  1  0
 20 19  2  0
 21 20  1  0
 22 17  1  0
 22 21  2  0
 23  3  1  0
 24  3  1  0
 25  5  1  0
 26  5  1  0
 27  6  1  0
 28  6  1  0
 29  9  1  0
 30 10  1  0
 31 11  1  0
 32 12  1  0
 33 14  1  0
 34 14  1  0
 35 15  1  0
 36 15  1  0
 37 16  1  0
 38 18  1  0
 39 20  1  0
 40 22  1  0
M  END
>  <b_m_subgroup_collapsed>  (799) 
0

>  <r_i_docking_score>  (799) 
-7.3231959550316796

>  <s_m_subgroup_title>  (799) 
glide-dock_SP_D22_pv

>  <s_m_subgroupid>  (799) 
glide-dock_SP_D22_pv

>  <Molecule ChEMBL ID>  (799) 
CHEMBL4453069

>  <Standard Type>  (799) 
Ki

>  <Standard Value>  (799) 
50000.0

>  <label>  (799) 
0

$$$$
CHEMBL4228054
     RDKit          3D

 41 42  0  0  1  0  0  0  0  0999 V2000
    5.3728    4.2894  -13.2821 C   0  0  0  0  0  0  0  0  0  0  0  0
    6.8783    4.5291  -13.1664 C   0  0  0  0  0  0  0  0  0  0  0  0
    7.2353    5.7731  -12.3391 C   0  0  0  0  0  0  0  0  0  0  0  0
    8.7577    5.9643  -12.2699 C   0  0  0  0  0  0  0  0  0  0  0  0
    9.2369    7.1145  -11.3634 C   0  0  0  0  0  0  0  0  0  0  0  0
    8.8862    6.9716   -9.9252 N   0  0  1  0  0  0  0  0  0  0  0  0
    9.0731    5.6313   -9.3225 C   0  0  0  0  0  0  0  0  0  0  0  0
    9.4651    5.8458   -7.8540 C   0  0  0  0  0  0  0  0  0  0  0  0
    9.4601    7.3622   -7.6325 C   0  0  1  0  0  0  0  0  0  0  0  0
   10.4566    7.9034   -6.6004 C   0  0  0  0  0  0  0  0  0  0  0  0
   11.0177    9.1886   -6.7577 C   0  0  0  0  0  0  0  0  0  0  0  0
   11.8853    9.7246   -5.7875 C   0  0  0  0  0  0  0  0  0  0  0  0
   12.2129    8.9723   -4.6447 C   0  0  0  0  0  0  0  0  0  0  0  0
   11.6857    7.6772   -4.4849 C   0  0  0  0  0  0  0  0  0  0  0  0
   12.0208    6.9423   -3.3843 O   0  0  0  0  0  0  0  0  0  0  0  0
   10.8060    7.1507   -5.4545 C   0  0  0  0  0  0  0  0  0  0  0  0
    9.6018    7.9219   -9.0519 C   0  0  0  0  0  0  0  0  0  0  0  0
    5.1780    3.3789  -13.8471 H   0  0  0  0  0  0  0  0  0  0  0  0
    4.9121    4.1734  -12.3008 H   0  0  0  0  0  0  0  0  0  0  0  0
    4.8855    5.1149  -13.7996 H   0  0  0  0  0  0  0  0  0  0  0  0
    7.3049    4.6118  -14.1661 H   0  0  0  0  0  0  0  0  0  0  0  0
    7.3386    3.6514  -12.7118 H   0  0  0  0  0  0  0  0  0  0  0  0
    6.8205    5.6654  -11.3369 H   0  0  0  0  0  0  0  0  0  0  0  0
    6.7683    6.6620  -12.7660 H   0  0  0  0  0  0  0  0  0  0  0  0
    9.1201    6.1656  -13.2786 H   0  0  0  0  0  0  0  0  0  0  0  0
    9.2345    5.0278  -11.9794 H   0  0  0  0  0  0  0  0  0  0  0  0
    8.8307    8.0615  -11.7228 H   0  0  0  0  0  0  0  0  0  0  0  0
   10.3210    7.1866  -11.4618 H   0  0  0  0  0  0  0  0  0  0  0  0
    9.8742    5.0861   -9.8226 H   0  0  0  0  0  0  0  0  0  0  0  0
    8.1585    5.0449   -9.4155 H   0  0  0  0  0  0  0  0  0  0  0  0
   10.4472    5.4008   -7.6832 H   0  0  0  0  0  0  0  0  0  0  0  0
    8.7560    5.3730   -7.1797 H   0  0  0  0  0  0  0  0  0  0  0  0
    8.4670    7.6383   -7.2739 H   0  0  0  0  0  0  0  0  0  0  0  0
   10.7809    9.7725   -7.6294 H   0  0  0  0  0  0  0  0  0  0  0  0
   12.3054   10.7104   -5.9228 H   0  0  0  0  0  0  0  0  0  0  0  0
   12.8823    9.3811   -3.9017 H   0  0  0  0  0  0  0  0  0  0  0  0
   11.6280    6.0817   -3.3668 H   0  0  0  0  0  0  0  0  0  0  0  0
   10.3791    6.1721   -5.3051 H   0  0  0  0  0  0  0  0  0  0  0  0
    9.1983    8.9308   -9.1501 H   0  0  0  0  0  0  0  0  0  0  0  0
   10.6567    7.9455   -9.3318 H   0  0  0  0  0  0  0  0  0  0  0  0
    7.8892    7.2048   -9.8464 H   0  0  0  0  0  0  0  0  0  0  0  0
  2  1  1  0
  3  2  1  0
  4  3  1  0
  5  4  1  0
  6  5  1  0
  7  6  1  0
  8  7  1  0
  9  8  1  0
 10  9  1  0
 11 10  2  0
 12 11  1  0
 13 12  2  0
 14 13  1  0
 15 14  1  0
 16 10  1  0
 16 14  2  0
 17  6  1  0
 17  9  1  0
 18  1  1  0
 19  1  1  0
 20  1  1  0
 21  2  1  0
 22  2  1  0
 23  3  1  0
 24  3  1  0
 25  4  1  0
 26  4  1  0
 27  5  1  0
 28  5  1  0
 29  7  1  0
 30  7  1  0
 31  8  1  0
 32  8  1  0
  9 33  1  1
 34 11  1  0
 35 12  1  0
 36 13  1  0
 37 15  1  0
 38 16  1  0
 39 17  1  0
 40 17  1  0
  6 41  1  6
M  CHG  1   6   1
M  END
>  <b_m_subgroup_collapsed>  (800) 
0

>  <r_i_docking_score>  (800) 
-7.3220089988282302

>  <s_m_subgroup_title>  (800) 
glide-dock_SP_D22_pv

>  <s_m_subgroupid>  (800) 
glide-dock_SP_D22_pv

>  <Molecule ChEMBL ID>  (800) 
CHEMBL4228054

>  <Standard Type>  (800) 
Ki

>  <Standard Value>  (800) 
10000.0

>  <label>  (800) 
0

$$$$
CHEMBL4758966
     RDKit          3D

 52 55  0  0  1  0  0  0  0  0999 V2000
    6.6079   -0.1025  -13.2774 C   0  0  0  0  0  0  0  0  0  0  0  0
    6.1624    0.9554  -14.3005 C   0  0  0  0  0  0  0  0  0  0  0  0
    6.6806    2.2573  -14.0161 O   0  0  0  0  0  0  0  0  0  0  0  0
    8.0165    2.5267  -14.2470 C   0  0  0  0  0  0  0  0  0  0  0  0
    8.9122    1.6341  -14.8775 C   0  0  0  0  0  0  0  0  0  0  0  0
   10.2563    1.9998  -15.0528 C   0  0  0  0  0  0  0  0  0  0  0  0
   10.7355    3.2402  -14.5881 C   0  0  0  0  0  0  0  0  0  0  0  0
    9.8771    4.1363  -13.8978 C   0  0  0  0  0  0  0  0  0  0  0  0
    8.5089    3.7704  -13.7975 C   0  0  0  0  0  0  0  0  0  0  0  0
   10.3733    5.4009  -13.2387 C   0  0  0  0  0  0  0  0  0  0  0  0
    9.8346    5.8319  -11.8938 C   0  0  0  0  0  0  0  0  0  0  0  0
   10.1112    7.0594  -11.3891 C   0  0  0  0  0  0  0  0  0  0  0  0
    9.7535    7.5712   -9.9967 C   0  0  2  0  0  0  0  0  0  0  0  0
   11.0530    7.9640   -9.2607 C   0  0  0  0  0  0  0  0  0  0  0  0
    8.8861    6.6194   -9.2315 N   0  0  2  0  0  0  0  0  0  0  0  0
    8.8079    6.8799   -7.7748 C   0  0  0  0  0  0  0  0  0  0  0  0
    9.1490    5.1923   -9.5281 C   0  0  0  0  0  0  0  0  0  0  0  0
    8.9863    4.9082  -11.0256 C   0  0  0  0  0  0  0  0  0  0  0  0
   11.2858    6.1595  -13.7290 N   0  0  0  0  0  0  0  0  0  0  0  0
   12.0321    5.9937  -14.9035 C   0  0  0  0  0  0  0  0  0  0  0  0
   12.4860    7.1731  -15.5323 C   0  0  0  0  0  0  0  0  0  0  0  0
   13.2974    7.1189  -16.6811 C   0  0  0  0  0  0  0  0  0  0  0  0
   13.7995    8.5709  -17.4508 Cl  0  0  0  0  0  0  0  0  0  0  0  0
   13.7050    5.8785  -17.1958 C   0  0  0  0  0  0  0  0  0  0  0  0
   13.2854    4.6964  -16.5654 C   0  0  0  0  0  0  0  0  0  0  0  0
   12.4530    4.7470  -15.4309 C   0  0  0  0  0  0  0  0  0  0  0  0
   12.0662    3.5398  -14.8659 N   0  0  0  0  0  0  0  0  0  0  0  0
    6.1717   -1.0743  -13.5126 H   0  0  0  0  0  0  0  0  0  0  0  0
    7.6880   -0.2276  -13.2640 H   0  0  0  0  0  0  0  0  0  0  0  0
    6.2882    0.1670  -12.2712 H   0  0  0  0  0  0  0  0  0  0  0  0
    5.0760    1.0255  -14.2471 H   0  0  0  0  0  0  0  0  0  0  0  0
    6.3904    0.6539  -15.3245 H   0  0  0  0  0  0  0  0  0  0  0  0
    8.5941    0.6690  -15.2401 H   0  0  0  0  0  0  0  0  0  0  0  0
   10.9215    1.3164  -15.5611 H   0  0  0  0  0  0  0  0  0  0  0  0
    7.8006    4.4423  -13.3446 H   0  0  0  0  0  0  0  0  0  0  0  0
   10.6930    7.7668  -11.9620 H   0  0  0  0  0  0  0  0  0  0  0  0
    9.1633    8.4795  -10.1345 H   0  0  0  0  0  0  0  0  0  0  0  0
   11.6488    8.6449   -9.8682 H   0  0  0  0  0  0  0  0  0  0  0  0
   10.8574    8.4869   -8.3244 H   0  0  0  0  0  0  0  0  0  0  0  0
   11.6801    7.0969   -9.0460 H   0  0  0  0  0  0  0  0  0  0  0  0
    9.7551    6.6802   -7.2721 H   0  0  0  0  0  0  0  0  0  0  0  0
    8.5169    7.9142   -7.5817 H   0  0  0  0  0  0  0  0  0  0  0  0
    8.0591    6.2412   -7.3095 H   0  0  0  0  0  0  0  0  0  0  0  0
    8.4515    4.5677   -8.9705 H   0  0  0  0  0  0  0  0  0  0  0  0
   10.1509    4.9252   -9.1936 H   0  0  0  0  0  0  0  0  0  0  0  0
    7.9360    5.0308  -11.2898 H   0  0  0  0  0  0  0  0  0  0  0  0
    9.2649    3.8722  -11.2162 H   0  0  0  0  0  0  0  0  0  0  0  0
   12.1997    8.1350  -15.1355 H   0  0  0  0  0  0  0  0  0  0  0  0
   14.3381    5.8344  -18.0679 H   0  0  0  0  0  0  0  0  0  0  0  0
   13.6094    3.7445  -16.9633 H   0  0  0  0  0  0  0  0  0  0  0  0
   12.5823    2.7554  -15.2387 H   0  0  0  0  0  0  0  0  0  0  0  0
    7.9447    6.8098   -9.5766 H   0  0  0  0  0  0  0  0  0  0  0  0
  2  1  1  0
  3  2  1  0
  4  3  1  0
  5  4  1  0
  6  5  2  0
  7  6  1  0
  8  7  2  0
  9  4  2  0
  9  8  1  0
 10  8  1  0
 11 10  1  0
 12 11  2  0
 13 12  1  0
 14 13  1  0
 15 13  1  0
 16 15  1  0
 17 15  1  0
 18 11  1  0
 18 17  1  0
 19 10  2  0
 20 19  1  0
 21 20  1  0
 22 21  2  0
 23 22  1  0
 24 22  1  0
 25 24  2  0
 26 20  2  0
 26 25  1  0
 27  7  1  0
 27 26  1  0
 28  1  1  0
 29  1  1  0
 30  1  1  0
 31  2  1  0
 32  2  1  0
 33  5  1  0
 34  6  1  0
 35  9  1  0
 36 12  1  0
 13 37  1  6
 38 14  1  0
 39 14  1  0
 40 14  1  0
 41 16  1  0
 42 16  1  0
 43 16  1  0
 44 17  1  0
 45 17  1  0
 46 18  1  0
 47 18  1  0
 48 21  1  0
 49 24  1  0
 50 25  1  0
 51 27  1  0
 15 52  1  6
M  CHG  1  15   1
M  END
>  <b_m_subgroup_collapsed>  (801) 
0

>  <r_i_docking_score>  (801) 
-7.3201778277570302

>  <s_m_subgroup_title>  (801) 
glide-dock_SP_D22_pv

>  <s_m_subgroupid>  (801) 
glide-dock_SP_D22_pv

>  <Molecule ChEMBL ID>  (801) 
CHEMBL4758966

>  <Standard Type>  (801) 
Ki

>  <Standard Value>  (801) 
47.0

>  <label>  (801) 
1

$$$$
CHEMBL3289964
     RDKit          3D

 59 63  0  0  1  0  0  0  0  0999 V2000
    5.5941    0.2267  -14.0201 O   0  0  0  0  0  0  0  0  0  0  0  0
    6.8436    0.7523  -14.5903 S   0  0  0  0  0  0  0  0  0  0  0  0
    8.1509    0.1732  -14.2516 O   0  0  0  0  0  0  0  0  0  0  0  0
    6.8851    2.4403  -14.2468 N   0  0  0  0  0  0  0  0  0  0  0  0
    8.0768    3.1843  -13.8471 C   0  0  0  0  0  0  0  0  0  0  0  0
    7.6650    4.1716  -12.7469 C   0  0  0  0  0  0  0  0  0  0  0  0
    8.8241    4.7277  -11.9064 C   0  0  0  0  0  0  0  0  0  0  0  0
    8.2677    5.3742  -10.6297 C   0  0  0  0  0  0  0  0  0  0  0  0
    9.3201    5.8673   -9.7124 N   0  0  0  0  0  0  0  0  0  0  0  0
    9.7645    7.2489  -10.0176 C   0  0  0  0  0  0  0  0  0  0  0  0
   10.9645    7.6360   -9.1347 C   0  0  0  0  0  0  0  0  0  0  0  0
   10.6978    7.3923   -7.7132 N   0  0  0  0  0  0  0  0  0  0  0  0
   10.9988    8.3477   -6.7139 C   0  0  0  0  0  0  0  0  0  0  0  0
   10.9222    9.6151   -7.0402 N   0  0  0  0  0  0  0  0  0  0  0  0
   11.2861   10.5723   -5.7339 S   0  0  0  0  0  0  0  0  0  0  0  0
   11.6169    9.2643   -4.6362 C   0  0  0  0  0  0  0  0  0  0  0  0
   12.0228    9.3140   -3.2904 C   0  0  0  0  0  0  0  0  0  0  0  0
   12.2535    8.1195   -2.5921 C   0  0  0  0  0  0  0  0  0  0  0  0
   12.0861    6.8919   -3.2539 C   0  0  0  0  0  0  0  0  0  0  0  0
   11.6784    6.8576   -4.6042 C   0  0  0  0  0  0  0  0  0  0  0  0
   11.4136    8.0413   -5.3429 C   0  0  0  0  0  0  0  0  0  0  0  0
   10.1111    6.1121   -7.3663 C   0  0  0  0  0  0  0  0  0  0  0  0
    8.9351    5.7478   -8.2842 C   0  0  0  0  0  0  0  0  0  0  0  0
    6.6916    0.7263  -16.3607 C   0  0  0  0  0  0  0  0  0  0  0  0
    7.2794    1.5628  -17.2654 C   0  0  0  0  0  0  0  0  0  0  0  0
    6.8062    1.3156  -18.5447 N   0  0  0  0  0  0  0  0  0  0  0  0
    5.9393    0.3071  -18.4244 C   0  0  0  0  0  0  0  0  0  0  0  0
    5.1280   -0.3592  -19.3837 C   0  0  0  0  0  0  0  0  0  0  0  0
    4.3058   -1.3892  -18.9905 C   0  0  0  0  0  0  0  0  0  0  0  0
    4.2730   -1.8002  -17.6382 C   0  0  0  0  0  0  0  0  0  0  0  0
    5.0461   -1.1623  -16.6976 C   0  0  0  0  0  0  0  0  0  0  0  0
    5.8522   -0.1237  -17.0721 N   0  0  0  0  0  0  0  0  0  0  0  0
    6.0010    2.9436  -14.3211 H   0  0  0  0  0  0  0  0  0  0  0  0
    8.8331    2.4916  -13.4735 H   0  0  0  0  0  0  0  0  0  0  0  0
    8.5029    3.6984  -14.7077 H   0  0  0  0  0  0  0  0  0  0  0  0
    7.0972    4.9958  -13.1829 H   0  0  0  0  0  0  0  0  0  0  0  0
    6.9694    3.6663  -12.0742 H   0  0  0  0  0  0  0  0  0  0  0  0
    9.5050    3.9201  -11.6328 H   0  0  0  0  0  0  0  0  0  0  0  0
    9.4001    5.4436  -12.4944 H   0  0  0  0  0  0  0  0  0  0  0  0
    7.5756    6.1723  -10.8851 H   0  0  0  0  0  0  0  0  0  0  0  0
    7.6860    4.6126  -10.1149 H   0  0  0  0  0  0  0  0  0  0  0  0
   10.0405    7.3358  -11.0688 H   0  0  0  0  0  0  0  0  0  0  0  0
    8.9330    7.9400   -9.8493 H   0  0  0  0  0  0  0  0  0  0  0  0
   11.8326    7.0461   -9.4253 H   0  0  0  0  0  0  0  0  0  0  0  0
   11.2359    8.6755   -9.3254 H   0  0  0  0  0  0  0  0  0  0  0  0
   12.1550   10.2649   -2.7936 H   0  0  0  0  0  0  0  0  0  0  0  0
   12.5596    8.1453   -1.5562 H   0  0  0  0  0  0  0  0  0  0  0  0
   12.2659    5.9662   -2.7262 H   0  0  0  0  0  0  0  0  0  0  0  0
   11.5787    5.8941   -5.0810 H   0  0  0  0  0  0  0  0  0  0  0  0
   10.9050    5.3724   -7.4325 H   0  0  0  0  0  0  0  0  0  0  0  0
    9.7488    6.1328   -6.3393 H   0  0  0  0  0  0  0  0  0  0  0  0
    8.0861    6.4005   -8.0810 H   0  0  0  0  0  0  0  0  0  0  0  0
    8.6098    4.7311   -8.0611 H   0  0  0  0  0  0  0  0  0  0  0  0
    7.9863    2.3583  -17.0812 H   0  0  0  0  0  0  0  0  0  0  0  0
    5.1649   -0.0447  -20.4215 H   0  0  0  0  0  0  0  0  0  0  0  0
    3.6880   -1.8951  -19.7260 H   0  0  0  0  0  0  0  0  0  0  0  0
    3.6361   -2.6276  -17.3349 H   0  0  0  0  0  0  0  0  0  0  0  0
    5.0469   -1.4617  -15.6556 H   0  0  0  0  0  0  0  0  0  0  0  0
   10.1172    5.2596   -9.8343 H   0  0  0  0  0  0  0  0  0  0  0  0
  2  1  2  0
  3  2  2  0
  4  2  1  0
  5  4  1  0
  6  5  1  0
  7  6  1  0
  8  7  1  0
  9  8  1  0
 10  9  1  0
 11 10  1  0
 12 11  1  0
 13 12  1  0
 14 13  2  0
 15 14  1  0
 16 15  1  0
 17 16  2  0
 18 17  1  0
 19 18  2  0
 20 19  1  0
 21 13  1  0
 21 16  1  0
 21 20  2  0
 22 12  1  0
 23  9  1  0
 23 22  1  0
 24  2  1  0
 25 24  2  0
 26 25  1  0
 27 26  2  0
 28 27  1  0
 29 28  2  0
 30 29  1  0
 31 30  2  0
 32 24  1  0
 32 27  1  0
 32 31  1  0
 33  4  1  0
 34  5  1  0
 35  5  1  0
 36  6  1  0
 37  6  1  0
 38  7  1  0
 39  7  1  0
 40  8  1  0
 41  8  1  0
 42 10  1  0
 43 10  1  0
 44 11  1  0
 45 11  1  0
 46 17  1  0
 47 18  1  0
 48 19  1  0
 49 20  1  0
 50 22  1  0
 51 22  1  0
 52 23  1  0
 53 23  1  0
 54 25  1  0
 55 28  1  0
 56 29  1  0
 57 30  1  0
 58 31  1  0
 59  9  1  0
M  CHG  1   9   1
M  END
>  <b_m_subgroup_collapsed>  (802) 
0

>  <r_i_docking_score>  (802) 
-7.3184430592460101

>  <s_m_subgroup_title>  (802) 
glide-dock_SP_D22_pv

>  <s_m_subgroupid>  (802) 
glide-dock_SP_D22_pv

>  <Molecule ChEMBL ID>  (802) 
CHEMBL3289964

>  <Standard Type>  (802) 
Ki

>  <Standard Value>  (802) 
46.0

>  <label>  (802) 
1

$$$$
CHEMBL241101
     RDKit          3D

 55 58  0  0  1  0  0  0  0  0999 V2000
    4.9302    1.2879  -13.3134 C   0  0  0  0  0  0  0  0  0  0  0  0
    6.1197    1.8904  -13.7931 O   0  0  0  0  0  0  0  0  0  0  0  0
    6.8866    1.2411  -14.6822 C   0  0  0  0  0  0  0  0  0  0  0  0
    6.5708    0.1601  -15.1792 O   0  0  0  0  0  0  0  0  0  0  0  0
    8.0591    1.9487  -14.9757 N   0  0  0  0  0  0  0  0  0  0  0  0
    8.9539    1.4613  -16.0340 C   0  0  0  0  0  0  0  0  0  0  0  0
   10.1547    2.4309  -16.0564 C   0  0  0  0  0  0  0  0  0  0  0  0
    9.8689    3.3531  -14.9064 C   0  0  0  0  0  0  0  0  0  0  0  0
   10.7067    4.3774  -14.4315 C   0  0  0  0  0  0  0  0  0  0  0  0
   10.2949    5.1037  -13.2958 C   0  0  0  0  0  0  0  0  0  0  0  0
    9.0631    4.7977  -12.6728 C   0  0  0  0  0  0  0  0  0  0  0  0
    8.7050    5.4846  -11.4677 N   0  0  0  0  0  0  0  0  0  0  0  0
    9.0477    6.7780  -11.3543 C   0  0  0  0  0  0  0  0  0  0  0  0
    9.2863    7.3916  -10.1792 N   0  0  0  0  0  0  0  0  0  0  0  0
    9.5656    8.8303  -10.1869 C   0  0  0  0  0  0  0  0  0  0  0  0
   10.8536    9.1273   -9.4123 C   0  0  0  0  0  0  0  0  0  0  0  0
   10.7993    8.5529   -8.0083 C   0  0  0  0  0  0  0  0  0  0  0  0
   11.4668    9.1796   -6.9334 C   0  0  0  0  0  0  0  0  0  0  0  0
   11.4831    8.6004   -5.6491 C   0  0  0  0  0  0  0  0  0  0  0  0
   12.1467    9.2971   -4.6693 O   0  0  0  0  0  0  0  0  0  0  0  0
   11.3003    9.9086   -3.7095 C   0  0  0  0  0  0  0  0  0  0  0  0
   10.8628    7.3326   -5.4470 C   0  0  0  0  0  0  0  0  0  0  0  0
   10.9042    6.5763   -4.2918 O   0  0  0  0  0  0  0  0  0  0  0  0
   12.0390    6.7080   -3.4355 C   0  0  0  0  0  0  0  0  0  0  0  0
   10.1204    6.7721   -6.5050 C   0  0  0  0  0  0  0  0  0  0  0  0
   10.0762    7.3636   -7.7775 C   0  0  0  0  0  0  0  0  0  0  0  0
    9.2640    6.6900   -8.8796 C   0  0  0  0  0  0  0  0  0  0  0  0
    8.2127    3.7934  -13.1788 C   0  0  0  0  0  0  0  0  0  0  0  0
    8.6462    3.0574  -14.3063 C   0  0  0  0  0  0  0  0  0  0  0  0
    4.3780    2.0039  -12.7050 H   0  0  0  0  0  0  0  0  0  0  0  0
    4.2855    0.9650  -14.1322 H   0  0  0  0  0  0  0  0  0  0  0  0
    5.1644    0.4212  -12.6940 H   0  0  0  0  0  0  0  0  0  0  0  0
    9.2836    0.4462  -15.8018 H   0  0  0  0  0  0  0  0  0  0  0  0
    8.4426    1.4389  -16.9980 H   0  0  0  0  0  0  0  0  0  0  0  0
   10.2005    2.9955  -16.9878 H   0  0  0  0  0  0  0  0  0  0  0  0
   11.1023    1.9111  -15.9108 H   0  0  0  0  0  0  0  0  0  0  0  0
   11.6533    4.5856  -14.9086 H   0  0  0  0  0  0  0  0  0  0  0  0
   10.9391    5.8725  -12.8944 H   0  0  0  0  0  0  0  0  0  0  0  0
    9.1283    7.3622  -12.2639 H   0  0  0  0  0  0  0  0  0  0  0  0
    9.6428    9.1752  -11.2158 H   0  0  0  0  0  0  0  0  0  0  0  0
    8.7186    9.3499   -9.7365 H   0  0  0  0  0  0  0  0  0  0  0  0
   11.0505   10.1932   -9.4004 H   0  0  0  0  0  0  0  0  0  0  0  0
   11.7037    8.6786   -9.9280 H   0  0  0  0  0  0  0  0  0  0  0  0
   11.9833   10.1174   -7.0658 H   0  0  0  0  0  0  0  0  0  0  0  0
   11.8825   10.5733   -3.0720 H   0  0  0  0  0  0  0  0  0  0  0  0
   10.5074   10.4918   -4.1802 H   0  0  0  0  0  0  0  0  0  0  0  0
   10.8568    9.1687   -3.0526 H   0  0  0  0  0  0  0  0  0  0  0  0
   11.7844    7.2588   -2.5317 H   0  0  0  0  0  0  0  0  0  0  0  0
   12.3931    5.7348   -3.1101 H   0  0  0  0  0  0  0  0  0  0  0  0
   12.9014    7.1745   -3.9061 H   0  0  0  0  0  0  0  0  0  0  0  0
    9.5971    5.8431   -6.3469 H   0  0  0  0  0  0  0  0  0  0  0  0
    8.2281    6.5856   -8.5536 H   0  0  0  0  0  0  0  0  0  0  0  0
    9.6584    5.6822   -9.0126 H   0  0  0  0  0  0  0  0  0  0  0  0
    7.2868    3.5884  -12.6669 H   0  0  0  0  0  0  0  0  0  0  0  0
    8.0233    5.1118  -10.8187 H   0  0  0  0  0  0  0  0  0  0  0  0
  2  1  1  0
  3  2  1  0
  4  3  2  0
  5  3  1  0
  6  5  1  0
  7  6  1  0
  8  7  1  0
  9  8  1  0
 10  9  2  0
 11 10  1  0
 12 11  1  0
 13 12  1  0
 14 13  2  3
 15 14  1  0
 16 15  1  0
 17 16  1  0
 18 17  1  0
 19 18  2  0
 20 19  1  0
 21 20  1  0
 22 19  1  0
 23 22  1  0
 24 23  1  0
 25 22  2  0
 26 17  2  0
 26 25  1  0
 27 14  1  0
 27 26  1  0
 28 11  2  0
 29  5  1  0
 29  8  2  0
 29 28  1  0
 30  1  1  0
 31  1  1  0
 32  1  1  0
 33  6  1  0
 34  6  1  0
 35  7  1  0
 36  7  1  0
 37  9  1  0
 38 10  1  0
 39 13  1  0
 40 15  1  0
 41 15  1  0
 42 16  1  0
 43 16  1  0
 44 18  1  0
 45 21  1  0
 46 21  1  0
 47 21  1  0
 48 24  1  0
 49 24  1  0
 50 24  1  0
 51 25  1  0
 52 27  1  0
 53 27  1  0
 54 28  1  0
 55 12  1  0
M  CHG  1  14   1
M  END
>  <b_m_subgroup_collapsed>  (803) 
0

>  <r_i_docking_score>  (803) 
-7.3180259077975602

>  <s_m_subgroup_title>  (803) 
glide-dock_SP_D22_pv

>  <s_m_subgroupid>  (803) 
glide-dock_SP_D22_pv

>  <Molecule ChEMBL ID>  (803) 
CHEMBL241101

>  <Standard Type>  (803) 
Ki

>  <Standard Value>  (803) 
14000.0

>  <label>  (803) 
0

$$$$
CHEMBL556969
     RDKit          3D

 45 48  0  0  1  0  0  0  0  0999 V2000
   10.2709    7.9200   -6.4038 C   0  0  0  0  0  0  0  0  0  0  0  0
    8.8863    7.9543   -7.0868 C   0  0  0  0  0  0  0  0  0  0  0  0
    8.8873    7.5271   -8.5092 N   0  0  2  0  0  0  0  0  0  0  0  0
    9.0726    6.0612   -8.6866 C   0  0  0  0  0  0  0  0  0  0  0  0
    9.4103    5.6725  -10.1155 C   0  0  0  0  0  0  0  0  0  0  0  0
    9.6864    6.5392  -11.1118 C   0  0  0  0  0  0  0  0  0  0  0  0
   10.0863    6.0268  -12.4181 C   0  0  0  0  0  0  0  0  0  0  0  0
   11.1897    6.5637  -12.9960 C   0  0  0  0  0  0  0  0  0  0  0  0
   11.8273    6.1920  -14.2664 C   0  0  0  0  0  0  0  0  0  0  0  0
   12.4876    7.1928  -15.0091 C   0  0  0  0  0  0  0  0  0  0  0  0
   13.1025    6.8853  -16.2386 C   0  0  0  0  0  0  0  0  0  0  0  0
   13.0603    5.5694  -16.7341 C   0  0  0  0  0  0  0  0  0  0  0  0
   12.3984    4.5664  -16.0028 C   0  0  0  0  0  0  0  0  0  0  0  0
   11.7772    4.8755  -14.7759 C   0  0  0  0  0  0  0  0  0  0  0  0
   11.1819    3.8739  -14.0644 O   0  0  0  0  0  0  0  0  0  0  0  0
    9.8295    3.9641  -13.8827 C   0  0  0  0  0  0  0  0  0  0  0  0
    9.0139    2.9738  -14.4655 C   0  0  0  0  0  0  0  0  0  0  0  0
    7.6244    2.9740  -14.2477 C   0  0  0  0  0  0  0  0  0  0  0  0
    7.0470    3.9656  -13.4376 C   0  0  0  0  0  0  0  0  0  0  0  0
    7.8605    4.9518  -12.8487 C   0  0  0  0  0  0  0  0  0  0  0  0
    9.2611    4.9730  -13.0660 C   0  0  0  0  0  0  0  0  0  0  0  0
    9.5737    8.0314  -10.8507 C   0  0  0  0  0  0  0  0  0  0  0  0
    9.7614    8.3640   -9.3684 C   0  0  0  0  0  0  0  0  0  0  0  0
   10.1810    8.2085   -5.3591 H   0  0  0  0  0  0  0  0  0  0  0  0
   10.7211    6.9273   -6.4215 H   0  0  0  0  0  0  0  0  0  0  0  0
   10.9724    8.6180   -6.8630 H   0  0  0  0  0  0  0  0  0  0  0  0
    8.4874    8.9691   -7.0342 H   0  0  0  0  0  0  0  0  0  0  0  0
    8.1820    7.3238   -6.5436 H   0  0  0  0  0  0  0  0  0  0  0  0
    8.1609    5.5461   -8.3770 H   0  0  0  0  0  0  0  0  0  0  0  0
    9.8841    5.6923   -8.0591 H   0  0  0  0  0  0  0  0  0  0  0  0
    9.4881    4.6092  -10.2958 H   0  0  0  0  0  0  0  0  0  0  0  0
   11.7349    7.3181  -12.4505 H   0  0  0  0  0  0  0  0  0  0  0  0
   12.5250    8.2058  -14.6373 H   0  0  0  0  0  0  0  0  0  0  0  0
   13.6070    7.6600  -16.7981 H   0  0  0  0  0  0  0  0  0  0  0  0
   13.5367    5.3289  -17.6729 H   0  0  0  0  0  0  0  0  0  0  0  0
   12.3720    3.5537  -16.3769 H   0  0  0  0  0  0  0  0  0  0  0  0
    9.4617    2.1997  -15.0722 H   0  0  0  0  0  0  0  0  0  0  0  0
    7.0084    2.2085  -14.6960 H   0  0  0  0  0  0  0  0  0  0  0  0
    5.9808    3.9686  -13.2612 H   0  0  0  0  0  0  0  0  0  0  0  0
    7.3911    5.7053  -12.2307 H   0  0  0  0  0  0  0  0  0  0  0  0
   10.2843    8.5989  -11.4456 H   0  0  0  0  0  0  0  0  0  0  0  0
    8.5813    8.3482  -11.1732 H   0  0  0  0  0  0  0  0  0  0  0  0
    9.5405    9.4186   -9.2037 H   0  0  0  0  0  0  0  0  0  0  0  0
   10.8075    8.2084   -9.0998 H   0  0  0  0  0  0  0  0  0  0  0  0
    7.9408    7.6912   -8.8473 H   0  0  0  0  0  0  0  0  0  0  0  0
  2  1  1  0
  3  2  1  0
  4  3  1  0
  5  4  1  0
  6  5  2  0
  7  6  1  0
  8  7  2  0
  9  8  1  0
 10  9  2  0
 11 10  1  0
 12 11  2  0
 13 12  1  0
 14  9  1  0
 14 13  2  0
 15 14  1  0
 16 15  1  0
 17 16  2  0
 18 17  1  0
 19 18  2  0
 20 19  1  0
 21  7  1  0
 21 16  1  0
 21 20  2  0
 22  6  1  0
 23  3  1  0
 23 22  1  0
 24  1  1  0
 25  1  1  0
 26  1  1  0
 27  2  1  0
 28  2  1  0
 29  4  1  0
 30  4  1  0
 31  5  1  0
 32  8  1  0
 33 10  1  0
 34 11  1  0
 35 12  1  0
 36 13  1  0
 37 17  1  0
 38 18  1  0
 39 19  1  0
 40 20  1  0
 41 22  1  0
 42 22  1  0
 43 23  1  0
 44 23  1  0
  3 45  1  6
M  CHG  1   3   1
M  END
>  <b_m_subgroup_collapsed>  (804) 
0

>  <r_i_docking_score>  (804) 
-7.3111552133804096

>  <s_m_subgroup_title>  (804) 
glide-dock_SP_D22_pv

>  <s_m_subgroupid>  (804) 
glide-dock_SP_D22_pv

>  <Molecule ChEMBL ID>  (804) 
CHEMBL556969

>  <Standard Type>  (804) 
Ki

>  <Standard Value>  (804) 
61.0

>  <label>  (804) 
1

$$$$
CHEMBL2420775
     RDKit          3D

 37 39  0  0  1  0  0  0  0  0999 V2000
   12.3481    8.6809   -2.3883 F   0  0  0  0  0  0  0  0  0  0  0  0
   11.8513    8.4798   -3.6315 C   0  0  0  0  0  0  0  0  0  0  0  0
   11.3960    9.5668   -4.3968 C   0  0  0  0  0  0  0  0  0  0  0  0
   10.8842    9.3562   -5.6924 C   0  0  0  0  0  0  0  0  0  0  0  0
   10.8003    8.0516   -6.2475 C   0  0  0  0  0  0  0  0  0  0  0  0
   10.2931    7.8225   -7.5511 N   0  0  0  0  0  0  0  0  0  0  0  0
    9.4483    6.6525   -7.8048 C   0  0  0  0  0  0  0  0  0  0  0  0
    9.5443    6.2064   -9.2805 C   0  0  0  0  0  0  0  0  0  0  0  0
    9.2860    7.3268  -10.2253 N   0  0  0  0  0  0  0  0  0  0  0  0
    9.4723    6.9735  -11.6579 C   0  0  0  0  0  0  0  0  0  0  0  0
    8.6277    5.8527  -12.1809 C   0  0  0  0  0  0  0  0  0  0  0  0
    7.2590    5.7722  -12.2438 C   0  0  0  0  0  0  0  0  0  0  0  0
    6.7910    4.5921  -12.8931 C   0  0  0  0  0  0  0  0  0  0  0  0
    7.8105    3.7942  -13.3389 C   0  0  0  0  0  0  0  0  0  0  0  0
    9.3674    4.4582  -12.9277 S   0  0  0  0  0  0  0  0  0  0  0  0
   10.0730    8.5450   -9.8981 C   0  0  0  0  0  0  0  0  0  0  0  0
    9.9971    8.9539   -8.4215 C   0  0  0  0  0  0  0  0  0  0  0  0
   11.2673    6.9727   -5.4574 C   0  0  0  0  0  0  0  0  0  0  0  0
   11.7776    7.1804   -4.1611 C   0  0  0  0  0  0  0  0  0  0  0  0
   11.4298   10.5643   -3.9848 H   0  0  0  0  0  0  0  0  0  0  0  0
   10.5341   10.2229   -6.2295 H   0  0  0  0  0  0  0  0  0  0  0  0
    8.4172    6.9203   -7.5686 H   0  0  0  0  0  0  0  0  0  0  0  0
    9.6903    5.8067   -7.1653 H   0  0  0  0  0  0  0  0  0  0  0  0
    8.8315    5.4007   -9.4618 H   0  0  0  0  0  0  0  0  0  0  0  0
   10.5369    5.7977   -9.4689 H   0  0  0  0  0  0  0  0  0  0  0  0
   10.5251    6.7436  -11.8301 H   0  0  0  0  0  0  0  0  0  0  0  0
    9.2582    7.8599  -12.2563 H   0  0  0  0  0  0  0  0  0  0  0  0
    6.5799    6.5142  -11.8476 H   0  0  0  0  0  0  0  0  0  0  0  0
    5.7385    4.3808  -13.0162 H   0  0  0  0  0  0  0  0  0  0  0  0
    7.7451    2.8511  -13.8617 H   0  0  0  0  0  0  0  0  0  0  0  0
   11.1189    8.3757  -10.1608 H   0  0  0  0  0  0  0  0  0  0  0  0
    9.7208    9.3722  -10.5115 H   0  0  0  0  0  0  0  0  0  0  0  0
    9.0038    9.3390   -8.1832 H   0  0  0  0  0  0  0  0  0  0  0  0
   10.7104    9.7667   -8.2749 H   0  0  0  0  0  0  0  0  0  0  0  0
   11.2652    5.9632   -5.8358 H   0  0  0  0  0  0  0  0  0  0  0  0
   12.1226    6.3397   -3.5771 H   0  0  0  0  0  0  0  0  0  0  0  0
    8.3002    7.5656  -10.1157 H   0  0  0  0  0  0  0  0  0  0  0  0
  2  1  1  0
  3  2  1  0
  4  3  2  0
  5  4  1  0
  6  5  1  0
  7  6  1  0
  8  7  1  0
  9  8  1  0
 10  9  1  0
 11 10  1  0
 12 11  2  0
 13 12  1  0
 14 13  2  0
 15 11  1  0
 15 14  1  0
 16  9  1  0
 17  6  1  0
 17 16  1  0
 18  5  2  0
 19  2  2  0
 19 18  1  0
 20  3  1  0
 21  4  1  0
 22  7  1  0
 23  7  1  0
 24  8  1  0
 25  8  1  0
 26 10  1  0
 27 10  1  0
 28 12  1  0
 29 13  1  0
 30 14  1  0
 31 16  1  0
 32 16  1  0
 33 17  1  0
 34 17  1  0
 35 18  1  0
 36 19  1  0
 37  9  1  0
M  CHG  1   9   1
M  END
>  <b_m_subgroup_collapsed>  (805) 
0

>  <r_i_docking_score>  (805) 
-7.3109102328240603

>  <s_m_subgroup_title>  (805) 
glide-dock_SP_D22_pv

>  <s_m_subgroupid>  (805) 
glide-dock_SP_D22_pv

>  <Molecule ChEMBL ID>  (805) 
CHEMBL2420775

>  <Standard Type>  (805) 
Ki

>  <Standard Value>  (805) 
10000.0

>  <label>  (805) 
0

$$$$
CHEMBL1442422
     RDKit          3D

 44 46  0  0  1  0  0  0  0  0999 V2000
    8.6466    6.1199   -7.4449 C   0  0  0  0  0  0  0  0  0  0  0  0
    8.8860    7.1148   -8.5078 N   0  0  0  0  0  0  0  0  0  0  0  0
    9.5268    8.3425   -7.9825 C   0  0  0  0  0  0  0  0  0  0  0  0
    9.5514    6.5148   -9.6870 C   0  0  0  0  0  0  0  0  0  0  0  0
    9.6294    7.4764  -10.8904 C   0  0  0  0  0  0  0  0  0  0  0  0
   10.0038    6.7492  -12.1296 N   0  0  0  0  0  0  0  0  0  0  0  0
   11.2744    6.9722  -12.5850 C   0  0  0  0  0  0  0  0  0  0  0  0
   12.1307    7.5233  -11.8871 O   0  0  0  0  0  0  0  0  0  0  0  0
   11.6959    6.5725  -13.9731 C   0  0  0  0  0  0  0  0  0  0  0  0
   12.4859    7.4879  -14.7086 C   0  0  0  0  0  0  0  0  0  0  0  0
   12.9949    7.1547  -15.9754 C   0  0  0  0  0  0  0  0  0  0  0  0
   12.7398    5.8854  -16.5147 C   0  0  0  0  0  0  0  0  0  0  0  0
   11.9737    4.9579  -15.7867 C   0  0  0  0  0  0  0  0  0  0  0  0
   11.4412    5.2909  -14.5163 C   0  0  0  0  0  0  0  0  0  0  0  0
   10.6546    4.3729  -13.8109 N   0  0  0  0  0  0  0  0  0  0  0  0
   11.0097    2.9642  -13.9572 C   0  0  0  0  0  0  0  0  0  0  0  0
    9.3364    4.6598  -13.4292 C   0  0  0  0  0  0  0  0  0  0  0  0
    8.3042    3.7614  -13.8103 C   0  0  0  0  0  0  0  0  0  0  0  0
    6.9678    3.9787  -13.4472 C   0  0  0  0  0  0  0  0  0  0  0  0
    6.6360    5.1294  -12.7278 C   0  0  0  0  0  0  0  0  0  0  0  0
    7.6398    6.0456  -12.3808 C   0  0  0  0  0  0  0  0  0  0  0  0
    9.0146    5.8330  -12.6819 C   0  0  0  0  0  0  0  0  0  0  0  0
    9.5893    5.7726   -7.0210 H   0  0  0  0  0  0  0  0  0  0  0  0
    8.0447    6.5545   -6.6469 H   0  0  0  0  0  0  0  0  0  0  0  0
    8.0971    5.2615   -7.8353 H   0  0  0  0  0  0  0  0  0  0  0  0
   10.5648    8.1551   -7.7050 H   0  0  0  0  0  0  0  0  0  0  0  0
    9.5010    9.1482   -8.7152 H   0  0  0  0  0  0  0  0  0  0  0  0
    8.9981    8.7041   -7.0991 H   0  0  0  0  0  0  0  0  0  0  0  0
    8.9904    5.6209   -9.9637 H   0  0  0  0  0  0  0  0  0  0  0  0
   10.5526    6.1754   -9.4156 H   0  0  0  0  0  0  0  0  0  0  0  0
   10.3176    8.2853  -10.6460 H   0  0  0  0  0  0  0  0  0  0  0  0
    8.7051    8.0323  -11.0231 H   0  0  0  0  0  0  0  0  0  0  0  0
   12.7134    8.4606  -14.2979 H   0  0  0  0  0  0  0  0  0  0  0  0
   13.5866    7.8709  -16.5271 H   0  0  0  0  0  0  0  0  0  0  0  0
   13.1307    5.6195  -17.4861 H   0  0  0  0  0  0  0  0  0  0  0  0
   11.7880    3.9928  -16.2322 H   0  0  0  0  0  0  0  0  0  0  0  0
   10.5395    2.3670  -13.1773 H   0  0  0  0  0  0  0  0  0  0  0  0
   10.6968    2.5655  -14.9221 H   0  0  0  0  0  0  0  0  0  0  0  0
   12.0860    2.8346  -13.8658 H   0  0  0  0  0  0  0  0  0  0  0  0
    8.5173    2.8778  -14.3921 H   0  0  0  0  0  0  0  0  0  0  0  0
    6.2010    3.2740  -13.7350 H   0  0  0  0  0  0  0  0  0  0  0  0
    5.6100    5.3218  -12.4483 H   0  0  0  0  0  0  0  0  0  0  0  0
    7.2865    6.9095  -11.8485 H   0  0  0  0  0  0  0  0  0  0  0  0
    7.9498    7.3746   -8.8176 H   0  0  0  0  0  0  0  0  0  0  0  0
  2  1  1  0
  3  2  1  0
  4  2  1  0
  5  4  1  0
  6  5  1  0
  7  6  1  0
  8  7  2  0
  9  7  1  0
 10  9  2  0
 11 10  1  0
 12 11  2  0
 13 12  1  0
 14  9  1  0
 14 13  2  0
 15 14  1  0
 16 15  1  0
 17 15  1  0
 18 17  2  0
 19 18  1  0
 20 19  2  0
 21 20  1  0
 22  6  1  0
 22 17  1  0
 22 21  2  0
 23  1  1  0
 24  1  1  0
 25  1  1  0
 26  3  1  0
 27  3  1  0
 28  3  1  0
 29  4  1  0
 30  4  1  0
 31  5  1  0
 32  5  1  0
 33 10  1  0
 34 11  1  0
 35 12  1  0
 36 13  1  0
 37 16  1  0
 38 16  1  0
 39 16  1  0
 40 18  1  0
 41 19  1  0
 42 20  1  0
 43 21  1  0
 44  2  1  0
M  CHG  1   2   1
M  END
>  <b_m_subgroup_collapsed>  (806) 
0

>  <r_i_docking_score>  (806) 
-7.3107189362568903

>  <s_m_subgroup_title>  (806) 
glide-dock_SP_D22_pv

>  <s_m_subgroupid>  (806) 
glide-dock_SP_D22_pv

>  <Molecule ChEMBL ID>  (806) 
CHEMBL1442422

>  <Standard Type>  (806) 
Ki

>  <Standard Value>  (806) 
30200.0

>  <label>  (806) 
0

$$$$
CHEMBL5207313
     RDKit          3D

 48 51  0  0  1  0  0  0  0  0999 V2000
   11.6810    3.9280  -15.0005 C   0  0  0  0  0  0  0  0  0  0  0  0
   12.0987    5.0323  -14.2387 C   0  0  0  0  0  0  0  0  0  0  0  0
   11.1734    5.7393  -13.4473 C   0  0  0  0  0  0  0  0  0  0  0  0
    9.8081    5.3558  -13.3959 C   0  0  0  0  0  0  0  0  0  0  0  0
    8.8600    6.0471  -12.6016 N   0  0  0  0  0  0  0  0  0  0  0  0
    9.2662    7.1974  -11.7934 C   0  0  0  0  0  0  0  0  0  0  0  0
    9.8581    6.7412  -10.4391 C   0  0  0  0  0  0  0  0  0  0  0  0
    8.8860    5.9249   -9.7053 N   0  0  0  0  0  0  0  0  0  0  0  0
    9.3917    5.4501   -8.4217 C   0  0  0  0  0  0  0  0  0  0  0  0
    9.5561    6.5849   -7.3953 C   0  0  0  0  0  0  0  0  0  0  0  0
   11.0231    6.9901   -7.2024 C   0  0  0  0  0  0  0  0  0  0  0  0
   11.1716    8.0468   -6.2242 N   0  0  0  0  0  0  0  0  0  0  0  0
   11.0671    9.3721   -6.4338 C   0  0  0  0  0  0  0  0  0  0  0  0
   11.2999   10.1726   -5.3967 N   0  0  0  0  0  0  0  0  0  0  0  0
   11.6046    9.2579   -4.4029 C   0  0  0  0  0  0  0  0  0  0  0  0
   11.9909    9.4510   -3.0582 C   0  0  0  0  0  0  0  0  0  0  0  0
   12.2384    8.3462   -2.2183 C   0  0  0  0  0  0  0  0  0  0  0  0
   12.0848    7.0302   -2.7006 C   0  0  0  0  0  0  0  0  0  0  0  0
   11.6931    6.8137   -4.0353 C   0  0  0  0  0  0  0  0  0  0  0  0
   11.4853    7.9186   -4.8790 C   0  0  0  0  0  0  0  0  0  0  0  0
    8.5067    4.7760  -10.5283 C   0  0  0  0  0  0  0  0  0  0  0  0
    7.8857    5.2531  -11.8535 C   0  0  0  0  0  0  0  0  0  0  0  0
    9.4041    4.2543  -14.1912 C   0  0  0  0  0  0  0  0  0  0  0  0
   10.3299    3.5419  -14.9777 C   0  0  0  0  0  0  0  0  0  0  0  0
   12.3924    3.3833  -15.6038 H   0  0  0  0  0  0  0  0  0  0  0  0
   13.1344    5.3392  -14.2539 H   0  0  0  0  0  0  0  0  0  0  0  0
   11.5501    6.5716  -12.8743 H   0  0  0  0  0  0  0  0  0  0  0  0
    9.9591    7.8432  -12.3307 H   0  0  0  0  0  0  0  0  0  0  0  0
    8.3861    7.8152  -11.6101 H   0  0  0  0  0  0  0  0  0  0  0  0
   10.7754    6.1736  -10.5845 H   0  0  0  0  0  0  0  0  0  0  0  0
   10.1082    7.6278   -9.8583 H   0  0  0  0  0  0  0  0  0  0  0  0
    8.6599    4.7481   -8.0185 H   0  0  0  0  0  0  0  0  0  0  0  0
   10.3184    4.8896   -8.5540 H   0  0  0  0  0  0  0  0  0  0  0  0
    8.9399    7.4443   -7.6662 H   0  0  0  0  0  0  0  0  0  0  0  0
    9.1681    6.2408   -6.4357 H   0  0  0  0  0  0  0  0  0  0  0  0
   11.6119    6.1309   -6.8786 H   0  0  0  0  0  0  0  0  0  0  0  0
   11.4667    7.3289   -8.1381 H   0  0  0  0  0  0  0  0  0  0  0  0
   10.8206    9.7703   -7.4077 H   0  0  0  0  0  0  0  0  0  0  0  0
   12.0852   10.4546   -2.6685 H   0  0  0  0  0  0  0  0  0  0  0  0
   12.5303    8.5145   -1.1917 H   0  0  0  0  0  0  0  0  0  0  0  0
   12.2582    6.1862   -2.0475 H   0  0  0  0  0  0  0  0  0  0  0  0
   11.5762    5.8093   -4.4145 H   0  0  0  0  0  0  0  0  0  0  0  0
    9.3806    4.1530  -10.7203 H   0  0  0  0  0  0  0  0  0  0  0  0
    7.7749    4.1721   -9.9920 H   0  0  0  0  0  0  0  0  0  0  0  0
    7.0113    5.8725  -11.6429 H   0  0  0  0  0  0  0  0  0  0  0  0
    7.5099    4.4000  -12.4131 H   0  0  0  0  0  0  0  0  0  0  0  0
    8.3727    3.9412  -14.2249 H   0  0  0  0  0  0  0  0  0  0  0  0
   10.0001    2.7013  -15.5696 H   0  0  0  0  0  0  0  0  0  0  0  0
  2  1  2  0
  3  2  1  0
  4  3  2  0
  5  4  1  0
  6  5  1  0
  7  6  1  0
  8  7  1  0
  9  8  1  0
 10  9  1  0
 11 10  1  0
 12 11  1  0
 13 12  1  0
 14 13  2  0
 15 14  1  0
 16 15  2  0
 17 16  1  0
 18 17  2  0
 19 18  1  0
 20 12  1  0
 20 15  1  0
 20 19  2  0
 21  8  1  0
 22  5  1  0
 22 21  1  0
 23  4  1  0
 24  1  1  0
 24 23  2  0
 25  1  1  0
 26  2  1  0
 27  3  1  0
 28  6  1  0
 29  6  1  0
 30  7  1  0
 31  7  1  0
 32  9  1  0
 33  9  1  0
 34 10  1  0
 35 10  1  0
 36 11  1  0
 37 11  1  0
 38 13  1  0
 39 16  1  0
 40 17  1  0
 41 18  1  0
 42 19  1  0
 43 21  1  0
 44 21  1  0
 45 22  1  0
 46 22  1  0
 47 23  1  0
 48 24  1  0
M  END
>  <b_m_subgroup_collapsed>  (807) 
0

>  <r_i_docking_score>  (807) 
-7.3088376962865

>  <s_m_subgroup_title>  (807) 
glide-dock_SP_D22_pv

>  <s_m_subgroupid>  (807) 
glide-dock_SP_D22_pv

>  <Molecule ChEMBL ID>  (807) 
CHEMBL5207313

>  <Standard Type>  (807) 
Ki

>  <Standard Value>  (807) 
12022.64

>  <label>  (807) 
0

$$$$
CHEMBL1259071
     RDKit          3D

 47 49  0  0  1  0  0  0  0  0999 V2000
    6.4860   -0.6277  -14.8379 C   0  0  0  0  0  0  0  0  0  0  0  0
    6.3725    0.7556  -14.2379 C   0  0  0  0  0  0  0  0  0  0  0  0
    7.1943    1.8105  -14.6799 C   0  0  0  0  0  0  0  0  0  0  0  0
    7.0351    3.0802  -14.0944 C   0  0  0  0  0  0  0  0  0  0  0  0
    6.0607    3.2397  -13.0888 C   0  0  0  0  0  0  0  0  0  0  0  0
    5.8650    4.5753  -12.4050 C   0  0  0  0  0  0  0  0  0  0  0  0
    6.9580    4.8067  -11.4469 N   0  0  0  0  0  0  0  0  0  0  0  0
    7.8534    5.9292  -11.7749 C   0  0  0  0  0  0  0  0  0  0  0  0
    9.0439    6.0050  -10.7953 C   0  0  0  0  0  0  0  0  0  0  0  0
    9.6860    4.8528  -10.9692 F   0  0  0  0  0  0  0  0  0  0  0  0
    9.9604    7.1763  -11.1895 C   0  0  0  0  0  0  0  0  0  0  0  0
   11.1439    7.3677  -10.2308 C   0  0  0  0  0  0  0  0  0  0  0  0
   10.7151    7.4267   -8.8233 N   0  0  0  0  0  0  0  0  0  0  0  0
   11.0043    8.5287   -8.0964 C   0  0  0  0  0  0  0  0  0  0  0  0
   11.2860    9.5686   -8.6782 O   0  0  0  0  0  0  0  0  0  0  0  0
   11.1242    8.4979   -6.6103 C   0  0  0  0  0  0  0  0  0  0  0  0
   11.2860    7.4956   -5.6798 C   0  0  0  0  0  0  0  0  0  0  0  0
   11.6496    8.0120   -4.3984 C   0  0  0  0  0  0  0  0  0  0  0  0
   12.0860    6.9153   -2.9097 Br  0  0  0  0  0  0  0  0  0  0  0  0
   11.6652    9.3723   -4.3062 C   0  0  0  0  0  0  0  0  0  0  0  0
   11.2860   10.0782   -5.8469 S   0  0  0  0  0  0  0  0  0  0  0  0
    9.9427    6.2559   -8.3912 C   0  0  0  0  0  0  0  0  0  0  0  0
    8.6978    6.0982   -9.2880 C   0  0  0  0  0  0  0  0  0  0  0  0
    5.2860    2.2275  -12.6469 N   0  0  0  0  0  0  0  0  0  0  0  0
    5.4365    1.0150  -13.2190 C   0  0  0  0  0  0  0  0  0  0  0  0
    7.1462   -0.6277  -15.7056 H   0  0  0  0  0  0  0  0  0  0  0  0
    6.8860   -1.3256  -14.1017 H   0  0  0  0  0  0  0  0  0  0  0  0
    5.5080   -0.9895  -15.1568 H   0  0  0  0  0  0  0  0  0  0  0  0
    7.9310    1.6537  -15.4544 H   0  0  0  0  0  0  0  0  0  0  0  0
    7.6539    3.9066  -14.4108 H   0  0  0  0  0  0  0  0  0  0  0  0
    5.7932    5.3723  -13.1464 H   0  0  0  0  0  0  0  0  0  0  0  0
    4.9254    4.5723  -11.8515 H   0  0  0  0  0  0  0  0  0  0  0  0
    6.5365    4.9696  -10.5331 H   0  0  0  0  0  0  0  0  0  0  0  0
    8.2452    5.7598  -12.7790 H   0  0  0  0  0  0  0  0  0  0  0  0
    7.2967    6.8628  -11.8469 H   0  0  0  0  0  0  0  0  0  0  0  0
   10.3310    7.0425  -12.2065 H   0  0  0  0  0  0  0  0  0  0  0  0
    9.3754    8.0977  -11.1975 H   0  0  0  0  0  0  0  0  0  0  0  0
   11.8656    6.5723  -10.3032 H   0  0  0  0  0  0  0  0  0  0  0  0
   11.7065    8.2404  -10.5668 H   0  0  0  0  0  0  0  0  0  0  0  0
   11.2685    6.4345   -5.8791 H   0  0  0  0  0  0  0  0  0  0  0  0
   11.8903    9.9922   -3.4499 H   0  0  0  0  0  0  0  0  0  0  0  0
   10.5681    5.3643   -8.4365 H   0  0  0  0  0  0  0  0  0  0  0  0
    9.5942    6.3497   -7.3641 H   0  0  0  0  0  0  0  0  0  0  0  0
    8.0860    6.9723   -9.1034 H   0  0  0  0  0  0  0  0  0  0  0  0
    8.1165    5.2349   -8.9637 H   0  0  0  0  0  0  0  0  0  0  0  0
    4.7953    0.2284  -12.8494 H   0  0  0  0  0  0  0  0  0  0  0  0
    7.5084    3.9622  -11.3837 H   0  0  0  0  0  0  0  0  0  0  0  0
  2  1  1  0
  3  2  2  0
  4  3  1  0
  5  4  2  0
  6  5  1  0
  7  6  1  0
  8  7  1  0
  9  8  1  0
 10  9  1  0
 11  9  1  0
 12 11  1  0
 13 12  1  0
 14 13  1  0
 15 14  2  0
 16 14  1  0
 17 16  2  0
 18 17  1  0
 19 18  1  0
 20 18  2  0
 21 16  1  0
 21 20  1  0
 22 13  1  0
 23  9  1  0
 23 22  1  0
 24  5  1  0
 25  2  1  0
 25 24  2  0
 26  1  1  0
 27  1  1  0
 28  1  1  0
 29  3  1  0
 30  4  1  0
 31  6  1  0
 32  6  1  0
 33  7  1  0
 34  8  1  0
 35  8  1  0
 36 11  1  0
 37 11  1  0
 38 12  1  0
 39 12  1  0
 40 17  1  0
 41 20  1  0
 42 22  1  0
 43 22  1  0
 44 23  1  0
 45 23  1  0
 46 25  1  0
 47  7  1  0
M  CHG  1   7   1
M  END
>  <b_m_subgroup_collapsed>  (808) 
0

>  <r_i_docking_score>  (808) 
-7.3080907971345104

>  <s_m_subgroup_title>  (808) 
glide-dock_SP_D22_pv

>  <s_m_subgroupid>  (808) 
glide-dock_SP_D22_pv

>  <Molecule ChEMBL ID>  (808) 
CHEMBL1259071

>  <Standard Type>  (808) 
Ki

>  <Standard Value>  (808) 
73000.0

>  <label>  (808) 
0

$$$$
CHEMBL87187
     RDKit          3D

 58 62  0  0  1  0  0  0  0  0999 V2000
   12.4853    6.2485   -2.4009 N   0  0  0  0  0  0  0  0  0  0  0  0
   12.0887    7.3944   -3.0728 C   0  0  0  0  0  0  0  0  0  0  0  0
   12.1230    8.6395   -2.4267 C   0  0  0  0  0  0  0  0  0  0  0  0
   11.7105    9.7717   -3.1466 C   0  0  0  0  0  0  0  0  0  0  0  0
   11.2860    9.6133   -4.4808 C   0  0  0  0  0  0  0  0  0  0  0  0
   11.2888    8.3173   -5.0467 C   0  0  0  0  0  0  0  0  0  0  0  0
   10.8847    8.0597   -6.4426 C   0  0  0  0  0  0  0  0  0  0  0  0
   10.1569    6.9028   -6.7974 C   0  0  0  0  0  0  0  0  0  0  0  0
    9.8052    6.6488   -8.1385 C   0  0  0  0  0  0  0  0  0  0  0  0
   10.1949    7.5412   -9.1618 C   0  0  0  0  0  0  0  0  0  0  0  0
    9.9168    7.2692  -10.6357 C   0  0  0  0  0  0  0  0  0  0  0  0
    9.2316    5.9198  -10.9490 C   0  0  0  0  0  0  0  0  0  0  0  0
    9.1807    5.6490  -12.3868 N   0  0  0  0  0  0  0  0  0  0  0  0
   10.4743    5.1305  -12.8510 C   0  0  0  0  0  0  0  0  0  0  0  0
   10.4530    4.8481  -14.3620 C   0  0  0  0  0  0  0  0  0  0  0  0
    9.3701    3.9266  -14.6989 N   0  0  0  0  0  0  0  0  0  0  0  0
    9.6334    2.6273  -15.2017 C   0  0  0  0  0  0  0  0  0  0  0  0
    8.9399    1.5229  -14.6476 C   0  0  0  0  0  0  0  0  0  0  0  0
    9.1627    0.2118  -15.1022 C   0  0  0  0  0  0  0  0  0  0  0  0
   10.0863   -0.0231  -16.1290 C   0  0  0  0  0  0  0  0  0  0  0  0
   10.7767    1.0567  -16.7073 C   0  0  0  0  0  0  0  0  0  0  0  0
   11.6858    0.8031  -17.7551 C   0  0  0  0  0  0  0  0  0  0  0  0
   12.3634    1.8827  -18.3438 C   0  0  0  0  0  0  0  0  0  0  0  0
   12.0914    3.1750  -17.8688 C   0  0  0  0  0  0  0  0  0  0  0  0
   11.2148    3.4213  -16.8770 N   0  0  0  0  0  0  0  0  0  0  0  0
   10.5634    2.3965  -16.2667 C   0  0  0  0  0  0  0  0  0  0  0  0
    8.0748    4.3098  -14.1413 C   0  0  0  0  0  0  0  0  0  0  0  0
    8.1823    4.6033  -12.6310 C   0  0  0  0  0  0  0  0  0  0  0  0
   10.9043    8.7043   -8.8118 C   0  0  0  0  0  0  0  0  0  0  0  0
   11.2344    8.9660   -7.4673 C   0  0  0  0  0  0  0  0  0  0  0  0
   11.6860    7.2305   -4.3447 N   0  0  0  0  0  0  0  0  0  0  0  0
   12.5673    6.2588   -1.3968 H   0  0  0  0  0  0  0  0  0  0  0  0
   12.1980    5.3609   -2.7885 H   0  0  0  0  0  0  0  0  0  0  0  0
   12.4520    8.7368   -1.4031 H   0  0  0  0  0  0  0  0  0  0  0  0
   11.7144   10.7376   -2.6650 H   0  0  0  0  0  0  0  0  0  0  0  0
   10.9625   10.4690   -5.0538 H   0  0  0  0  0  0  0  0  0  0  0  0
    9.8772    6.1761   -6.0452 H   0  0  0  0  0  0  0  0  0  0  0  0
    9.2510    5.7490   -8.3578 H   0  0  0  0  0  0  0  0  0  0  0  0
   10.8717    7.3469  -11.1548 H   0  0  0  0  0  0  0  0  0  0  0  0
    9.2948    8.0817  -11.0167 H   0  0  0  0  0  0  0  0  0  0  0  0
    8.2161    5.9633  -10.5481 H   0  0  0  0  0  0  0  0  0  0  0  0
    9.7344    5.0927  -10.4452 H   0  0  0  0  0  0  0  0  0  0  0  0
   10.7201    4.2120  -12.3181 H   0  0  0  0  0  0  0  0  0  0  0  0
   11.2682    5.8470  -12.6468 H   0  0  0  0  0  0  0  0  0  0  0  0
   11.4277    4.4428  -14.6295 H   0  0  0  0  0  0  0  0  0  0  0  0
   10.3227    5.7721  -14.9242 H   0  0  0  0  0  0  0  0  0  0  0  0
    8.2311    1.6656  -13.8476 H   0  0  0  0  0  0  0  0  0  0  0  0
    8.6132   -0.6184  -14.6757 H   0  0  0  0  0  0  0  0  0  0  0  0
   10.2467   -1.0337  -16.4765 H   0  0  0  0  0  0  0  0  0  0  0  0
   11.8678   -0.2043  -18.1034 H   0  0  0  0  0  0  0  0  0  0  0  0
   13.0718    1.7289  -19.1416 H   0  0  0  0  0  0  0  0  0  0  0  0
   12.5832    4.0352  -18.2987 H   0  0  0  0  0  0  0  0  0  0  0  0
    7.7427    5.2139  -14.6457 H   0  0  0  0  0  0  0  0  0  0  0  0
    7.3071    3.5609  -14.3357 H   0  0  0  0  0  0  0  0  0  0  0  0
    8.4508    3.7030  -12.0805 H   0  0  0  0  0  0  0  0  0  0  0  0
    7.2082    4.9282  -12.2604 H   0  0  0  0  0  0  0  0  0  0  0  0
   11.2140    9.4010   -9.5768 H   0  0  0  0  0  0  0  0  0  0  0  0
   11.7959    9.8523   -7.2230 H   0  0  0  0  0  0  0  0  0  0  0  0
  2  1  1  0
  3  2  2  0
  4  3  1  0
  5  4  2  0
  6  5  1  0
  7  6  1  0
  8  7  1  0
  9  8  2  0
 10  9  1  0
 11 10  1  0
 12 11  1  0
 13 12  1  0
 14 13  1  0
 15 14  1  0
 16 15  1  0
 17 16  1  0
 18 17  1  0
 19 18  2  0
 20 19  1  0
 21 20  2  0
 22 21  1  0
 23 22  2  0
 24 23  1  0
 25 24  2  0
 26 17  2  0
 26 21  1  0
 26 25  1  0
 27 16  1  0
 28 13  1  0
 28 27  1  0
 29 10  2  0
 30  7  2  0
 30 29  1  0
 31  2  1  0
 31  6  2  0
 32  1  1  0
 33  1  1  0
 34  3  1  0
 35  4  1  0
 36  5  1  0
 37  8  1  0
 38  9  1  0
 39 11  1  0
 40 11  1  0
 41 12  1  0
 42 12  1  0
 43 14  1  0
 44 14  1  0
 45 15  1  0
 46 15  1  0
 47 18  1  0
 48 19  1  0
 49 20  1  0
 50 22  1  0
 51 23  1  0
 52 24  1  0
 53 27  1  0
 54 27  1  0
 55 28  1  0
 56 28  1  0
 57 29  1  0
 58 30  1  0
M  END
>  <b_m_subgroup_collapsed>  (809) 
0

>  <r_i_docking_score>  (809) 
-7.3030448662841696

>  <s_m_subgroup_title>  (809) 
glide-dock_SP_D22_pv

>  <s_m_subgroupid>  (809) 
glide-dock_SP_D22_pv

>  <Molecule ChEMBL ID>  (809) 
CHEMBL87187

>  <Standard Type>  (809) 
Ki

>  <Standard Value>  (809) 
11.0

>  <label>  (809) 
1

$$$$
CHEMBL93570
     RDKit          3D

 42 44  0  0  1  0  0  0  0  0999 V2000
    7.3687    4.8245  -12.9074 C   0  0  0  0  0  0  0  0  0  0  0  0
    8.8059    4.3612  -12.6428 C   0  0  0  0  0  0  0  0  0  0  0  0
    9.7921    5.4790  -12.4852 C   0  0  0  0  0  0  0  0  0  0  0  0
   10.9772    5.6568  -13.7569 S   0  0  0  0  0  0  0  0  0  0  0  0
   11.6860    7.0299  -12.9785 C   0  0  0  0  0  0  0  0  0  0  0  0
   11.0395    7.3446  -11.8144 C   0  0  0  0  0  0  0  0  0  0  0  0
    9.9816    6.4239  -11.4839 C   0  0  0  0  0  0  0  0  0  0  0  0
    9.2864    6.5565  -10.1219 N   0  0  1  0  0  0  0  0  0  0  0  0
    8.8625    5.2315   -9.5910 C   0  0  0  0  0  0  0  0  0  0  0  0
    8.2522    5.2782   -8.1945 C   0  0  0  0  0  0  0  0  0  0  0  0
    9.1484    5.9762   -7.1991 C   0  0  0  0  0  0  0  0  0  0  0  0
    9.5462    7.3655   -7.6706 C   0  0  1  0  0  0  0  0  0  0  0  0
   10.5089    8.0367   -6.6748 C   0  0  0  0  0  0  0  0  0  0  0  0
   11.0293    9.3126   -6.9700 C   0  0  0  0  0  0  0  0  0  0  0  0
   11.8710    9.9810   -6.0595 C   0  0  0  0  0  0  0  0  0  0  0  0
   12.2169    9.3722   -4.8404 C   0  0  0  0  0  0  0  0  0  0  0  0
   11.7228    8.0940   -4.5324 C   0  0  0  0  0  0  0  0  0  0  0  0
   12.0858    7.4674   -3.2710 C   0  0  0  0  0  0  0  0  0  0  0  0
   12.3726    6.9710   -2.2661 N   0  0  0  0  0  0  0  0  0  0  0  0
   10.8848    7.4279   -5.4469 C   0  0  0  0  0  0  0  0  0  0  0  0
   10.1184    7.2941   -9.1107 C   0  0  0  0  0  0  0  0  0  0  0  0
    6.6939    3.9716  -12.9801 H   0  0  0  0  0  0  0  0  0  0  0  0
    7.3143    5.3701  -13.8466 H   0  0  0  0  0  0  0  0  0  0  0  0
    6.9935    5.4806  -12.1202 H   0  0  0  0  0  0  0  0  0  0  0  0
    8.8656    3.6833  -11.8000 H   0  0  0  0  0  0  0  0  0  0  0  0
    9.1057    3.7401  -13.4874 H   0  0  0  0  0  0  0  0  0  0  0  0
   12.5327    7.5262  -13.4310 H   0  0  0  0  0  0  0  0  0  0  0  0
   11.3548    8.1765  -11.2048 H   0  0  0  0  0  0  0  0  0  0  0  0
    8.0787    4.8219  -10.2170 H   0  0  0  0  0  0  0  0  0  0  0  0
    9.7076    4.5410   -9.6067 H   0  0  0  0  0  0  0  0  0  0  0  0
    7.2880    5.7723   -8.2166 H   0  0  0  0  0  0  0  0  0  0  0  0
    8.0770    4.2617   -7.8476 H   0  0  0  0  0  0  0  0  0  0  0  0
    8.6228    6.0601   -6.2478 H   0  0  0  0  0  0  0  0  0  0  0  0
   10.0433    5.3733   -7.0511 H   0  0  0  0  0  0  0  0  0  0  0  0
    8.6412    7.9774   -7.6967 H   0  0  0  0  0  0  0  0  0  0  0  0
   10.7775    9.7724   -7.9075 H   0  0  0  0  0  0  0  0  0  0  0  0
   12.2601   10.9596   -6.2966 H   0  0  0  0  0  0  0  0  0  0  0  0
   12.8698    9.8779   -4.1441 H   0  0  0  0  0  0  0  0  0  0  0  0
   10.5266    6.4497   -5.1614 H   0  0  0  0  0  0  0  0  0  0  0  0
   11.1106    6.8386   -9.0734 H   0  0  0  0  0  0  0  0  0  0  0  0
   10.2329    8.3197   -9.4568 H   0  0  0  0  0  0  0  0  0  0  0  0
    8.4203    7.0824  -10.2349 H   0  0  0  0  0  0  0  0  0  0  0  0
  2  1  1  0
  3  2  1  0
  4  3  1  0
  5  4  1  0
  6  5  2  0
  7  3  2  0
  7  6  1  0
  8  7  1  0
  9  8  1  0
 10  9  1  0
 11 10  1  0
 12 11  1  0
 13 12  1  0
 14 13  2  0
 15 14  1  0
 16 15  2  0
 17 16  1  0
 18 17  1  0
 19 18  3  0
 20 13  1  0
 20 17  2  0
 21  8  1  0
 21 12  1  0
 22  1  1  0
 23  1  1  0
 24  1  1  0
 25  2  1  0
 26  2  1  0
 27  5  1  0
 28  6  1  0
 29  9  1  0
 30  9  1  0
 31 10  1  0
 32 10  1  0
 33 11  1  0
 34 11  1  0
 12 35  1  6
 36 14  1  0
 37 15  1  0
 38 16  1  0
 39 20  1  0
 40 21  1  0
 41 21  1  0
  8 42  1  6
M  CHG  1   8   1
M  END
>  <b_m_subgroup_collapsed>  (810) 
0

>  <r_i_docking_score>  (810) 
-7.3016195786724696

>  <s_m_subgroup_title>  (810) 
glide-dock_SP_D22_pv

>  <s_m_subgroupid>  (810) 
glide-dock_SP_D22_pv

>  <Molecule ChEMBL ID>  (810) 
CHEMBL93570

>  <Standard Type>  (810) 
Ki

>  <Standard Value>  (810) 
11.0

>  <label>  (810) 
1

$$$$
CHEMBL544055
     RDKit          3D

 39 41  0  0  1  0  0  0  0  0999 V2000
    6.6662    5.2685  -11.9775 C   0  0  0  0  0  0  0  0  0  0  0  0
    8.0309    5.7699  -11.6994 N   0  0  2  0  0  0  0  0  0  0  0  0
    8.3827    5.6309  -10.2636 C   0  0  0  0  0  0  0  0  0  0  0  0
    9.8064    6.1202   -9.9882 C   0  0  0  0  0  0  0  0  0  0  0  0
   10.0017    7.5967  -10.4191 C   0  0  2  0  0  0  0  0  0  0  0  0
    9.6417    7.6947  -11.9147 C   0  0  0  0  0  0  0  0  0  0  0  0
    8.2456    7.1409  -12.2353 C   0  0  0  0  0  0  0  0  0  0  0  0
   11.4342    8.1164  -10.2184 C   0  0  0  0  0  0  0  0  0  0  0  0
   11.7669    8.2154   -8.7391 C   0  0  0  0  0  0  0  0  0  0  0  0
   12.9417    8.1723   -8.3997 O   0  0  0  0  0  0  0  0  0  0  0  0
   10.6593    8.4106   -7.7884 C   0  0  0  0  0  0  0  0  0  0  0  0
   10.9175    8.4784   -6.3417 C   0  0  0  0  0  0  0  0  0  0  0  0
   11.2858    7.3022   -5.6520 C   0  0  0  0  0  0  0  0  0  0  0  0
   11.6860    7.3678   -4.3022 C   0  0  0  0  0  0  0  0  0  0  0  0
   11.6938    8.6062   -3.6332 C   0  0  0  0  0  0  0  0  0  0  0  0
   12.0878    8.6740   -2.3394 F   0  0  0  0  0  0  0  0  0  0  0  0
   11.2861    9.7726   -4.3081 C   0  0  0  0  0  0  0  0  0  0  0  0
   10.9047    9.7151   -5.6637 C   0  0  0  0  0  0  0  0  0  0  0  0
    9.4298    8.5833   -8.3191 C   0  0  0  0  0  0  0  0  0  0  0  0
    9.1294    8.4413   -9.6590 O   0  0  0  0  0  0  0  0  0  0  0  0
    5.9137    5.8530  -11.4471 H   0  0  0  0  0  0  0  0  0  0  0  0
    6.4444    5.3173  -13.0439 H   0  0  0  0  0  0  0  0  0  0  0  0
    6.5648    4.2294  -11.6622 H   0  0  0  0  0  0  0  0  0  0  0  0
    8.2986    4.5821   -9.9755 H   0  0  0  0  0  0  0  0  0  0  0  0
    7.6862    6.1723   -9.6298 H   0  0  0  0  0  0  0  0  0  0  0  0
   10.4859    5.4863  -10.5447 H   0  0  0  0  0  0  0  0  0  0  0  0
   10.0410    5.9615   -8.9362 H   0  0  0  0  0  0  0  0  0  0  0  0
    9.6852    8.7330  -12.2416 H   0  0  0  0  0  0  0  0  0  0  0  0
   10.3839    7.1534  -12.5033 H   0  0  0  0  0  0  0  0  0  0  0  0
    8.0857    7.1166  -13.3121 H   0  0  0  0  0  0  0  0  0  0  0  0
    7.5212    7.8466  -11.8505 H   0  0  0  0  0  0  0  0  0  0  0  0
   11.5464    9.1111  -10.6499 H   0  0  0  0  0  0  0  0  0  0  0  0
   12.1550    7.4645  -10.7122 H   0  0  0  0  0  0  0  0  0  0  0  0
   11.3041    6.3519   -6.1670 H   0  0  0  0  0  0  0  0  0  0  0  0
   11.9873    6.4695   -3.7833 H   0  0  0  0  0  0  0  0  0  0  0  0
   11.2855   10.7151   -3.7839 H   0  0  0  0  0  0  0  0  0  0  0  0
   10.6369   10.6214   -6.1863 H   0  0  0  0  0  0  0  0  0  0  0  0
    8.5410    8.7637   -7.7311 H   0  0  0  0  0  0  0  0  0  0  0  0
    8.6659    5.1663  -12.2005 H   0  0  0  0  0  0  0  0  0  0  0  0
  2  1  1  0
  3  2  1  0
  4  3  1  0
  5  4  1  0
  6  5  1  0
  7  2  1  0
  7  6  1  0
  8  5  1  0
  9  8  1  0
 10  9  2  0
 11  9  1  0
 12 11  1  0
 13 12  1  0
 14 13  2  0
 15 14  1  0
 16 15  1  0
 17 15  2  0
 18 12  2  0
 18 17  1  0
 19 11  2  0
  5 20  1  1
 20 19  1  0
 21  1  1  0
 22  1  1  0
 23  1  1  0
 24  3  1  0
 25  3  1  0
 26  4  1  0
 27  4  1  0
 28  6  1  0
 29  6  1  0
 30  7  1  0
 31  7  1  0
 32  8  1  0
 33  8  1  0
 34 13  1  0
 35 14  1  0
 36 17  1  0
 37 18  1  0
 38 19  1  0
  2 39  1  6
M  CHG  1   2   1
M  END
>  <b_m_subgroup_collapsed>  (811) 
0

>  <r_i_docking_score>  (811) 
-7.3003571946412196

>  <s_m_subgroup_title>  (811) 
glide-dock_SP_D22_pv

>  <s_m_subgroupid>  (811) 
glide-dock_SP_D22_pv

>  <Molecule ChEMBL ID>  (811) 
CHEMBL544055

>  <Standard Type>  (811) 
Ki

>  <Standard Value>  (811) 
100000.0

>  <label>  (811) 
0

$$$$
CHEMBL3695362
     RDKit          3D

 63 66  0  0  1  0  0  0  0  0999 V2000
    4.8223   -1.8264  -16.3351 C   0  0  0  0  0  0  0  0  0  0  0  0
    5.7922   -0.6499  -16.5385 C   0  0  0  0  0  0  0  0  0  0  0  0
    6.0882    0.1252  -15.2515 C   0  0  0  0  0  0  0  0  0  0  0  0
    5.5994   -0.2291  -14.1764 O   0  0  0  0  0  0  0  0  0  0  0  0
    6.8879    1.2006  -15.3741 N   0  0  0  0  0  0  0  0  0  0  0  0
    7.2878    2.0536  -14.2583 C   0  0  1  0  0  0  0  0  0  0  0  0
    8.5953    2.8138  -14.5589 C   0  0  0  0  0  0  0  0  0  0  0  0
    9.0066    3.7309  -13.3878 C   0  0  0  0  0  0  0  0  0  0  0  0
    7.8767    4.7138  -13.0079 C   0  0  2  0  0  0  0  0  0  0  0  0
    8.2674    5.7286  -11.9064 C   0  0  0  0  0  0  0  0  0  0  0  0
    8.5500    5.1274  -10.5091 C   0  0  0  0  0  0  0  0  0  0  0  0
    8.8679    6.1528   -9.4759 N   0  0  2  0  0  0  0  0  0  0  0  0
   10.2571    6.6484   -9.6210 C   0  0  0  0  0  0  0  0  0  0  0  0
   10.6452    7.6741   -8.5476 C   0  0  0  0  0  0  0  0  0  0  0  0
   10.4574    7.0988   -7.1268 C   0  0  1  0  0  0  0  0  0  0  0  0
   10.8398    8.0631   -6.0039 C   0  0  0  0  0  0  0  0  0  0  0  0
   10.5993    9.4421   -6.1500 C   0  0  0  0  0  0  0  0  0  0  0  0
   10.8901   10.3391   -5.1101 C   0  0  0  0  0  0  0  0  0  0  0  0
   11.4512    9.8937   -3.9065 C   0  0  0  0  0  0  0  0  0  0  0  0
   11.6862    8.5325   -3.7644 C   0  0  0  0  0  0  0  0  0  0  0  0
   12.1703    7.9010   -2.6423 O   0  0  0  0  0  0  0  0  0  0  0  0
   12.1351    6.5722   -2.9216 C   0  0  0  0  0  0  0  0  0  0  0  0
   11.6860    6.3289   -4.1961 C   0  0  0  0  0  0  0  0  0  0  0  0
   11.3738    7.5871   -4.7759 C   0  0  0  0  0  0  0  0  0  0  0  0
    9.0005    6.6383   -6.9997 C   0  0  0  0  0  0  0  0  0  0  0  0
    8.6297    5.6305   -8.1013 C   0  0  0  0  0  0  0  0  0  0  0  0
    6.5687    3.9577  -12.6962 C   0  0  0  0  0  0  0  0  0  0  0  0
    6.1583    3.0287  -13.8508 C   0  0  0  0  0  0  0  0  0  0  0  0
    4.6336   -2.3433  -17.2755 H   0  0  0  0  0  0  0  0  0  0  0  0
    5.2275   -2.5603  -15.6367 H   0  0  0  0  0  0  0  0  0  0  0  0
    3.8586   -1.4928  -15.9469 H   0  0  0  0  0  0  0  0  0  0  0  0
    5.3769    0.0398  -17.2744 H   0  0  0  0  0  0  0  0  0  0  0  0
    6.7339   -1.0218  -16.9447 H   0  0  0  0  0  0  0  0  0  0  0  0
    7.2571    1.4204  -16.2867 H   0  0  0  0  0  0  0  0  0  0  0  0
    7.4886    1.3640  -13.4471 H   0  0  0  0  0  0  0  0  0  0  0  0
    8.4856    3.4146  -15.4613 H   0  0  0  0  0  0  0  0  0  0  0  0
    9.3977    2.1031  -14.7614 H   0  0  0  0  0  0  0  0  0  0  0  0
    9.9021    4.2875  -13.6650 H   0  0  0  0  0  0  0  0  0  0  0  0
    9.2863    3.1160  -12.5329 H   0  0  0  0  0  0  0  0  0  0  0  0
    7.6856    5.3128  -13.8989 H   0  0  0  0  0  0  0  0  0  0  0  0
    7.4669    6.4653  -11.8252 H   0  0  0  0  0  0  0  0  0  0  0  0
    9.1370    6.2838  -12.2561 H   0  0  0  0  0  0  0  0  0  0  0  0
    9.3616    4.4013  -10.5647 H   0  0  0  0  0  0  0  0  0  0  0  0
    7.6861    4.5616  -10.1757 H   0  0  0  0  0  0  0  0  0  0  0  0
   10.4220    7.0739  -10.6105 H   0  0  0  0  0  0  0  0  0  0  0  0
   10.8869    5.7742   -9.5262 H   0  0  0  0  0  0  0  0  0  0  0  0
   10.0278    8.5573   -8.7080 H   0  0  0  0  0  0  0  0  0  0  0  0
   11.6821    7.9830   -8.6898 H   0  0  0  0  0  0  0  0  0  0  0  0
   11.1062    6.2262   -7.0306 H   0  0  0  0  0  0  0  0  0  0  0  0
   10.1509    9.8335   -7.0470 H   0  0  0  0  0  0  0  0  0  0  0  0
   10.6645   11.3725   -5.2411 H   0  0  0  0  0  0  0  0  0  0  0  0
   11.6735   10.5725   -3.0955 H   0  0  0  0  0  0  0  0  0  0  0  0
   12.4611    5.9190   -2.1243 H   0  0  0  0  0  0  0  0  0  0  0  0
   11.5548    5.3738   -4.6683 H   0  0  0  0  0  0  0  0  0  0  0  0
    8.8505    6.1738   -6.0253 H   0  0  0  0  0  0  0  0  0  0  0  0
    8.3275    7.4968   -7.0417 H   0  0  0  0  0  0  0  0  0  0  0  0
    7.5829    5.3724   -7.9808 H   0  0  0  0  0  0  0  0  0  0  0  0
    9.1979    4.7097   -7.9629 H   0  0  0  0  0  0  0  0  0  0  0  0
    6.6712    3.3723  -11.7844 H   0  0  0  0  0  0  0  0  0  0  0  0
    5.7654    4.6705  -12.5031 H   0  0  0  0  0  0  0  0  0  0  0  0
    5.8718    3.6422  -14.7035 H   0  0  0  0  0  0  0  0  0  0  0  0
    5.2672    2.4717  -13.5602 H   0  0  0  0  0  0  0  0  0  0  0  0
    8.2161    6.9223   -9.6112 H   0  0  0  0  0  0  0  0  0  0  0  0
  2  1  1  0
  3  2  1  0
  4  3  2  0
  5  3  1  0
  6  5  1  0
  7  6  1  0
  8  7  1  0
  9  8  1  0
 10  9  1  0
 11 10  1  0
 12 11  1  0
 13 12  1  0
 14 13  1  0
 15 14  1  0
 16 15  1  0
 17 16  1  0
 18 17  2  0
 19 18  1  0
 20 19  2  0
 21 20  1  0
 22 21  1  0
 23 22  2  0
 24 16  2  0
 24 20  1  0
 24 23  1  0
 25 15  1  0
 26 12  1  0
 26 25  1  0
 27  9  1  0
 28  6  1  0
 28 27  1  0
 29  1  1  0
 30  1  1  0
 31  1  1  0
 32  2  1  0
 33  2  1  0
 34  5  1  0
  6 35  1  1
 36  7  1  0
 37  7  1  0
 38  8  1  0
 39  8  1  0
  9 40  1  6
 41 10  1  0
 42 10  1  0
 43 11  1  0
 44 11  1  0
 45 13  1  0
 46 13  1  0
 47 14  1  0
 48 14  1  0
 15 49  1  6
 50 17  1  0
 51 18  1  0
 52 19  1  0
 53 22  1  0
 54 23  1  0
 55 25  1  0
 56 25  1  0
 57 26  1  0
 58 26  1  0
 59 27  1  0
 60 27  1  0
 61 28  1  0
 62 28  1  0
 12 63  1  6
M  CHG  1  12   1
M  END
>  <b_m_subgroup_collapsed>  (812) 
0

>  <r_i_docking_score>  (812) 
-7.2997581559803102

>  <s_m_subgroup_title>  (812) 
glide-dock_SP_D22_pv

>  <s_m_subgroupid>  (812) 
glide-dock_SP_D22_pv

>  <Molecule ChEMBL ID>  (812) 
CHEMBL3695362

>  <Standard Type>  (812) 
Ki

>  <Standard Value>  (812) 
91.9

>  <label>  (812) 
1

$$$$
CHEMBL4104013
     RDKit          3D

 54 58  0  0  1  0  0  0  0  0999 V2000
   11.2696    9.0999   -8.2608 O   0  0  0  0  0  0  0  0  0  0  0  0
   11.3052    9.0893   -7.0295 C   0  0  0  0  0  0  0  0  0  0  0  0
   11.7880   10.3503   -6.2907 C   0  0  0  0  0  0  0  0  0  0  0  0
   11.2867   10.3998   -4.9611 O   0  0  0  0  0  0  0  0  0  0  0  0
   11.5534    9.2607   -4.2520 C   0  0  0  0  0  0  0  0  0  0  0  0
   11.9685    9.3474   -2.9118 C   0  0  0  0  0  0  0  0  0  0  0  0
   12.2358    8.1732   -2.1874 C   0  0  0  0  0  0  0  0  0  0  0  0
   12.0871    6.9184   -2.8054 C   0  0  0  0  0  0  0  0  0  0  0  0
   11.6860    6.8311   -4.1537 C   0  0  0  0  0  0  0  0  0  0  0  0
   11.4082    8.0063   -4.8924 C   0  0  0  0  0  0  0  0  0  0  0  0
   11.0161    8.0000   -6.2727 N   0  0  0  0  0  0  0  0  0  0  0  0
   10.4668    6.7925   -6.9187 C   0  0  0  0  0  0  0  0  0  0  0  0
    9.0899    7.0269   -7.5857 C   0  0  0  0  0  0  0  0  0  0  0  0
    8.6674    5.9265   -8.5786 C   0  0  0  0  0  0  0  0  0  0  0  0
    8.8861    6.3431   -9.9649 N   0  0  0  0  0  0  0  0  0  0  0  0
   10.2768    6.1721  -10.3441 C   0  0  0  0  0  0  0  0  0  0  0  0
   10.5216    6.6666  -11.7807 C   0  0  0  0  0  0  0  0  0  0  0  0
    9.6692    5.9322  -12.7084 N   0  0  0  0  0  0  0  0  0  0  0  0
   10.1988    4.9884  -13.6245 C   0  0  0  0  0  0  0  0  0  0  0  0
   11.5189    5.1434  -14.1356 C   0  0  0  0  0  0  0  0  0  0  0  0
   12.0841    4.2291  -15.0594 C   0  0  0  0  0  0  0  0  0  0  0  0
   11.3455    3.1209  -15.5176 C   0  0  0  0  0  0  0  0  0  0  0  0
   10.0465    2.9860  -15.0189 C   0  0  0  0  0  0  0  0  0  0  0  0
    9.0892    2.0259  -15.2967 N   0  0  0  0  0  0  0  0  0  0  0  0
    7.9396    2.3094  -14.5808 C   0  0  0  0  0  0  0  0  0  0  0  0
    6.8823    1.6872  -14.5753 O   0  0  0  0  0  0  0  0  0  0  0  0
    8.2065    3.4375  -13.8504 O   0  0  0  0  0  0  0  0  0  0  0  0
    9.4799    3.8660  -14.1135 C   0  0  0  0  0  0  0  0  0  0  0  0
    8.2608    6.0412  -12.3400 C   0  0  0  0  0  0  0  0  0  0  0  0
    8.0508    5.5623  -10.8896 C   0  0  0  0  0  0  0  0  0  0  0  0
   11.4689   11.2513   -6.8099 H   0  0  0  0  0  0  0  0  0  0  0  0
   12.8795   10.3604   -6.2664 H   0  0  0  0  0  0  0  0  0  0  0  0
   12.0850   10.3116   -2.4408 H   0  0  0  0  0  0  0  0  0  0  0  0
   12.5522    8.2396   -1.1573 H   0  0  0  0  0  0  0  0  0  0  0  0
   12.2912    6.0148   -2.2484 H   0  0  0  0  0  0  0  0  0  0  0  0
   11.6175    5.8472   -4.5914 H   0  0  0  0  0  0  0  0  0  0  0  0
   11.2076    6.4193   -7.6225 H   0  0  0  0  0  0  0  0  0  0  0  0
   10.3219    5.9868   -6.2097 H   0  0  0  0  0  0  0  0  0  0  0  0
    8.3450    7.0738   -6.7904 H   0  0  0  0  0  0  0  0  0  0  0  0
    9.0113    7.9943   -8.0803 H   0  0  0  0  0  0  0  0  0  0  0  0
    9.1397    4.9675   -8.3592 H   0  0  0  0  0  0  0  0  0  0  0  0
    7.6016    5.7725   -8.4393 H   0  0  0  0  0  0  0  0  0  0  0  0
   10.9332    6.7251   -9.6764 H   0  0  0  0  0  0  0  0  0  0  0  0
   10.4860    5.1100  -10.2479 H   0  0  0  0  0  0  0  0  0  0  0  0
   10.2886    7.7304  -11.8508 H   0  0  0  0  0  0  0  0  0  0  0  0
   11.5794    6.5746  -12.0053 H   0  0  0  0  0  0  0  0  0  0  0  0
   12.1308    5.9870  -13.8565 H   0  0  0  0  0  0  0  0  0  0  0  0
   13.0886    4.3856  -15.4222 H   0  0  0  0  0  0  0  0  0  0  0  0
   11.7609    2.4166  -16.2228 H   0  0  0  0  0  0  0  0  0  0  0  0
    9.1798    1.2376  -15.9184 H   0  0  0  0  0  0  0  0  0  0  0  0
    7.9776    7.0937  -12.4022 H   0  0  0  0  0  0  0  0  0  0  0  0
    7.5927    5.5329  -13.0298 H   0  0  0  0  0  0  0  0  0  0  0  0
    8.2628    4.4960  -10.8002 H   0  0  0  0  0  0  0  0  0  0  0  0
    7.0012    5.7107  -10.6470 H   0  0  0  0  0  0  0  0  0  0  0  0
  2  1  2  0
  3  2  1  0
  4  3  1  0
  5  4  1  0
  6  5  2  0
  7  6  1  0
  8  7  2  0
  9  8  1  0
 10  5  1  0
 10  9  2  0
 11  2  1  0
 11 10  1  0
 12 11  1  0
 13 12  1  0
 14 13  1  0
 15 14  1  0
 16 15  1  0
 17 16  1  0
 18 17  1  0
 19 18  1  0
 20 19  1  0
 21 20  2  0
 22 21  1  0
 23 22  2  0
 24 23  1  0
 25 24  1  0
 26 25  2  0
 27 25  1  0
 28 19  2  0
 28 23  1  0
 28 27  1  0
 29 18  1  0
 30 15  1  0
 30 29  1  0
 31  3  1  0
 32  3  1  0
 33  6  1  0
 34  7  1  0
 35  8  1  0
 36  9  1  0
 37 12  1  0
 38 12  1  0
 39 13  1  0
 40 13  1  0
 41 14  1  0
 42 14  1  0
 43 16  1  0
 44 16  1  0
 45 17  1  0
 46 17  1  0
 47 20  1  0
 48 21  1  0
 49 22  1  0
 50 24  1  0
 51 29  1  0
 52 29  1  0
 53 30  1  0
 54 30  1  0
M  END
>  <b_m_subgroup_collapsed>  (813) 
0

>  <r_i_docking_score>  (813) 
-7.2975261730898504

>  <s_m_subgroup_title>  (813) 
glide-dock_SP_D22_pv

>  <s_m_subgroupid>  (813) 
glide-dock_SP_D22_pv

>  <Molecule ChEMBL ID>  (813) 
CHEMBL4104013

>  <Standard Type>  (813) 
Ki

>  <Standard Value>  (813) 
1.738

>  <label>  (813) 
1

$$$$
CHEMBL240023
     RDKit          3D

 63 66  0  0  1  0  0  0  0  0999 V2000
   13.3193    5.7135  -15.5480 C   0  0  0  0  0  0  0  0  0  0  0  0
   12.6389    4.3433  -15.6466 C   0  0  0  0  0  0  0  0  0  0  0  0
   11.1245    4.4539  -15.8872 C   0  0  0  0  0  0  0  0  0  0  0  0
   10.5377    3.1720  -16.0738 O   0  0  0  0  0  0  0  0  0  0  0  0
   10.2491    2.4262  -14.8938 C   0  0  2  0  0  0  0  0  0  0  0  0
   10.3396    0.9434  -15.2851 C   0  0  0  0  0  0  0  0  0  0  0  0
    9.1649    0.5405  -16.1828 C   0  0  0  0  0  0  0  0  0  0  0  0
    7.8137    0.7429  -15.4821 C   0  0  0  0  0  0  0  0  0  0  0  0
    7.7307    1.9968  -14.6199 C   0  0  0  0  0  0  0  0  0  0  0  0
    6.4859    2.3343  -14.0451 C   0  0  0  0  0  0  0  0  0  0  0  0
    6.3654    3.4262  -13.1647 C   0  0  0  0  0  0  0  0  0  0  0  0
    7.5129    4.1723  -12.8484 C   0  0  0  0  0  0  0  0  0  0  0  0
    7.4522    5.1899  -11.8491 N   0  0  0  0  0  0  0  0  0  0  0  0
    8.2187    6.2765  -12.0224 C   0  0  0  0  0  0  0  0  0  0  0  0
    8.8866    6.8721  -11.0185 N   0  0  0  0  0  0  0  0  0  0  0  0
    9.5212    8.1756  -11.2747 C   0  0  0  0  0  0  0  0  0  0  0  0
   10.8768    8.2946  -10.5716 C   0  0  0  0  0  0  0  0  0  0  0  0
   10.7584    7.9621   -9.1030 C   0  0  0  0  0  0  0  0  0  0  0  0
   11.5537    8.6460   -8.1691 C   0  0  0  0  0  0  0  0  0  0  0  0
   11.4010    8.4205   -6.7912 C   0  0  0  0  0  0  0  0  0  0  0  0
   12.1130    9.2211   -5.9328 O   0  0  0  0  0  0  0  0  0  0  0  0
   11.3480    9.9400   -4.9743 C   0  0  0  0  0  0  0  0  0  0  0  0
   10.5531    7.3717   -6.3560 C   0  0  0  0  0  0  0  0  0  0  0  0
   10.4858    6.9724   -5.0474 O   0  0  0  0  0  0  0  0  0  0  0  0
   11.7054    6.5666   -4.4580 C   0  0  0  0  0  0  0  0  0  0  0  0
    9.7378    6.7021   -7.2916 C   0  0  0  0  0  0  0  0  0  0  0  0
    9.8205    7.0061   -8.6642 C   0  0  0  0  0  0  0  0  0  0  0  0
    8.9186    6.2884   -9.6563 C   0  0  0  0  0  0  0  0  0  0  0  0
    8.7588    3.8666  -13.4297 C   0  0  0  0  0  0  0  0  0  0  0  0
    8.8786    2.7771  -14.3189 C   0  0  0  0  0  0  0  0  0  0  0  0
   14.3992    5.6052  -15.4441 H   0  0  0  0  0  0  0  0  0  0  0  0
   13.1338    6.3129  -16.4400 H   0  0  0  0  0  0  0  0  0  0  0  0
   12.9567    6.2729  -14.6854 H   0  0  0  0  0  0  0  0  0  0  0  0
   12.8405    3.7835  -14.7345 H   0  0  0  0  0  0  0  0  0  0  0  0
   13.0918    3.7753  -16.4601 H   0  0  0  0  0  0  0  0  0  0  0  0
   10.9541    5.0207  -16.8038 H   0  0  0  0  0  0  0  0  0  0  0  0
   10.6353    5.0132  -15.0908 H   0  0  0  0  0  0  0  0  0  0  0  0
   11.0065    2.6108  -14.1314 H   0  0  0  0  0  0  0  0  0  0  0  0
   11.2871    0.7445  -15.7865 H   0  0  0  0  0  0  0  0  0  0  0  0
   10.3302    0.3265  -14.3853 H   0  0  0  0  0  0  0  0  0  0  0  0
    9.1926    1.1515  -17.0858 H   0  0  0  0  0  0  0  0  0  0  0  0
    9.2634   -0.4945  -16.5119 H   0  0  0  0  0  0  0  0  0  0  0  0
    7.6252   -0.1115  -14.8296 H   0  0  0  0  0  0  0  0  0  0  0  0
    7.0098    0.7502  -16.2195 H   0  0  0  0  0  0  0  0  0  0  0  0
    5.6170    1.7253  -14.2469 H   0  0  0  0  0  0  0  0  0  0  0  0
    5.4138    3.6506  -12.7051 H   0  0  0  0  0  0  0  0  0  0  0  0
    8.3020    6.6872  -13.0222 H   0  0  0  0  0  0  0  0  0  0  0  0
    9.6417    8.3322  -12.3457 H   0  0  0  0  0  0  0  0  0  0  0  0
    8.8430    8.9511  -10.9155 H   0  0  0  0  0  0  0  0  0  0  0  0
   11.2635    9.3095  -10.6666 H   0  0  0  0  0  0  0  0  0  0  0  0
   11.6080    7.6292  -11.0319 H   0  0  0  0  0  0  0  0  0  0  0  0
   12.2686    9.3723   -8.5126 H   0  0  0  0  0  0  0  0  0  0  0  0
   11.9797   10.1722   -4.1177 H   0  0  0  0  0  0  0  0  0  0  0  0
   10.9952   10.8784   -5.4031 H   0  0  0  0  0  0  0  0  0  0  0  0
   10.4863    9.3979   -4.5935 H   0  0  0  0  0  0  0  0  0  0  0  0
   11.5068    6.1698   -3.4631 H   0  0  0  0  0  0  0  0  0  0  0  0
   12.1479    5.7723   -5.0560 H   0  0  0  0  0  0  0  0  0  0  0  0
   12.4251    7.3753   -4.3438 H   0  0  0  0  0  0  0  0  0  0  0  0
    9.0515    5.9411   -6.9504 H   0  0  0  0  0  0  0  0  0  0  0  0
    7.9076    6.2304   -9.2539 H   0  0  0  0  0  0  0  0  0  0  0  0
    9.2733    5.2608   -9.7381 H   0  0  0  0  0  0  0  0  0  0  0  0
    9.6349    4.4326  -13.1504 H   0  0  0  0  0  0  0  0  0  0  0  0
    6.7357    5.2089  -11.1311 H   0  0  0  0  0  0  0  0  0  0  0  0
  2  1  1  0
  3  2  1  0
  4  3  1  0
  5  4  1  0
  6  5  1  0
  7  6  1  0
  8  7  1  0
  9  8  1  0
 10  9  1  0
 11 10  2  0
 12 11  1  0
 13 12  1  0
 14 13  1  0
 15 14  2  3
 16 15  1  0
 17 16  1  0
 18 17  1  0
 19 18  1  0
 20 19  2  0
 21 20  1  0
 22 21  1  0
 23 20  1  0
 24 23  1  0
 25 24  1  0
 26 23  2  0
 27 18  2  0
 27 26  1  0
 28 15  1  0
 28 27  1  0
 29 12  2  0
 30  5  1  0
 30  9  2  0
 30 29  1  0
 31  1  1  0
 32  1  1  0
 33  1  1  0
 34  2  1  0
 35  2  1  0
 36  3  1  0
 37  3  1  0
  5 38  1  1
 39  6  1  0
 40  6  1  0
 41  7  1  0
 42  7  1  0
 43  8  1  0
 44  8  1  0
 45 10  1  0
 46 11  1  0
 47 14  1  0
 48 16  1  0
 49 16  1  0
 50 17  1  0
 51 17  1  0
 52 19  1  0
 53 22  1  0
 54 22  1  0
 55 22  1  0
 56 25  1  0
 57 25  1  0
 58 25  1  0
 59 26  1  0
 60 28  1  0
 61 28  1  0
 62 29  1  0
 63 13  1  0
M  CHG  1  15   1
M  END
>  <b_m_subgroup_collapsed>  (814) 
0

>  <r_i_docking_score>  (814) 
-7.2969986297945404

>  <s_m_subgroup_title>  (814) 
glide-dock_SP_D22_pv

>  <s_m_subgroupid>  (814) 
glide-dock_SP_D22_pv

>  <Molecule ChEMBL ID>  (814) 
CHEMBL240023

>  <Standard Type>  (814) 
Ki

>  <Standard Value>  (814) 
42000.0

>  <label>  (814) 
0

$$$$
CHEMBL195927
     RDKit          3D

 67 70  0  0  1  0  0  0  0  0999 V2000
   11.6929   11.2390   -6.1830 C   0  0  0  0  0  0  0  0  0  0  0  0
   10.9197   10.0880   -6.4291 O   0  0  0  0  0  0  0  0  0  0  0  0
   11.1995    9.0212   -5.6151 C   0  0  0  0  0  0  0  0  0  0  0  0
   11.4739    9.2022   -4.2349 C   0  0  0  0  0  0  0  0  0  0  0  0
   11.7236    8.0998   -3.4022 C   0  0  0  0  0  0  0  0  0  0  0  0
   11.6863    6.8057   -3.9420 C   0  0  0  0  0  0  0  0  0  0  0  0
   11.4288    6.6263   -5.3134 C   0  0  0  0  0  0  0  0  0  0  0  0
   11.1940    7.7170   -6.1739 C   0  0  0  0  0  0  0  0  0  0  0  0
   11.0242    7.4850   -7.5577 N   0  0  0  0  0  0  0  0  0  0  0  0
   11.6550    8.3376   -8.5576 C   0  0  0  0  0  0  0  0  0  0  0  0
   10.5805    8.9115   -9.5018 C   0  0  0  0  0  0  0  0  0  0  0  0
    9.7345    7.7973  -10.1744 C   0  0  0  0  0  0  0  0  0  0  0  0
   10.4924    7.0769  -11.3105 C   0  0  0  0  0  0  0  0  0  0  0  0
   11.6701    7.3724  -11.5083 O   0  0  0  0  0  0  0  0  0  0  0  0
    9.8097    6.1827  -12.0621 N   0  0  0  0  0  0  0  0  0  0  0  0
   10.2662    5.4133  -13.1882 C   0  0  0  0  0  0  0  0  0  0  0  0
   11.4956    5.6423  -13.8502 C   0  0  0  0  0  0  0  0  0  0  0  0
   11.8820    4.8582  -14.9500 C   0  0  0  0  0  0  0  0  0  0  0  0
   11.0433    3.8305  -15.4457 C   0  0  0  0  0  0  0  0  0  0  0  0
   11.4099    3.0201  -16.5018 O   0  0  0  0  0  0  0  0  0  0  0  0
   12.5715    3.3544  -17.2471 C   0  0  0  0  0  0  0  0  0  0  0  0
    9.7922    3.6090  -14.8133 C   0  0  0  0  0  0  0  0  0  0  0  0
    8.8888    2.6171  -15.2501 N   0  0  0  0  0  0  0  0  0  0  0  0
    8.9337    1.3793  -14.4896 C   0  0  0  0  0  0  0  0  0  0  0  0
    7.6175    0.5993  -14.6509 C   0  0  0  0  0  0  0  0  0  0  0  0
    7.2953    0.3852  -16.0853 N   0  0  0  0  0  0  0  0  0  0  0  0
    6.0434   -0.3842  -16.2755 C   0  0  0  0  0  0  0  0  0  0  0  0
    7.3127    1.6528  -16.8672 C   0  0  0  0  0  0  0  0  0  0  0  0
    8.6317    2.4228  -16.6732 C   0  0  0  0  0  0  0  0  0  0  0  0
    9.4264    4.3929  -13.6879 C   0  0  0  0  0  0  0  0  0  0  0  0
    9.1836    6.8608   -9.0678 C   0  0  0  0  0  0  0  0  0  0  0  0
   10.2385    6.3621   -8.0635 C   0  0  0  0  0  0  0  0  0  0  0  0
   11.6860   11.9030   -7.0471 H   0  0  0  0  0  0  0  0  0  0  0  0
   11.2862   11.7633   -5.3190 H   0  0  0  0  0  0  0  0  0  0  0  0
   12.7348   10.9714   -5.9973 H   0  0  0  0  0  0  0  0  0  0  0  0
   11.4729   10.1829   -3.7868 H   0  0  0  0  0  0  0  0  0  0  0  0
   11.9231    8.2466   -2.3505 H   0  0  0  0  0  0  0  0  0  0  0  0
   11.8808    5.9502   -3.3119 H   0  0  0  0  0  0  0  0  0  0  0  0
   11.4847    5.6418   -5.7313 H   0  0  0  0  0  0  0  0  0  0  0  0
   12.2511    9.1282   -8.1075 H   0  0  0  0  0  0  0  0  0  0  0  0
   12.3684    7.7339   -9.1154 H   0  0  0  0  0  0  0  0  0  0  0  0
    9.9138    9.5622   -8.9357 H   0  0  0  0  0  0  0  0  0  0  0  0
   11.0604    9.5483  -10.2464 H   0  0  0  0  0  0  0  0  0  0  0  0
    8.8842    8.2806  -10.6579 H   0  0  0  0  0  0  0  0  0  0  0  0
    8.8539    6.0218  -11.7757 H   0  0  0  0  0  0  0  0  0  0  0  0
   12.1841    6.4146  -13.5488 H   0  0  0  0  0  0  0  0  0  0  0  0
   12.8405    5.0701  -15.3962 H   0  0  0  0  0  0  0  0  0  0  0  0
   12.6762    2.6603  -18.0804 H   0  0  0  0  0  0  0  0  0  0  0  0
   12.5008    4.3602  -17.6628 H   0  0  0  0  0  0  0  0  0  0  0  0
   13.4762    3.2784  -16.6468 H   0  0  0  0  0  0  0  0  0  0  0  0
    9.7777    0.7774  -14.8311 H   0  0  0  0  0  0  0  0  0  0  0  0
    9.1166    1.6040  -13.4468 H   0  0  0  0  0  0  0  0  0  0  0  0
    7.6862   -0.3618  -14.1404 H   0  0  0  0  0  0  0  0  0  0  0  0
    6.8055    1.1533  -14.1747 H   0  0  0  0  0  0  0  0  0  0  0  0
    5.1812    0.1717  -15.9068 H   0  0  0  0  0  0  0  0  0  0  0  0
    5.8825   -0.5992  -17.3324 H   0  0  0  0  0  0  0  0  0  0  0  0
    6.0857   -1.3369  -15.7463 H   0  0  0  0  0  0  0  0  0  0  0  0
    7.1599    1.4379  -17.9255 H   0  0  0  0  0  0  0  0  0  0  0  0
    6.4856    2.2860  -16.5464 H   0  0  0  0  0  0  0  0  0  0  0  0
    8.5940    3.3819  -17.1889 H   0  0  0  0  0  0  0  0  0  0  0  0
    9.4401    1.8454  -17.1199 H   0  0  0  0  0  0  0  0  0  0  0  0
    8.4760    4.2076  -13.2076 H   0  0  0  0  0  0  0  0  0  0  0  0
    8.4621    7.4343   -8.4915 H   0  0  0  0  0  0  0  0  0  0  0  0
    8.6326    6.0217   -9.4934 H   0  0  0  0  0  0  0  0  0  0  0  0
   10.8890    5.6368   -8.5463 H   0  0  0  0  0  0  0  0  0  0  0  0
    9.7369    5.8400   -7.2487 H   0  0  0  0  0  0  0  0  0  0  0  0
    8.0424   -0.1896  -16.4506 H   0  0  0  0  0  0  0  0  0  0  0  0
  2  1  1  0
  3  2  1  0
  4  3  2  0
  5  4  1  0
  6  5  2  0
  7  6  1  0
  8  3  1  0
  8  7  2  0
  9  8  1  0
 10  9  1  0
 11 10  1  0
 12 11  1  0
 13 12  1  0
 14 13  2  0
 15 13  1  0
 16 15  1  0
 17 16  1  0
 18 17  2  0
 19 18  1  0
 20 19  1  0
 21 20  1  0
 22 19  2  0
 23 22  1  0
 24 23  1  0
 25 24  1  0
 26 25  1  0
 27 26  1  0
 28 26  1  0
 29 23  1  0
 29 28  1  0
 30 16  2  0
 30 22  1  0
 31 12  1  0
 32  9  1  0
 32 31  1  0
 33  1  1  0
 34  1  1  0
 35  1  1  0
 36  4  1  0
 37  5  1  0
 38  6  1  0
 39  7  1  0
 40 10  1  0
 41 10  1  0
 42 11  1  0
 43 11  1  0
 44 12  1  0
 45 15  1  0
 46 17  1  0
 47 18  1  0
 48 21  1  0
 49 21  1  0
 50 21  1  0
 51 24  1  0
 52 24  1  0
 53 25  1  0
 54 25  1  0
 55 27  1  0
 56 27  1  0
 57 27  1  0
 58 28  1  0
 59 28  1  0
 60 29  1  0
 61 29  1  0
 62 30  1  0
 63 31  1  0
 64 31  1  0
 65 32  1  0
 66 32  1  0
 67 26  1  0
M  CHG  1  26   1
M  END
>  <b_m_subgroup_collapsed>  (815) 
0

>  <r_i_docking_score>  (815) 
-7.29619024728835

>  <s_m_subgroup_title>  (815) 
glide-dock_SP_D22_pv

>  <s_m_subgroupid>  (815) 
glide-dock_SP_D22_pv

>  <Molecule ChEMBL ID>  (815) 
CHEMBL195927

>  <Standard Type>  (815) 
Ki

>  <Standard Value>  (815) 
10000.0

>  <label>  (815) 
0

$$$$
CHEMBL1080389
     RDKit          3D

 57 61  0  0  1  0  0  0  0  0999 V2000
   10.0850    4.6509  -17.5257 C   0  0  0  0  0  0  0  0  0  0  0  0
   10.7867    3.5040  -16.7763 C   0  0  1  0  0  0  0  0  0  0  0  0
   11.9727    3.9824  -15.9025 C   0  0  0  0  0  0  0  0  0  0  0  0
   11.4970    4.6038  -14.6584 N   0  0  0  0  0  0  0  0  0  0  0  0
   11.6804    5.9279  -14.4002 C   0  0  0  0  0  0  0  0  0  0  0  0
   12.2093    6.6790  -15.2204 O   0  0  0  0  0  0  0  0  0  0  0  0
   11.3421    6.5062  -13.0470 C   0  0  0  0  0  0  0  0  0  0  0  0
   12.2735    7.3721  -12.4441 C   0  0  0  0  0  0  0  0  0  0  0  0
   12.0530    7.8909  -11.1583 C   0  0  0  0  0  0  0  0  0  0  0  0
   10.8893    7.5745  -10.4227 C   0  0  0  0  0  0  0  0  0  0  0  0
   10.7132    8.0388   -9.0223 C   0  0  0  0  0  0  0  0  0  0  0  0
    9.4171    8.1721   -8.4655 C   0  0  0  0  0  0  0  0  0  0  0  0
    9.2281    8.5723   -7.1305 C   0  0  0  0  0  0  0  0  0  0  0  0
   10.3341    8.9000   -6.3297 C   0  0  0  0  0  0  0  0  0  0  0  0
   11.6272    8.7853   -6.8575 C   0  0  0  0  0  0  0  0  0  0  0  0
   11.8177    8.3363   -8.1779 C   0  0  0  0  0  0  0  0  0  0  0  0
   13.0922    8.1723   -8.6007 F   0  0  0  0  0  0  0  0  0  0  0  0
    9.9046    6.7961  -11.0825 C   0  0  0  0  0  0  0  0  0  0  0  0
   10.1118    6.2918  -12.3824 C   0  0  0  0  0  0  0  0  0  0  0  0
   10.7142    3.6152  -13.9115 C   0  0  0  0  0  0  0  0  0  0  0  0
    9.4312    3.3640  -14.7223 C   0  0  0  0  0  0  0  0  0  0  0  0
    9.8038    2.7078  -15.9934 N   0  0  0  0  0  0  0  0  0  0  0  0
    9.3440    1.5162  -16.4728 C   0  0  0  0  0  0  0  0  0  0  0  0
    9.8393    0.9716  -17.4618 O   0  0  0  0  0  0  0  0  0  0  0  0
    8.1074    0.8751  -15.8959 C   0  0  0  0  0  0  0  0  0  0  0  0
    7.9956    0.4969  -14.5373 C   0  0  0  0  0  0  0  0  0  0  0  0
    6.8192   -0.1179  -14.0535 C   0  0  0  0  0  0  0  0  0  0  0  0
    5.7451   -0.4306  -14.9205 C   0  0  0  0  0  0  0  0  0  0  0  0
    4.4472   -1.0280  -14.7639 C   0  0  0  0  0  0  0  0  0  0  0  0
    3.8957   -1.1261  -16.0121 C   0  0  0  0  0  0  0  0  0  0  0  0
    4.7745   -0.5799  -16.9306 N   0  0  0  0  0  0  0  0  0  0  0  0
    5.9129   -0.1183  -16.2997 C   0  0  0  0  0  0  0  0  0  0  0  0
    7.0622    0.5322  -16.7804 C   0  0  0  0  0  0  0  0  0  0  0  0
   10.7914    5.1933  -18.1553 H   0  0  0  0  0  0  0  0  0  0  0  0
    9.2918    4.2738  -18.1724 H   0  0  0  0  0  0  0  0  0  0  0  0
    9.6399    5.3742  -16.8431 H   0  0  0  0  0  0  0  0  0  0  0  0
   11.2491    2.8904  -17.5514 H   0  0  0  0  0  0  0  0  0  0  0  0
   12.6274    4.6340  -16.4837 H   0  0  0  0  0  0  0  0  0  0  0  0
   12.5922    3.1227  -15.6443 H   0  0  0  0  0  0  0  0  0  0  0  0
   13.1944    7.6165  -12.9554 H   0  0  0  0  0  0  0  0  0  0  0  0
   12.8090    8.5500  -10.7602 H   0  0  0  0  0  0  0  0  0  0  0  0
    8.5334    7.9662   -9.0520 H   0  0  0  0  0  0  0  0  0  0  0  0
    8.2255    8.6372   -6.7321 H   0  0  0  0  0  0  0  0  0  0  0  0
   10.1939    9.2325   -5.3130 H   0  0  0  0  0  0  0  0  0  0  0  0
   12.4825    9.0197   -6.2420 H   0  0  0  0  0  0  0  0  0  0  0  0
    8.9744    6.5522  -10.5919 H   0  0  0  0  0  0  0  0  0  0  0  0
    9.3233    5.7195  -12.8461 H   0  0  0  0  0  0  0  0  0  0  0  0
   11.2783    2.6848  -13.8265 H   0  0  0  0  0  0  0  0  0  0  0  0
   10.4991    3.8868  -12.8814 H   0  0  0  0  0  0  0  0  0  0  0  0
    8.7284    2.8131  -14.1084 H   0  0  0  0  0  0  0  0  0  0  0  0
    8.9208    4.3041  -14.9339 H   0  0  0  0  0  0  0  0  0  0  0  0
    8.8141    0.6676  -13.8521 H   0  0  0  0  0  0  0  0  0  0  0  0
    6.7448   -0.3773  -13.0078 H   0  0  0  0  0  0  0  0  0  0  0  0
    4.0043   -1.3775  -13.8468 H   0  0  0  0  0  0  0  0  0  0  0  0
    2.9522   -1.5554  -16.3233 H   0  0  0  0  0  0  0  0  0  0  0  0
    4.5822   -0.5446  -17.9212 H   0  0  0  0  0  0  0  0  0  0  0  0
    7.1492    0.7511  -17.8344 H   0  0  0  0  0  0  0  0  0  0  0  0
  2  1  1  0
  3  2  1  0
  4  3  1  0
  5  4  1  0
  6  5  2  0
  7  5  1  0
  8  7  1  0
  9  8  2  0
 10  9  1  0
 11 10  1  0
 12 11  2  0
 13 12  1  0
 14 13  2  0
 15 14  1  0
 16 11  1  0
 16 15  2  0
 17 16  1  0
 18 10  2  0
 19  7  2  0
 19 18  1  0
 20  4  1  0
 21 20  1  0
 22  2  1  0
 22 21  1  0
 23 22  1  0
 24 23  2  0
 25 23  1  0
 26 25  2  0
 27 26  1  0
 28 27  2  0
 29 28  1  0
 30 29  2  0
 31 30  1  0
 32 28  1  0
 32 31  1  0
 33 25  1  0
 33 32  2  0
 34  1  1  0
 35  1  1  0
 36  1  1  0
  2 37  1  6
 38  3  1  0
 39  3  1  0
 40  8  1  0
 41  9  1  0
 42 12  1  0
 43 13  1  0
 44 14  1  0
 45 15  1  0
 46 18  1  0
 47 19  1  0
 48 20  1  0
 49 20  1  0
 50 21  1  0
 51 21  1  0
 52 26  1  0
 53 27  1  0
 54 29  1  0
 55 30  1  0
 56 31  1  0
 57 33  1  0
M  END
>  <b_m_subgroup_collapsed>  (816) 
0

>  <r_i_docking_score>  (816) 
-7.2928553740486803

>  <s_m_subgroup_title>  (816) 
glide-dock_SP_D22_pv

>  <s_m_subgroupid>  (816) 
glide-dock_SP_D22_pv

>  <Molecule ChEMBL ID>  (816) 
CHEMBL1080389

>  <Standard Type>  (816) 
Ki

>  <Standard Value>  (816) 
10000.0

>  <label>  (816) 
0

$$$$
CHEMBL434
     RDKit          3D

 33 33  0  0  1  0  0  0  0  0999 V2000
    9.2862    6.4388  -10.9278 C   0  0  0  0  0  0  0  0  0  0  0  0
    9.5499    6.1681   -9.4383 C   0  0  0  0  0  0  0  0  0  0  0  0
    9.1262    4.7508   -9.0465 C   0  0  0  0  0  0  0  0  0  0  0  0
    8.8862    7.1691   -8.5622 N   0  0  0  0  0  0  0  0  0  0  0  0
    9.4271    8.5551   -8.5896 C   0  0  0  0  0  0  0  0  0  0  0  0
   10.8642    8.7481   -8.0211 C   0  0  2  0  0  0  0  0  0  0  0  0
   11.8572    8.2286   -8.8827 O   0  0  0  0  0  0  0  0  0  0  0  0
   11.0745    8.3285   -6.5715 C   0  0  0  0  0  0  0  0  0  0  0  0
   11.0250    6.9691   -6.2061 C   0  0  0  0  0  0  0  0  0  0  0  0
   11.3081    6.5728   -4.8881 C   0  0  0  0  0  0  0  0  0  0  0  0
   11.6861    7.5160   -3.9239 C   0  0  0  0  0  0  0  0  0  0  0  0
   11.9999    7.1199   -2.6536 O   0  0  0  0  0  0  0  0  0  0  0  0
   11.7242    8.8753   -4.2727 C   0  0  0  0  0  0  0  0  0  0  0  0
   12.0743    9.7723   -3.3158 O   0  0  0  0  0  0  0  0  0  0  0  0
   11.4134    9.2871   -5.5865 C   0  0  0  0  0  0  0  0  0  0  0  0
    9.7320    5.6620  -11.5486 H   0  0  0  0  0  0  0  0  0  0  0  0
    8.2170    6.4596  -11.1445 H   0  0  0  0  0  0  0  0  0  0  0  0
    9.7106    7.3890  -11.2525 H   0  0  0  0  0  0  0  0  0  0  0  0
   10.6239    6.1886   -9.2770 H   0  0  0  0  0  0  0  0  0  0  0  0
    9.7189    4.0077   -9.5811 H   0  0  0  0  0  0  0  0  0  0  0  0
    9.2685    4.5711   -7.9818 H   0  0  0  0  0  0  0  0  0  0  0  0
    8.0824    4.5646   -9.2806 H   0  0  0  0  0  0  0  0  0  0  0  0
    8.9263    6.8437   -7.6074 H   0  0  0  0  0  0  0  0  0  0  0  0
    8.7417    9.1622   -7.9963 H   0  0  0  0  0  0  0  0  0  0  0  0
    9.3624    8.9554   -9.6010 H   0  0  0  0  0  0  0  0  0  0  0  0
   11.0620    9.8126   -8.0440 H   0  0  0  0  0  0  0  0  0  0  0  0
   11.9435    8.7964   -9.6370 H   0  0  0  0  0  0  0  0  0  0  0  0
   10.8099    6.2039   -6.9340 H   0  0  0  0  0  0  0  0  0  0  0  0
   11.2727    5.5335   -4.6264 H   0  0  0  0  0  0  0  0  0  0  0  0
   11.8838    6.1909   -2.5142 H   0  0  0  0  0  0  0  0  0  0  0  0
   12.2633    9.3236   -2.5027 H   0  0  0  0  0  0  0  0  0  0  0  0
   11.4733   10.3352   -5.8405 H   0  0  0  0  0  0  0  0  0  0  0  0
    7.9029    7.2164   -8.8277 H   0  0  0  0  0  0  0  0  0  0  0  0
  2  1  1  0
  3  2  1  0
  4  2  1  0
  5  4  1  0
  6  5  1  0
  7  6  1  0
  8  6  1  0
  9  8  1  0
 10  9  2  0
 11 10  1  0
 12 11  1  0
 13 11  2  0
 14 13  1  0
 15  8  2  0
 15 13  1  0
 16  1  1  0
 17  1  1  0
 18  1  1  0
 19  2  1  0
 20  3  1  0
 21  3  1  0
 22  3  1  0
 23  4  1  0
 24  5  1  0
 25  5  1  0
  6 26  1  1
 27  7  1  0
 28  9  1  0
 29 10  1  0
 30 12  1  0
 31 14  1  0
 32 15  1  0
 33  4  1  0
M  CHG  1   4   1
M  END
>  <b_m_subgroup_collapsed>  (817) 
0

>  <r_i_docking_score>  (817) 
-7.2928067694660399

>  <s_m_subgroup_title>  (817) 
glide-dock_SP_D22_pv

>  <s_m_subgroupid>  (817) 
glide-dock_SP_D22_pv

>  <Molecule ChEMBL ID>  (817) 
CHEMBL434

>  <Standard Type>  (817) 
Ki

>  <Standard Value>  (817) 
12000.0

>  <label>  (817) 
0

$$$$
CHEMBL596865
     RDKit          3D

 50 53  0  0  1  0  0  0  0  0999 V2000
   11.6110    9.7699   -4.1186 C   0  0  0  0  0  0  0  0  0  0  0  0
   12.0463    8.9746   -5.1073 C   0  0  0  0  0  0  0  0  0  0  0  0
   12.1465    9.3933   -6.5664 C   0  0  0  0  0  0  0  0  0  0  0  0
   11.2605    8.5916   -7.5187 C   0  0  0  0  0  0  0  0  0  0  0  0
    9.9442    8.3047   -7.1140 C   0  0  0  0  0  0  0  0  0  0  0  0
    9.0853    7.6021   -7.9630 C   0  0  0  0  0  0  0  0  0  0  0  0
    9.5040    7.2519   -9.2579 C   0  0  0  0  0  0  0  0  0  0  0  0
   10.7975    7.5591   -9.7270 C   0  0  0  0  0  0  0  0  0  0  0  0
   11.7016    8.1732   -8.8050 C   0  0  0  0  0  0  0  0  0  0  0  0
   13.0229    8.3201   -9.1211 O   0  0  0  0  0  0  0  0  0  0  0  0
   11.1011    7.1900  -11.1419 C   0  0  0  0  0  0  0  0  0  0  0  0
   12.1604    7.7716  -11.8828 C   0  0  0  0  0  0  0  0  0  0  0  0
   12.4850    7.3756  -13.1926 C   0  0  0  0  0  0  0  0  0  0  0  0
   11.7662    6.3626  -13.8368 C   0  0  0  0  0  0  0  0  0  0  0  0
   10.6884    5.7500  -13.1788 C   0  0  0  0  0  0  0  0  0  0  0  0
   10.3671    6.1922  -11.8627 C   0  0  0  0  0  0  0  0  0  0  0  0
    9.2276    5.5238  -11.0773 C   0  0  1  0  0  0  0  0  0  0  0  0
    8.5437    6.5480  -10.1828 C   0  0  0  0  0  0  0  0  0  0  0  0
    8.2572    4.7446  -11.8988 N   0  0  1  0  0  0  0  0  0  0  0  0
    7.1817    5.5380  -12.5751 C   0  0  0  0  0  0  0  0  0  0  0  0
    6.1202    4.6689  -13.2843 C   0  0  0  0  0  0  0  0  0  0  0  0
    5.3702    3.7392  -12.3215 C   0  0  0  0  0  0  0  0  0  0  0  0
    9.0118    3.8353  -12.7882 C   0  0  0  0  0  0  0  0  0  0  0  0
    9.8281    4.6517  -13.7922 C   0  0  0  0  0  0  0  0  0  0  0  0
   11.2854   10.7809   -4.3159 H   0  0  0  0  0  0  0  0  0  0  0  0
   11.5723    9.4218   -3.0959 H   0  0  0  0  0  0  0  0  0  0  0  0
   12.3538    7.9670   -4.8651 H   0  0  0  0  0  0  0  0  0  0  0  0
   11.8479   10.4386   -6.6432 H   0  0  0  0  0  0  0  0  0  0  0  0
   13.1951    9.3671   -6.8622 H   0  0  0  0  0  0  0  0  0  0  0  0
    9.5840    8.6091   -6.1433 H   0  0  0  0  0  0  0  0  0  0  0  0
    8.0862    7.3700   -7.6255 H   0  0  0  0  0  0  0  0  0  0  0  0
   13.2746    9.2031   -9.3797 H   0  0  0  0  0  0  0  0  0  0  0  0
   12.7510    8.5690  -11.4600 H   0  0  0  0  0  0  0  0  0  0  0  0
   13.3094    7.8520  -13.7060 H   0  0  0  0  0  0  0  0  0  0  0  0
   12.0403    6.0582  -14.8381 H   0  0  0  0  0  0  0  0  0  0  0  0
    9.7080    4.7993  -10.4174 H   0  0  0  0  0  0  0  0  0  0  0  0
    7.7033    6.1191   -9.6326 H   0  0  0  0  0  0  0  0  0  0  0  0
    8.1976    7.3105  -10.8771 H   0  0  0  0  0  0  0  0  0  0  0  0
    6.6355    6.1399  -11.8473 H   0  0  0  0  0  0  0  0  0  0  0  0
    7.6298    6.2447  -13.2758 H   0  0  0  0  0  0  0  0  0  0  0  0
    5.3839    5.3292  -13.7492 H   0  0  0  0  0  0  0  0  0  0  0  0
    6.5509    4.0983  -14.1081 H   0  0  0  0  0  0  0  0  0  0  0  0
    4.5735    3.2057  -12.8427 H   0  0  0  0  0  0  0  0  0  0  0  0
    4.9174    4.3153  -11.5124 H   0  0  0  0  0  0  0  0  0  0  0  0
    6.0331    2.9968  -11.8758 H   0  0  0  0  0  0  0  0  0  0  0  0
    9.6871    3.2243  -12.1846 H   0  0  0  0  0  0  0  0  0  0  0  0
    8.3595    3.1350  -13.3105 H   0  0  0  0  0  0  0  0  0  0  0  0
    9.1754    5.1048  -14.5387 H   0  0  0  0  0  0  0  0  0  0  0  0
   10.4849    3.9751  -14.3417 H   0  0  0  0  0  0  0  0  0  0  0  0
    7.7613    4.1609  -11.2378 H   0  0  0  0  0  0  0  0  0  0  0  0
  2  1  2  0
  3  2  1  0
  4  3  1  0
  5  4  2  0
  6  5  1  0
  7  6  2  0
  8  7  1  0
  9  4  1  0
  9  8  2  0
 10  9  1  0
 11  8  1  0
 12 11  1  0
 13 12  2  0
 14 13  1  0
 15 14  2  0
 16 11  2  0
 16 15  1  0
 17 16  1  0
 18  7  1  0
 18 17  1  0
 19 17  1  0
 20 19  1  0
 21 20  1  0
 22 21  1  0
 23 19  1  0
 24 15  1  0
 24 23  1  0
 25  1  1  0
 26  1  1  0
 27  2  1  0
 28  3  1  0
 29  3  1  0
 30  5  1  0
 31  6  1  0
 32 10  1  0
 33 12  1  0
 34 13  1  0
 35 14  1  0
 17 36  1  1
 37 18  1  0
 38 18  1  0
 39 20  1  0
 40 20  1  0
 41 21  1  0
 42 21  1  0
 43 22  1  0
 44 22  1  0
 45 22  1  0
 46 23  1  0
 47 23  1  0
 48 24  1  0
 49 24  1  0
 19 50  1  1
M  CHG  1  19   1
M  END
>  <b_m_subgroup_collapsed>  (818) 
0

>  <r_i_docking_score>  (818) 
-7.2927988196352302

>  <s_m_subgroup_title>  (818) 
glide-dock_SP_D22_pv

>  <s_m_subgroupid>  (818) 
glide-dock_SP_D22_pv

>  <Molecule ChEMBL ID>  (818) 
CHEMBL596865

>  <Standard Type>  (818) 
Ki

>  <Standard Value>  (818) 
10000.0

>  <label>  (818) 
0

$$$$
CHEMBL5883189
     RDKit          3D

 57 60  0  0  1  0  0  0  0  0999 V2000
    6.9740    0.5476  -17.8074 C   0  0  0  0  0  0  0  0  0  0  0  0
    8.3230    0.1168  -17.4835 N   0  0  0  0  0  0  0  0  0  0  0  0
    8.8842   -0.8482  -18.2465 N   0  0  0  0  0  0  0  0  0  0  0  0
   10.0870   -1.0274  -17.7348 C   0  0  0  0  0  0  0  0  0  0  0  0
   10.3409   -0.1769  -16.6253 C   0  0  0  0  0  0  0  0  0  0  0  0
    9.1884    0.5489  -16.4851 C   0  0  0  0  0  0  0  0  0  0  0  0
    8.8537    1.6085  -15.5241 C   0  0  0  0  0  0  0  0  0  0  0  0
    7.6017    1.8604  -15.1204 N   0  0  0  0  0  0  0  0  0  0  0  0
    7.6791    2.9170  -14.2468 N   0  0  0  0  0  0  0  0  0  0  0  0
    8.9743    3.2265  -14.1798 C   0  0  0  0  0  0  0  0  0  0  0  0
    9.6542    4.4992  -13.1600 S   0  0  0  0  0  0  0  0  0  0  0  0
    8.1591    5.4744  -12.8165 C   0  0  0  0  0  0  0  0  0  0  0  0
    8.5057    6.7845  -12.0970 C   0  0  0  0  0  0  0  0  0  0  0  0
    8.9699    6.5812  -10.6498 C   0  0  0  0  0  0  0  0  0  0  0  0
    9.8112    7.6560  -10.1247 N   0  0  0  0  0  0  0  0  0  0  0  0
   11.1487    7.6178  -10.7120 C   0  0  0  0  0  0  0  0  0  0  0  0
   12.0855    8.6610  -10.0990 C   0  0  0  0  0  0  0  0  0  0  0  0
   12.1797    8.4337   -8.7012 O   0  0  0  0  0  0  0  0  0  0  0  0
   10.9228    8.5052   -8.0383 C   0  0  2  0  0  0  0  0  0  0  0  0
   11.1304    8.2753   -6.5514 C   0  0  0  0  0  0  0  0  0  0  0  0
   11.5305    9.3424   -5.7119 C   0  0  0  0  0  0  0  0  0  0  0  0
   11.8160    9.1077   -4.3490 C   0  0  0  0  0  0  0  0  0  0  0  0
   11.7039    7.7998   -3.8299 C   0  0  0  0  0  0  0  0  0  0  0  0
   12.0055    7.4361   -2.3957 C   0  0  0  0  0  0  0  0  0  0  0  0
   12.4825    8.4639   -1.6901 F   0  0  0  0  0  0  0  0  0  0  0  0
   10.8861    6.9724   -1.8469 F   0  0  0  0  0  0  0  0  0  0  0  0
   12.8860    6.4399   -2.3853 F   0  0  0  0  0  0  0  0  0  0  0  0
   11.2861    6.7562   -4.6622 C   0  0  0  0  0  0  0  0  0  0  0  0
   11.0026    6.9800   -6.0082 C   0  0  0  0  0  0  0  0  0  0  0  0
    9.9438    7.4948   -8.6871 C   0  0  0  0  0  0  0  0  0  0  0  0
    9.7486    2.4643  -14.9768 N   0  0  0  0  0  0  0  0  0  0  0  0
   11.1859    2.5538  -15.1802 C   0  0  0  0  0  0  0  0  0  0  0  0
    6.2821    0.1835  -17.0467 H   0  0  0  0  0  0  0  0  0  0  0  0
    6.9286    1.6365  -17.8421 H   0  0  0  0  0  0  0  0  0  0  0  0
    6.6655    0.1535  -18.7767 H   0  0  0  0  0  0  0  0  0  0  0  0
   10.7371   -1.7667  -18.1791 H   0  0  0  0  0  0  0  0  0  0  0  0
   11.2377   -0.1137  -16.0264 H   0  0  0  0  0  0  0  0  0  0  0  0
    7.6860    5.7014  -13.7700 H   0  0  0  0  0  0  0  0  0  0  0  0
    7.4503    4.8869  -12.2310 H   0  0  0  0  0  0  0  0  0  0  0  0
    9.2771    7.3070  -12.6469 H   0  0  0  0  0  0  0  0  0  0  0  0
    7.6498    7.4554  -12.1129 H   0  0  0  0  0  0  0  0  0  0  0  0
    8.0861    6.4606  -10.0242 H   0  0  0  0  0  0  0  0  0  0  0  0
    9.5057    5.6357  -10.5620 H   0  0  0  0  0  0  0  0  0  0  0  0
   11.5833    6.6340  -10.5508 H   0  0  0  0  0  0  0  0  0  0  0  0
   11.1146    7.7727  -11.7885 H   0  0  0  0  0  0  0  0  0  0  0  0
   13.0779    8.5722  -10.5426 H   0  0  0  0  0  0  0  0  0  0  0  0
   11.7152    9.6707  -10.2897 H   0  0  0  0  0  0  0  0  0  0  0  0
   10.5216    9.5101   -8.1651 H   0  0  0  0  0  0  0  0  0  0  0  0
   11.6443   10.3358   -6.1194 H   0  0  0  0  0  0  0  0  0  0  0  0
   12.1329    9.9207   -3.7122 H   0  0  0  0  0  0  0  0  0  0  0  0
   11.1859    5.7717   -4.2479 H   0  0  0  0  0  0  0  0  0  0  0  0
   10.7136    6.1247   -6.5944 H   0  0  0  0  0  0  0  0  0  0  0  0
    8.9639    7.5797   -8.2129 H   0  0  0  0  0  0  0  0  0  0  0  0
   10.2895    6.4780   -8.5155 H   0  0  0  0  0  0  0  0  0  0  0  0
   11.6856    1.8664  -14.5007 H   0  0  0  0  0  0  0  0  0  0  0  0
   11.4421    2.3047  -16.2097 H   0  0  0  0  0  0  0  0  0  0  0  0
   11.5421    3.5651  -14.9881 H   0  0  0  0  0  0  0  0  0  0  0  0
  2  1  1  0
  3  2  1  0
  4  3  2  0
  5  4  1  0
  6  2  1  0
  6  5  2  0
  7  6  1  0
  8  7  2  0
  9  8  1  0
 10  9  2  0
 11 10  1  0
 12 11  1  0
 13 12  1  0
 14 13  1  0
 15 14  1  0
 16 15  1  0
 17 16  1  0
 18 17  1  0
 19 18  1  0
 20 19  1  0
 21 20  1  0
 22 21  2  0
 23 22  1  0
 24 23  1  0
 25 24  1  0
 26 24  1  0
 27 24  1  0
 28 23  2  0
 29 20  2  0
 29 28  1  0
 30 15  1  0
 30 19  1  0
 31  7  1  0
 31 10  1  0
 32 31  1  0
 33  1  1  0
 34  1  1  0
 35  1  1  0
 36  4  1  0
 37  5  1  0
 38 12  1  0
 39 12  1  0
 40 13  1  0
 41 13  1  0
 42 14  1  0
 43 14  1  0
 44 16  1  0
 45 16  1  0
 46 17  1  0
 47 17  1  0
 19 48  1  1
 49 21  1  0
 50 22  1  0
 51 28  1  0
 52 29  1  0
 53 30  1  0
 54 30  1  0
 55 32  1  0
 56 32  1  0
 57 32  1  0
M  END
>  <b_m_subgroup_collapsed>  (819) 
0

>  <r_i_docking_score>  (819) 
-7.2922261983873797

>  <s_m_subgroup_title>  (819) 
glide-dock_SP_D22_pv

>  <s_m_subgroupid>  (819) 
glide-dock_SP_D22_pv

>  <Molecule ChEMBL ID>  (819) 
CHEMBL5883189

>  <Standard Type>  (819) 
Ki

>  <Standard Value>  (819) 
10000.0

>  <label>  (819) 
0

$$$$
CHEMBL1201343
     RDKit          3D

 35 36  0  0  1  0  0  0  0  0999 V2000
   12.1969    7.8499   -2.1914 C   0  0  0  0  0  0  0  0  0  0  0  0
   12.2481    8.0243   -3.7106 C   0  0  0  0  0  0  0  0  0  0  0  0
   11.5710    9.3249   -4.1886 C   0  0  0  0  0  0  0  0  0  0  0  0
   11.6860    9.5560   -5.6513 N   0  0  0  0  0  0  0  0  0  0  0  0
   11.2958    8.4354   -6.5456 C   0  0  1  0  0  0  0  0  0  0  0  0
    9.8518    7.9483   -6.3346 C   0  0  0  0  0  0  0  0  0  0  0  0
    9.5859    6.6820   -7.1537 C   0  0  0  0  0  0  0  0  0  0  0  0
    9.9421    6.8326   -8.6398 C   0  0  1  0  0  0  0  0  0  0  0  0
    8.8860    7.4552   -9.4266 N   0  0  0  0  0  0  0  0  0  0  0  0
    9.2740    8.1043  -10.5262 C   0  0  0  0  0  0  0  0  0  0  0  0
    8.4860    8.6647  -11.4469 N   0  0  0  0  0  0  0  0  0  0  0  0
   11.0447    8.1723  -10.6469 S   0  0  0  0  0  0  0  0  0  0  0  0
   11.2344    7.6198   -8.9441 C   0  0  1  0  0  0  0  0  0  0  0  0
   11.4764    8.8236   -8.0175 C   0  0  0  0  0  0  0  0  0  0  0  0
   12.7063    6.9340   -1.8905 H   0  0  0  0  0  0  0  0  0  0  0  0
   11.1668    7.7723   -1.8469 H   0  0  0  0  0  0  0  0  0  0  0  0
   12.6699    8.6854   -1.6735 H   0  0  0  0  0  0  0  0  0  0  0  0
   13.2860    8.0081   -4.0373 H   0  0  0  0  0  0  0  0  0  0  0  0
   11.7710    7.1513   -4.1560 H   0  0  0  0  0  0  0  0  0  0  0  0
   10.5210    9.3470   -3.8997 H   0  0  0  0  0  0  0  0  0  0  0  0
   12.0298   10.1723   -3.6795 H   0  0  0  0  0  0  0  0  0  0  0  0
   11.1298   10.3660   -5.8854 H   0  0  0  0  0  0  0  0  0  0  0  0
   11.9687    7.6026   -6.3517 H   0  0  0  0  0  0  0  0  0  0  0  0
    9.6860    7.6820   -5.2978 H   0  0  0  0  0  0  0  0  0  0  0  0
    9.1312    8.7272   -6.5897 H   0  0  0  0  0  0  0  0  0  0  0  0
   10.1684    5.8587   -6.7398 H   0  0  0  0  0  0  0  0  0  0  0  0
    8.5395    6.3911   -7.0436 H   0  0  0  0  0  0  0  0  0  0  0  0
   10.0478    5.8316   -9.0608 H   0  0  0  0  0  0  0  0  0  0  0  0
    7.4802    8.5409  -11.2565 H   0  0  0  0  0  0  0  0  0  0  0  0
    8.8309    9.1166  -12.2799 H   0  0  0  0  0  0  0  0  0  0  0  0
   12.0860    6.9723   -8.8886 H   0  0  0  0  0  0  0  0  0  0  0  0
   10.7962    9.6357   -8.2735 H   0  0  0  0  0  0  0  0  0  0  0  0
   12.4875    9.1957   -8.1860 H   0  0  0  0  0  0  0  0  0  0  0  0
    7.8923    7.2949   -9.2540 H   0  0  0  0  0  0  0  0  0  0  0  0
   12.6540    9.7753   -5.8488 H   0  0  0  0  0  0  0  0  0  0  0  0
  2  1  1  0
  3  2  1  0
  4  3  1  0
  5  4  1  0
  6  5  1  0
  7  6  1  0
  8  7  1  0
  9  8  1  0
 10  9  2  0
 11 10  1  0
 12 10  1  0
 13  8  1  0
 13 12  1  0
 14  5  1  0
 14 13  1  0
 15  1  1  0
 16  1  1  0
 17  1  1  0
 18  2  1  0
 19  2  1  0
 20  3  1  0
 21  3  1  0
 22  4  1  0
  5 23  1  1
 24  6  1  0
 25  6  1  0
 26  7  1  0
 27  7  1  0
  8 28  1  6
 29 11  1  0
 30 11  1  0
 13 31  1  6
 32 14  1  0
 33 14  1  0
 34  9  1  0
 35  4  1  0
M  CHG  2   4   1   9   1
M  END
>  <b_m_subgroup_collapsed>  (820) 
0

>  <r_i_docking_score>  (820) 
-7.2917543408704102

>  <s_m_subgroup_title>  (820) 
glide-dock_SP_D22_pv

>  <s_m_subgroupid>  (820) 
glide-dock_SP_D22_pv

>  <Molecule ChEMBL ID>  (820) 
CHEMBL1201343

>  <Standard Type>  (820) 
Ki

>  <Standard Value>  (820) 
3.9

>  <label>  (820) 
1

$$$$
CHEMBL3588921
     RDKit          3D

 70 75  0  0  1  0  0  0  0  0999 V2000
    3.6502   -1.7936  -16.7610 C   0  0  0  0  0  0  0  0  0  0  0  0
    4.9502   -1.2392  -16.8672 O   0  0  0  0  0  0  0  0  0  0  0  0
    5.2669   -0.4889  -17.9837 C   0  0  0  0  0  0  0  0  0  0  0  0
    4.4073   -0.3928  -19.1070 C   0  0  0  0  0  0  0  0  0  0  0  0
    4.7916    0.3355  -20.2467 C   0  0  0  0  0  0  0  0  0  0  0  0
    6.0396    0.9747  -20.2824 C   0  0  0  0  0  0  0  0  0  0  0  0
    6.8963    0.9035  -19.1679 C   0  0  0  0  0  0  0  0  0  0  0  0
    6.5203    0.1871  -18.0080 C   0  0  0  0  0  0  0  0  0  0  0  0
    7.3837    0.1736  -16.8928 N   0  0  0  0  0  0  0  0  0  0  0  0
    8.8350    0.0788  -17.0385 C   0  0  0  0  0  0  0  0  0  0  0  0
    9.5333    1.2361  -16.2988 C   0  0  0  0  0  0  0  0  0  0  0  0
    9.0247    1.3615  -14.9066 N   0  0  0  0  0  0  0  0  0  0  0  0
    9.7475    2.3473  -14.0666 C   0  0  0  0  0  0  0  0  0  0  0  0
    9.7574    3.7779  -14.6469 C   0  0  0  0  0  0  0  0  0  0  0  0
   10.0691    4.8456  -13.5947 C   0  0  0  0  0  0  0  0  0  0  0  0
    8.8590    5.1559  -12.6937 C   0  0  0  0  0  0  0  0  0  0  0  0
    9.1986    6.1185  -11.6697 N   0  0  0  0  0  0  0  0  0  0  0  0
    9.4498    5.8977  -10.3360 C   0  0  0  0  0  0  0  0  0  0  0  0
    9.7635    7.1413   -9.8566 C   0  0  0  0  0  0  0  0  0  0  0  0
   10.1697    7.5641   -8.5204 C   0  0  0  0  0  0  0  0  0  0  0  0
   10.1268    8.9350   -8.1703 C   0  0  0  0  0  0  0  0  0  0  0  0
   10.5568    9.3724   -6.9021 C   0  0  0  0  0  0  0  0  0  0  0  0
   11.0214    8.4179   -5.9941 C   0  0  0  0  0  0  0  0  0  0  0  0
   11.0556    7.0642   -6.3275 C   0  0  0  0  0  0  0  0  0  0  0  0
   10.6283    6.6083   -7.5834 C   0  0  0  0  0  0  0  0  0  0  0  0
   11.6121    6.2373   -5.1900 C   0  0  0  0  0  0  0  0  0  0  0  0
   11.9024    7.3075   -4.1735 C   0  0  0  0  0  0  0  0  0  0  0  0
   12.3900    7.1150   -2.8716 C   0  0  0  0  0  0  0  0  0  0  0  0
   12.4862    8.2445   -2.0379 C   0  0  0  0  0  0  0  0  0  0  0  0
   12.0861    9.5118   -2.5094 C   0  0  0  0  0  0  0  0  0  0  0  0
   11.6114    9.6956   -3.8214 C   0  0  0  0  0  0  0  0  0  0  0  0
   11.5290    8.5669   -4.6460 C   0  0  0  0  0  0  0  0  0  0  0  0
    9.6865    8.0456  -10.9183 N   0  0  0  0  0  0  0  0  0  0  0  0
    9.3263    7.4246  -11.9909 N   0  0  0  0  0  0  0  0  0  0  0  0
    7.5479    1.5223  -14.8537 C   0  0  0  0  0  0  0  0  0  0  0  0
    6.8471    0.3541  -15.5495 C   0  0  0  0  0  0  0  0  0  0  0  0
    3.5298   -2.2268  -15.7705 H   0  0  0  0  0  0  0  0  0  0  0  0
    2.8851   -1.0282  -16.8779 H   0  0  0  0  0  0  0  0  0  0  0  0
    3.4929   -2.5855  -17.4938 H   0  0  0  0  0  0  0  0  0  0  0  0
    3.4462   -0.8854  -19.1291 H   0  0  0  0  0  0  0  0  0  0  0  0
    4.1267    0.3950  -21.0947 H   0  0  0  0  0  0  0  0  0  0  0  0
    6.3399    1.5285  -21.1580 H   0  0  0  0  0  0  0  0  0  0  0  0
    7.8409    1.4253  -19.2106 H   0  0  0  0  0  0  0  0  0  0  0  0
    9.1576   -0.8736  -16.6163 H   0  0  0  0  0  0  0  0  0  0  0  0
    9.1413    0.0573  -18.0835 H   0  0  0  0  0  0  0  0  0  0  0  0
   10.6120    1.0731  -16.2894 H   0  0  0  0  0  0  0  0  0  0  0  0
    9.3556    2.1681  -16.8402 H   0  0  0  0  0  0  0  0  0  0  0  0
    9.2959    2.3407  -13.0751 H   0  0  0  0  0  0  0  0  0  0  0  0
   10.7742    2.0053  -13.9198 H   0  0  0  0  0  0  0  0  0  0  0  0
   10.5014    3.8321  -15.4431 H   0  0  0  0  0  0  0  0  0  0  0  0
    8.8060    4.0315  -15.1077 H   0  0  0  0  0  0  0  0  0  0  0  0
   10.9261    4.5371  -12.9939 H   0  0  0  0  0  0  0  0  0  0  0  0
   10.3742    5.7613  -14.1010 H   0  0  0  0  0  0  0  0  0  0  0  0
    8.0334    5.5567  -13.2824 H   0  0  0  0  0  0  0  0  0  0  0  0
    8.4858    4.2582  -12.1999 H   0  0  0  0  0  0  0  0  0  0  0  0
    9.3968    4.9282   -9.8623 H   0  0  0  0  0  0  0  0  0  0  0  0
    9.7631    9.6589   -8.8849 H   0  0  0  0  0  0  0  0  0  0  0  0
   10.5324   10.4202   -6.6374 H   0  0  0  0  0  0  0  0  0  0  0  0
   10.6746    5.5589   -7.8312 H   0  0  0  0  0  0  0  0  0  0  0  0
   10.8538    5.6142   -4.7416 H   0  0  0  0  0  0  0  0  0  0  0  0
   12.4849    5.6677   -5.4908 H   0  0  0  0  0  0  0  0  0  0  0  0
   12.6562    6.1283   -2.5152 H   0  0  0  0  0  0  0  0  0  0  0  0
   12.8508    8.1421   -1.0283 H   0  0  0  0  0  0  0  0  0  0  0  0
   12.1160   10.3572   -1.8491 H   0  0  0  0  0  0  0  0  0  0  0  0
   11.2860   10.6623   -4.1722 H   0  0  0  0  0  0  0  0  0  0  0  0
    7.2048    1.5838  -13.8234 H   0  0  0  0  0  0  0  0  0  0  0  0
    7.2547    2.4543  -15.3384 H   0  0  0  0  0  0  0  0  0  0  0  0
    5.7786    0.5689  -15.5692 H   0  0  0  0  0  0  0  0  0  0  0  0
    6.9784   -0.5708  -14.9850 H   0  0  0  0  0  0  0  0  0  0  0  0
    9.2016    0.4647  -14.4751 H   0  0  0  0  0  0  0  0  0  0  0  0
  2  1  1  0
  3  2  1  0
  4  3  2  0
  5  4  1  0
  6  5  2  0
  7  6  1  0
  8  3  1  0
  8  7  2  0
  9  8  1  0
 10  9  1  0
 11 10  1  0
 12 11  1  0
 13 12  1  0
 14 13  1  0
 15 14  1  0
 16 15  1  0
 17 16  1  0
 18 17  1  0
 19 18  2  0
 20 19  1  0
 21 20  2  0
 22 21  1  0
 23 22  2  0
 24 23  1  0
 25 20  1  0
 25 24  2  0
 26 24  1  0
 27 26  1  0
 28 27  2  0
 29 28  1  0
 30 29  2  0
 31 30  1  0
 32 23  1  0
 32 27  1  0
 32 31  2  0
 33 19  1  0
 34 17  1  0
 34 33  2  0
 35 12  1  0
 36  9  1  0
 36 35  1  0
 37  1  1  0
 38  1  1  0
 39  1  1  0
 40  4  1  0
 41  5  1  0
 42  6  1  0
 43  7  1  0
 44 10  1  0
 45 10  1  0
 46 11  1  0
 47 11  1  0
 48 13  1  0
 49 13  1  0
 50 14  1  0
 51 14  1  0
 52 15  1  0
 53 15  1  0
 54 16  1  0
 55 16  1  0
 56 18  1  0
 57 21  1  0
 58 22  1  0
 59 25  1  0
 60 26  1  0
 61 26  1  0
 62 28  1  0
 63 29  1  0
 64 30  1  0
 65 31  1  0
 66 35  1  0
 67 35  1  0
 68 36  1  0
 69 36  1  0
 70 12  1  0
M  CHG  1  12   1
M  END
>  <b_m_subgroup_collapsed>  (821) 
0

>  <r_i_docking_score>  (821) 
-7.2916054073233099

>  <s_m_subgroup_title>  (821) 
glide-dock_SP_D22_pv

>  <s_m_subgroupid>  (821) 
glide-dock_SP_D22_pv

>  <Molecule ChEMBL ID>  (821) 
CHEMBL3588921

>  <Standard Type>  (821) 
Ki

>  <Standard Value>  (821) 
50.1

>  <label>  (821) 
1

$$$$
CHEMBL91310
     RDKit          3D

 46 49  0  0  1  0  0  0  0  0999 V2000
   10.7035    1.8678  -14.6070 C   0  0  0  0  0  0  0  0  0  0  0  0
   10.2646    3.1379  -14.4997 C   0  0  0  0  0  0  0  0  0  0  0  0
   11.0698    4.2102  -15.1084 C   0  0  0  0  0  0  0  0  0  0  0  0
   11.6951    3.9932  -16.3608 C   0  0  0  0  0  0  0  0  0  0  0  0
   12.5238    4.9719  -16.9386 C   0  0  0  0  0  0  0  0  0  0  0  0
   12.7412    6.1857  -16.2673 C   0  0  0  0  0  0  0  0  0  0  0  0
   12.1244    6.4121  -15.0250 C   0  0  0  0  0  0  0  0  0  0  0  0
   11.2891    5.4361  -14.4377 C   0  0  0  0  0  0  0  0  0  0  0  0
   10.6763    5.7877  -13.1521 C   0  0  0  0  0  0  0  0  0  0  0  0
    9.4937    5.4340  -12.6027 C   0  0  0  0  0  0  0  0  0  0  0  0
    9.1412    5.9373  -11.3356 N   0  0  0  0  0  0  0  0  0  0  0  0
    8.2886    5.2244  -10.3772 C   0  0  0  0  0  0  0  0  0  0  0  0
    8.7881    5.3378   -8.9358 C   0  0  0  0  0  0  0  0  0  0  0  0
    8.8862    6.7652   -8.5717 N   0  0  0  0  0  0  0  0  0  0  0  0
    9.1716    6.9771   -7.1373 C   0  0  0  0  0  0  0  0  0  0  0  0
    9.8247    7.4762   -9.4724 C   0  0  0  0  0  0  0  0  0  0  0  0
    9.3919    7.3314  -10.9437 C   0  0  0  0  0  0  0  0  0  0  0  0
    8.5092    4.5067  -13.2483 C   0  0  0  0  0  0  0  0  0  0  0  0
    7.1239    4.7502  -13.0472 C   0  0  0  0  0  0  0  0  0  0  0  0
    6.1390    3.8451  -13.4732 C   0  0  0  0  0  0  0  0  0  0  0  0
    6.5183    2.7015  -14.1869 C   0  0  0  0  0  0  0  0  0  0  0  0
    7.8671    2.5128  -14.5235 C   0  0  0  0  0  0  0  0  0  0  0  0
    8.8740    3.4075  -14.0809 C   0  0  0  0  0  0  0  0  0  0  0  0
   10.1163    1.0289  -14.2637 H   0  0  0  0  0  0  0  0  0  0  0  0
   11.6774    1.6439  -15.0156 H   0  0  0  0  0  0  0  0  0  0  0  0
   11.5433    3.0654  -16.8926 H   0  0  0  0  0  0  0  0  0  0  0  0
   12.9930    4.7898  -17.8942 H   0  0  0  0  0  0  0  0  0  0  0  0
   13.3755    6.9429  -16.7044 H   0  0  0  0  0  0  0  0  0  0  0  0
   12.2937    7.3529  -14.5214 H   0  0  0  0  0  0  0  0  0  0  0  0
   11.3346    6.3322  -12.4937 H   0  0  0  0  0  0  0  0  0  0  0  0
    7.2861    5.6465  -10.4312 H   0  0  0  0  0  0  0  0  0  0  0  0
    8.2095    4.1725  -10.6429 H   0  0  0  0  0  0  0  0  0  0  0  0
    8.0872    4.8322   -8.2698 H   0  0  0  0  0  0  0  0  0  0  0  0
    9.7561    4.8474   -8.8227 H   0  0  0  0  0  0  0  0  0  0  0  0
   10.1527    6.5836   -6.8664 H   0  0  0  0  0  0  0  0  0  0  0  0
    9.1425    8.0394   -6.8915 H   0  0  0  0  0  0  0  0  0  0  0  0
    8.4210    6.4778   -6.5236 H   0  0  0  0  0  0  0  0  0  0  0  0
    9.8627    8.5335   -9.2077 H   0  0  0  0  0  0  0  0  0  0  0  0
   10.8313    7.0764   -9.3390 H   0  0  0  0  0  0  0  0  0  0  0  0
   10.1383    7.8038  -11.5803 H   0  0  0  0  0  0  0  0  0  0  0  0
    8.4859    7.9054  -11.1136 H   0  0  0  0  0  0  0  0  0  0  0  0
    6.7955    5.6316  -12.5172 H   0  0  0  0  0  0  0  0  0  0  0  0
    5.0978    4.0309  -13.2537 H   0  0  0  0  0  0  0  0  0  0  0  0
    5.7800    1.9804  -14.5001 H   0  0  0  0  0  0  0  0  0  0  0  0
    8.1196    1.6572  -15.1320 H   0  0  0  0  0  0  0  0  0  0  0  0
    7.9590    7.1508   -8.7429 H   0  0  0  0  0  0  0  0  0  0  0  0
  2  1  2  0
  3  2  1  0
  4  3  2  0
  5  4  1  0
  6  5  2  0
  7  6  1  0
  8  3  1  0
  8  7  2  0
  9  8  1  0
 10  9  2  0
 11 10  1  0
 12 11  1  0
 13 12  1  0
 14 13  1  0
 15 14  1  0
 16 14  1  0
 17 11  1  0
 17 16  1  0
 18 10  1  0
 19 18  2  0
 20 19  1  0
 21 20  2  0
 22 21  1  0
 23  2  1  0
 23 18  1  0
 23 22  2  0
 24  1  1  0
 25  1  1  0
 26  4  1  0
 27  5  1  0
 28  6  1  0
 29  7  1  0
 30  9  1  0
 31 12  1  0
 32 12  1  0
 33 13  1  0
 34 13  1  0
 35 15  1  0
 36 15  1  0
 37 15  1  0
 38 16  1  0
 39 16  1  0
 40 17  1  0
 41 17  1  0
 42 19  1  0
 43 20  1  0
 44 21  1  0
 45 22  1  0
 46 14  1  0
M  CHG  1  14   1
M  END
>  <b_m_subgroup_collapsed>  (822) 
0

>  <r_i_docking_score>  (822) 
-7.2910567225943499

>  <s_m_subgroup_title>  (822) 
glide-dock_SP_D22_pv

>  <s_m_subgroupid>  (822) 
glide-dock_SP_D22_pv

>  <Molecule ChEMBL ID>  (822) 
CHEMBL91310

>  <Standard Type>  (822) 
Ki

>  <Standard Value>  (822) 
57.0

>  <label>  (822) 
1

$$$$
CHEMBL1257735
     RDKit          3D

 63 67  0  0  1  0  0  0  0  0999 V2000
   12.3511    6.3675   -2.2469 O   0  0  0  0  0  0  0  0  0  0  0  0
   12.2046    7.4691   -2.7633 C   0  0  0  0  0  0  0  0  0  0  0  0
   12.4908    8.6690   -2.2375 N   0  0  0  0  0  0  0  0  0  0  0  0
   12.3198    9.7727   -3.1882 C   0  0  0  0  0  0  0  0  0  0  0  0
   11.7350    9.0830   -4.3893 C   0  0  0  0  0  0  0  0  0  0  0  0
   11.2774    9.6106   -5.6063 C   0  0  0  0  0  0  0  0  0  0  0  0
   10.7161    8.7066   -6.5395 C   0  0  0  0  0  0  0  0  0  0  0  0
   10.6207    7.3120   -6.2445 C   0  0  0  0  0  0  0  0  0  0  0  0
   10.0131    6.3702   -7.0438 O   0  0  0  0  0  0  0  0  0  0  0  0
    9.2788    6.7966   -8.1724 C   0  0  0  0  0  0  0  0  0  0  0  0
   10.2084    6.7945   -9.3875 C   0  0  0  0  0  0  0  0  0  0  0  0
    9.5580    7.5104  -10.5686 C   0  0  0  0  0  0  0  0  0  0  0  0
   10.0761    7.0674  -11.9360 C   0  0  0  0  0  0  0  0  0  0  0  0
    9.5668    5.7267  -12.3420 N   0  0  0  0  0  0  0  0  0  0  0  0
   10.4510    5.0527  -13.3289 C   0  0  0  0  0  0  0  0  0  0  0  0
    9.9993    3.6016  -13.5394 C   0  0  0  0  0  0  0  0  0  0  0  0
    8.6033    3.5738  -13.9563 N   0  0  0  0  0  0  0  0  0  0  0  0
    8.2128    2.5941  -14.8943 C   0  0  0  0  0  0  0  0  0  0  0  0
    8.9191    2.5487  -16.1183 C   0  0  0  0  0  0  0  0  0  0  0  0
    8.6030    1.6036  -17.1082 C   0  0  0  0  0  0  0  0  0  0  0  0
    7.5791    0.6730  -16.8799 C   0  0  0  0  0  0  0  0  0  0  0  0
    6.8657    0.6939  -15.6673 C   0  0  0  0  0  0  0  0  0  0  0  0
    7.1583    1.6640  -14.6679 C   0  0  0  0  0  0  0  0  0  0  0  0
    6.4759    1.6806  -13.4631 O   0  0  0  0  0  0  0  0  0  0  0  0
    5.2862    0.9035  -13.3537 C   0  0  0  0  0  0  0  0  0  0  0  0
    5.4584   -0.4912  -13.9630 C   0  0  0  0  0  0  0  0  0  0  0  0
    5.7896   -0.3516  -15.4441 C   0  0  0  0  0  0  0  0  0  0  0  0
    7.6461    4.2969  -13.1218 C   0  0  0  0  0  0  0  0  0  0  0  0
    8.1508    5.7257  -12.8100 C   0  0  0  0  0  0  0  0  0  0  0  0
   11.1505    6.8202   -5.0346 C   0  0  0  0  0  0  0  0  0  0  0  0
   11.6861    7.7329   -4.1224 C   0  0  0  0  0  0  0  0  0  0  0  0
   12.8644    8.8061   -1.3111 H   0  0  0  0  0  0  0  0  0  0  0  0
   13.2935   10.1723   -3.4481 H   0  0  0  0  0  0  0  0  0  0  0  0
   11.6771   10.5625   -2.7980 H   0  0  0  0  0  0  0  0  0  0  0  0
   11.3325   10.6698   -5.8141 H   0  0  0  0  0  0  0  0  0  0  0  0
   10.3491    9.1097   -7.4703 H   0  0  0  0  0  0  0  0  0  0  0  0
    8.7808    7.7544   -8.0207 H   0  0  0  0  0  0  0  0  0  0  0  0
    8.4735    6.0800   -8.3363 H   0  0  0  0  0  0  0  0  0  0  0  0
   10.4453    5.7595   -9.6355 H   0  0  0  0  0  0  0  0  0  0  0  0
   11.1571    7.2770   -9.1529 H   0  0  0  0  0  0  0  0  0  0  0  0
    9.7122    8.5836  -10.4478 H   0  0  0  0  0  0  0  0  0  0  0  0
    8.4861    7.3693  -10.5300 H   0  0  0  0  0  0  0  0  0  0  0  0
   11.1677    7.0832  -11.9236 H   0  0  0  0  0  0  0  0  0  0  0  0
    9.7669    7.8283  -12.6468 H   0  0  0  0  0  0  0  0  0  0  0  0
   11.4930    5.0643  -13.0137 H   0  0  0  0  0  0  0  0  0  0  0  0
   10.4186    5.5947  -14.2762 H   0  0  0  0  0  0  0  0  0  0  0  0
   10.0866    3.0357  -12.6097 H   0  0  0  0  0  0  0  0  0  0  0  0
   10.6534    3.1075  -14.2583 H   0  0  0  0  0  0  0  0  0  0  0  0
    9.7096    3.2563  -16.3167 H   0  0  0  0  0  0  0  0  0  0  0  0
    9.1518    1.5889  -18.0372 H   0  0  0  0  0  0  0  0  0  0  0  0
    7.3452   -0.0633  -17.6358 H   0  0  0  0  0  0  0  0  0  0  0  0
    4.4627    1.4253  -13.8380 H   0  0  0  0  0  0  0  0  0  0  0  0
    5.0295    0.8203  -12.2972 H   0  0  0  0  0  0  0  0  0  0  0  0
    4.5581   -1.0922  -13.8468 H   0  0  0  0  0  0  0  0  0  0  0  0
    6.2660   -1.0125  -13.4485 H   0  0  0  0  0  0  0  0  0  0  0  0
    4.8990   -0.0481  -15.9962 H   0  0  0  0  0  0  0  0  0  0  0  0
    6.1011   -1.3151  -15.8503 H   0  0  0  0  0  0  0  0  0  0  0  0
    6.6755    4.3428  -13.6173 H   0  0  0  0  0  0  0  0  0  0  0  0
    7.5004    3.7604  -12.1845 H   0  0  0  0  0  0  0  0  0  0  0  0
    7.4877    6.1787  -12.0726 H   0  0  0  0  0  0  0  0  0  0  0  0
    8.0842    6.3376  -13.7100 H   0  0  0  0  0  0  0  0  0  0  0  0
   11.0884    5.7727   -4.7850 H   0  0  0  0  0  0  0  0  0  0  0  0
    9.5891    5.1505  -11.5133 H   0  0  0  0  0  0  0  0  0  0  0  0
  2  1  2  0
  3  2  1  0
  4  3  1  0
  5  4  1  0
  6  5  1  0
  7  6  2  0
  8  7  1  0
  9  8  1  0
 10  9  1  0
 11 10  1  0
 12 11  1  0
 13 12  1  0
 14 13  1  0
 15 14  1  0
 16 15  1  0
 17 16  1  0
 18 17  1  0
 19 18  1  0
 20 19  2  0
 21 20  1  0
 22 21  2  0
 23 18  2  0
 23 22  1  0
 24 23  1  0
 25 24  1  0
 26 25  1  0
 27 22  1  0
 27 26  1  0
 28 17  1  0
 29 14  1  0
 29 28  1  0
 30  8  2  0
 31  2  1  0
 31  5  2  0
 31 30  1  0
 32  3  1  0
 33  4  1  0
 34  4  1  0
 35  6  1  0
 36  7  1  0
 37 10  1  0
 38 10  1  0
 39 11  1  0
 40 11  1  0
 41 12  1  0
 42 12  1  0
 43 13  1  0
 44 13  1  0
 45 15  1  0
 46 15  1  0
 47 16  1  0
 48 16  1  0
 49 19  1  0
 50 20  1  0
 51 21  1  0
 52 25  1  0
 53 25  1  0
 54 26  1  0
 55 26  1  0
 56 27  1  0
 57 27  1  0
 58 28  1  0
 59 28  1  0
 60 29  1  0
 61 29  1  0
 62 30  1  0
 63 14  1  0
M  CHG  1  14   1
M  END
>  <b_m_subgroup_collapsed>  (823) 
0

>  <r_i_docking_score>  (823) 
-7.2892785300156397

>  <s_m_subgroup_title>  (823) 
glide-dock_SP_D22_pv

>  <s_m_subgroupid>  (823) 
glide-dock_SP_D22_pv

>  <Molecule ChEMBL ID>  (823) 
CHEMBL1257735

>  <Standard Type>  (823) 
Ki

>  <Standard Value>  (823) 
0.5754

>  <label>  (823) 
1

$$$$
CHEMBL2062855
     RDKit          3D

 52 55  0  0  1  0  0  0  0  0999 V2000
    8.4265    6.3488   -7.0360 C   0  0  0  0  0  0  0  0  0  0  0  0
    9.7318    6.6953   -7.6951 C   0  0  1  0  0  0  0  0  0  0  0  0
    9.5103    7.4179   -8.9929 C   0  0  1  0  0  0  0  0  0  0  0  0
   10.4906    8.5652   -9.0565 C   0  0  1  0  0  0  0  0  0  0  0  0
   11.3964    8.3818   -7.8374 C   0  0  0  0  0  0  0  0  0  0  0  0
   10.5562    7.6124   -6.8778 N   0  0  2  0  0  0  0  0  0  0  0  0
   11.2762    6.8894   -5.8048 C   0  0  0  0  0  0  0  0  0  0  0  0
   11.6736    7.6866   -4.5765 C   0  0  0  0  0  0  0  0  0  0  0  0
   11.5215    9.0876   -4.4644 C   0  0  0  0  0  0  0  0  0  0  0  0
   11.8393    9.7257   -3.2501 C   0  0  0  0  0  0  0  0  0  0  0  0
   12.3383    8.9845   -2.1631 C   0  0  0  0  0  0  0  0  0  0  0  0
   12.4854    7.5955   -2.2735 C   0  0  0  0  0  0  0  0  0  0  0  0
   12.1365    6.9516   -3.4673 C   0  0  0  0  0  0  0  0  0  0  0  0
   10.8275    8.1467  -10.5045 C   0  0  1  0  0  0  0  0  0  0  0  0
   12.2789    8.1884  -10.9492 C   0  0  0  0  0  0  0  0  0  0  0  0
   12.4596    7.5228  -12.1831 O   0  0  0  0  0  0  0  0  0  0  0  0
   10.1317    6.8094  -10.2408 C   0  0  2  0  0  0  0  0  0  0  0  0
    9.1215    6.3994  -11.2457 N   0  0  0  0  0  0  0  0  0  0  0  0
    9.6994    5.8613  -12.4825 C   0  0  0  0  0  0  0  0  0  0  0  0
    8.5565    5.1316  -13.1948 C   0  0  0  0  0  0  0  0  0  0  0  0
    7.5326    4.8332  -12.0943 C   0  0  0  0  0  0  0  0  0  0  0  0
    8.1652    5.3696  -10.8055 C   0  0  0  0  0  0  0  0  0  0  0  0
    7.7829    5.7632   -7.6937 H   0  0  0  0  0  0  0  0  0  0  0  0
    8.5578    5.7787   -6.1265 H   0  0  0  0  0  0  0  0  0  0  0  0
    7.8858    7.2494   -6.7429 H   0  0  0  0  0  0  0  0  0  0  0  0
   10.2895    5.7725   -7.8677 H   0  0  0  0  0  0  0  0  0  0  0  0
    8.4974    7.7926   -9.1480 H   0  0  0  0  0  0  0  0  0  0  0  0
    9.9580    9.5160   -9.0377 H   0  0  0  0  0  0  0  0  0  0  0  0
   12.2883    7.8054   -8.0840 H   0  0  0  0  0  0  0  0  0  0  0  0
   11.7240    9.3336   -7.4198 H   0  0  0  0  0  0  0  0  0  0  0  0
   10.5986    6.1435   -5.3990 H   0  0  0  0  0  0  0  0  0  0  0  0
   12.1030    6.3161   -6.2131 H   0  0  0  0  0  0  0  0  0  0  0  0
   11.1335    9.6864   -5.2732 H   0  0  0  0  0  0  0  0  0  0  0  0
   11.6861   10.7874   -3.1352 H   0  0  0  0  0  0  0  0  0  0  0  0
   12.5883    9.4845   -1.2386 H   0  0  0  0  0  0  0  0  0  0  0  0
   12.8619    7.0153   -1.4466 H   0  0  0  0  0  0  0  0  0  0  0  0
   12.2320    5.8768   -3.5263 H   0  0  0  0  0  0  0  0  0  0  0  0
   10.2050    8.7364  -11.1807 H   0  0  0  0  0  0  0  0  0  0  0  0
   12.9526    7.7695  -10.2057 H   0  0  0  0  0  0  0  0  0  0  0  0
   12.5369    9.2389  -11.0550 H   0  0  0  0  0  0  0  0  0  0  0  0
   13.3702    7.5647  -12.4394 H   0  0  0  0  0  0  0  0  0  0  0  0
   10.8656    6.0428  -10.0020 H   0  0  0  0  0  0  0  0  0  0  0  0
   10.1497    6.6657  -13.0491 H   0  0  0  0  0  0  0  0  0  0  0  0
   10.4860    5.1448  -12.2442 H   0  0  0  0  0  0  0  0  0  0  0  0
    8.1104    5.7676  -13.9585 H   0  0  0  0  0  0  0  0  0  0  0  0
    8.9067    4.2220  -13.6820 H   0  0  0  0  0  0  0  0  0  0  0  0
    6.6028    5.3649  -12.3022 H   0  0  0  0  0  0  0  0  0  0  0  0
    7.2933    3.7727  -12.0177 H   0  0  0  0  0  0  0  0  0  0  0  0
    8.6980    4.5717  -10.2859 H   0  0  0  0  0  0  0  0  0  0  0  0
    7.4175    5.7724  -10.1263 H   0  0  0  0  0  0  0  0  0  0  0  0
    8.5595    7.2072  -11.4812 H   0  0  0  0  0  0  0  0  0  0  0  0
    9.9109    8.2592   -6.4460 H   0  0  0  0  0  0  0  0  0  0  0  0
  2  1  1  0
  3  2  1  0
  4  3  1  0
  5  4  1  0
  6  2  1  0
  6  5  1  0
  7  6  1  0
  8  7  1  0
  9  8  2  0
 10  9  1  0
 11 10  2  0
 12 11  1  0
 13  8  1  0
 13 12  2  0
 14  4  1  0
 15 14  1  0
 16 15  1  0
 17  3  1  0
 17 14  1  0
 18 17  1  0
 19 18  1  0
 20 19  1  0
 21 20  1  0
 22 18  1  0
 22 21  1  0
 23  1  1  0
 24  1  1  0
 25  1  1  0
  2 26  1  6
  3 27  1  6
  4 28  1  6
 29  5  1  0
 30  5  1  0
 31  7  1  0
 32  7  1  0
 33  9  1  0
 34 10  1  0
 35 11  1  0
 36 12  1  0
 37 13  1  0
 14 38  1  6
 39 15  1  0
 40 15  1  0
 41 16  1  0
 17 42  1  1
 43 19  1  0
 44 19  1  0
 45 20  1  0
 46 20  1  0
 47 21  1  0
 48 21  1  0
 49 22  1  0
 50 22  1  0
 51 18  1  0
  6 52  1  1
M  CHG  2   6   1  18   1
M  END
>  <b_m_subgroup_collapsed>  (824) 
0

>  <r_i_docking_score>  (824) 
-7.2890178906445202

>  <s_m_subgroup_title>  (824) 
glide-dock_SP_D22_pv

>  <s_m_subgroupid>  (824) 
glide-dock_SP_D22_pv

>  <Molecule ChEMBL ID>  (824) 
CHEMBL2062855

>  <Standard Type>  (824) 
Ki

>  <Standard Value>  (824) 
16000.0

>  <label>  (824) 
0

$$$$
CHEMBL5288831
     RDKit          3D

 67 71  0  0  1  0  0  0  0  0999 V2000
    9.8705    5.3415  -18.2446 C   0  0  0  0  0  0  0  0  0  0  0  0
    9.7947    3.9116  -17.6798 C   0  0  1  0  0  0  0  0  0  0  0  0
    9.5956    2.9222  -18.8495 C   0  0  0  0  0  0  0  0  0  0  0  0
    9.4830    1.5821  -18.3769 O   0  0  0  0  0  0  0  0  0  0  0  0
   10.5696    1.1391  -17.5666 C   0  0  1  0  0  0  0  0  0  0  0  0
   11.8190    0.7650  -18.3650 C   0  0  0  0  0  0  0  0  0  0  0  0
   12.7697    1.7130  -18.8096 C   0  0  0  0  0  0  0  0  0  0  0  0
   13.9204    1.2634  -19.4846 C   0  0  0  0  0  0  0  0  0  0  0  0
   14.0797   -0.1196  -19.6844 C   0  0  0  0  0  0  0  0  0  0  0  0
   15.2208   -0.6271  -20.2923 N   0  0  0  0  0  0  0  0  0  0  0  0
   13.1766   -1.0277  -19.2797 N   0  0  0  0  0  0  0  0  0  0  0  0
   12.0717   -0.5890  -18.6470 C   0  0  0  0  0  0  0  0  0  0  0  0
   10.8134    2.1431  -16.4216 C   0  0  0  0  0  0  0  0  0  0  0  0
   10.9654    3.5231  -16.8779 N   0  0  0  0  0  0  0  0  0  0  0  0
   11.2996    4.4251  -15.7745 C   0  0  0  0  0  0  0  0  0  0  0  0
   10.2101    4.5738  -14.7260 C   0  0  0  0  0  0  0  0  0  0  0  0
   10.2808    5.3954  -13.6687 C   0  0  0  0  0  0  0  0  0  0  0  0
   11.4330    6.3181  -13.3326 C   0  0  0  0  0  0  0  0  0  0  0  0
   10.9590    7.1092  -12.1057 C   0  0  0  0  0  0  0  0  0  0  0  0
    9.9058    6.2152  -11.4393 C   0  0  1  0  0  0  0  0  0  0  0  0
    8.9194    6.9514  -10.5211 C   0  0  0  0  0  0  0  0  0  0  0  0
    9.5605    7.4371   -9.3057 N   0  0  0  0  0  0  0  0  0  0  0  0
    9.8349    6.6604   -8.2506 C   0  0  0  0  0  0  0  0  0  0  0  0
    9.6814    5.4386   -8.2508 O   0  0  0  0  0  0  0  0  0  0  0  0
   10.3797    7.3507   -7.0706 C   0  0  0  0  0  0  0  0  0  0  0  0
   10.5164    8.6729   -6.7238 C   0  0  0  0  0  0  0  0  0  0  0  0
   11.0872    8.6973   -5.4054 C   0  0  0  0  0  0  0  0  0  0  0  0
   11.4476    9.7136   -4.4920 C   0  0  0  0  0  0  0  0  0  0  0  0
   11.9920    9.3964   -3.2276 C   0  0  0  0  0  0  0  0  0  0  0  0
   12.1764    8.0558   -2.8417 C   0  0  0  0  0  0  0  0  0  0  0  0
   11.8228    7.0238   -3.7267 C   0  0  0  0  0  0  0  0  0  0  0  0
   11.2871    7.3500   -4.9836 C   0  0  0  0  0  0  0  0  0  0  0  0
   10.8517    6.5724   -6.0297 N   0  0  0  0  0  0  0  0  0  0  0  0
    9.2143    5.5120  -12.6108 C   0  0  0  0  0  0  0  0  0  0  0  0
    9.0162    5.5516  -18.8861 H   0  0  0  0  0  0  0  0  0  0  0  0
    9.8614    6.0897  -17.4549 H   0  0  0  0  0  0  0  0  0  0  0  0
   10.7757    5.4845  -18.8348 H   0  0  0  0  0  0  0  0  0  0  0  0
    8.8983    3.8519  -17.0605 H   0  0  0  0  0  0  0  0  0  0  0  0
   10.4159    2.9979  -19.5636 H   0  0  0  0  0  0  0  0  0  0  0  0
    8.6861    3.1635  -19.3996 H   0  0  0  0  0  0  0  0  0  0  0  0
   10.2252    0.2165  -17.0991 H   0  0  0  0  0  0  0  0  0  0  0  0
   12.6400    2.7705  -18.6378 H   0  0  0  0  0  0  0  0  0  0  0  0
   14.6671    1.9672  -19.8252 H   0  0  0  0  0  0  0  0  0  0  0  0
   15.9971   -0.0314  -20.5432 H   0  0  0  0  0  0  0  0  0  0  0  0
   15.3970   -1.6238  -20.2503 H   0  0  0  0  0  0  0  0  0  0  0  0
   11.3806   -1.3568  -18.3281 H   0  0  0  0  0  0  0  0  0  0  0  0
   11.6888    1.8315  -15.8473 H   0  0  0  0  0  0  0  0  0  0  0  0
    9.9674    2.0782  -15.7401 H   0  0  0  0  0  0  0  0  0  0  0  0
   11.5604    5.4112  -16.1572 H   0  0  0  0  0  0  0  0  0  0  0  0
   12.1959    4.0599  -15.2691 H   0  0  0  0  0  0  0  0  0  0  0  0
    9.3314    3.9572  -14.8339 H   0  0  0  0  0  0  0  0  0  0  0  0
   12.3097    5.7189  -13.0867 H   0  0  0  0  0  0  0  0  0  0  0  0
   11.6915    6.9701  -14.1681 H   0  0  0  0  0  0  0  0  0  0  0  0
   11.7760    7.3733  -11.4339 H   0  0  0  0  0  0  0  0  0  0  0  0
   10.4849    8.0341  -12.4328 H   0  0  0  0  0  0  0  0  0  0  0  0
   10.4337    5.4599  -10.8546 H   0  0  0  0  0  0  0  0  0  0  0  0
    8.4861    7.8001  -11.0473 H   0  0  0  0  0  0  0  0  0  0  0  0
    8.0986    6.2843  -10.2567 H   0  0  0  0  0  0  0  0  0  0  0  0
    9.7098    8.4300   -9.2220 H   0  0  0  0  0  0  0  0  0  0  0  0
   10.2329    9.5351   -7.3089 H   0  0  0  0  0  0  0  0  0  0  0  0
   11.2907   10.7463   -4.7634 H   0  0  0  0  0  0  0  0  0  0  0  0
   12.2583   10.1864   -2.5414 H   0  0  0  0  0  0  0  0  0  0  0  0
   12.5786    7.8244   -1.8667 H   0  0  0  0  0  0  0  0  0  0  0  0
   11.9489    5.9899   -3.4404 H   0  0  0  0  0  0  0  0  0  0  0  0
   10.8020    5.5602   -6.0536 H   0  0  0  0  0  0  0  0  0  0  0  0
    8.4026    6.1251  -13.0023 H   0  0  0  0  0  0  0  0  0  0  0  0
    8.8019    4.5416  -12.3307 H   0  0  0  0  0  0  0  0  0  0  0  0
  2  1  1  0
  3  2  1  0
  4  3  1  0
  5  4  1  0
  6  5  1  0
  7  6  2  0
  8  7  1  0
  9  8  2  0
 10  9  1  0
 11  9  1  0
 12  6  1  0
 12 11  2  0
 13  5  1  0
 14  2  1  0
 14 13  1  0
 15 14  1  0
 16 15  1  0
 17 16  2  0
 18 17  1  0
 19 18  1  0
 20 19  1  0
 21 20  1  0
 22 21  1  0
 23 22  1  0
 24 23  2  0
 25 23  1  0
 26 25  2  0
 27 26  1  0
 28 27  2  0
 29 28  1  0
 30 29  2  0
 31 30  1  0
 32 27  1  0
 32 31  2  0
 33 25  1  0
 33 32  1  0
 34 17  1  0
 34 20  1  0
 35  1  1  0
 36  1  1  0
 37  1  1  0
  2 38  1  1
 39  3  1  0
 40  3  1  0
  5 41  1  1
 42  7  1  0
 43  8  1  0
 44 10  1  0
 45 10  1  0
 46 12  1  0
 47 13  1  0
 48 13  1  0
 49 15  1  0
 50 15  1  0
 51 16  1  0
 52 18  1  0
 53 18  1  0
 54 19  1  0
 55 19  1  0
 20 56  1  1
 57 21  1  0
 58 21  1  0
 59 22  1  0
 60 26  1  0
 61 28  1  0
 62 29  1  0
 63 30  1  0
 64 31  1  0
 65 33  1  0
 66 34  1  0
 67 34  1  0
M  END
>  <b_m_subgroup_collapsed>  (825) 
0

>  <r_i_docking_score>  (825) 
-7.2888835833510104

>  <s_m_subgroup_title>  (825) 
glide-dock_SP_D22_pv

>  <s_m_subgroupid>  (825) 
glide-dock_SP_D22_pv

>  <Molecule ChEMBL ID>  (825) 
CHEMBL5288831

>  <Standard Type>  (825) 
Ki

>  <Standard Value>  (825) 
55.9

>  <label>  (825) 
1

$$$$
CHEMBL1081489
     RDKit          3D

 47 49  0  0  1  0  0  0  0  0999 V2000
    9.2994    6.5722   -6.7978 O   0  0  0  0  0  0  0  0  0  0  0  0
    9.9929    7.4244   -7.3503 C   0  0  0  0  0  0  0  0  0  0  0  0
    9.9236    7.7417   -8.6505 N   0  0  0  0  0  0  0  0  0  0  0  0
    8.9196    7.2489   -9.5894 C   0  0  0  0  0  0  0  0  0  0  0  0
    9.5264    6.2909  -10.6254 C   0  0  0  0  0  0  0  0  0  0  0  0
    8.5190    5.6142  -11.4886 N   0  0  0  0  0  0  0  0  0  0  0  0
    7.7381    6.5086  -12.3847 C   0  0  0  0  0  0  0  0  0  0  0  0
    6.2514    6.0971  -12.4117 C   0  0  0  0  0  0  0  0  0  0  0  0
    5.9232    4.8046  -13.1767 C   0  0  0  0  0  0  0  0  0  0  0  0
    6.7789    3.5913  -12.8034 C   0  0  0  0  0  0  0  0  0  0  0  0
    8.2428    3.7691  -13.2343 C   0  0  0  0  0  0  0  0  0  0  0  0
    9.1397    4.4588  -12.1930 C   0  0  0  0  0  0  0  0  0  0  0  0
   10.8136    8.8232   -9.0206 C   0  0  0  0  0  0  0  0  0  0  0  0
   11.5003    9.1491   -7.7004 C   0  0  0  0  0  0  0  0  0  0  0  0
   10.9259    8.1951   -6.7599 N   0  0  0  0  0  0  0  0  0  0  0  0
   11.2925    8.1799   -5.3783 C   0  0  0  0  0  0  0  0  0  0  0  0
   11.6868    9.3766   -4.7353 C   0  0  0  0  0  0  0  0  0  0  0  0
   12.0804    9.3720   -3.3833 C   0  0  0  0  0  0  0  0  0  0  0  0
   12.0933    8.1677   -2.6569 C   0  0  0  0  0  0  0  0  0  0  0  0
   11.7228    6.9664   -3.2882 C   0  0  0  0  0  0  0  0  0  0  0  0
   11.3255    6.9725   -4.6407 C   0  0  0  0  0  0  0  0  0  0  0  0
    8.1114    6.7473   -9.0491 H   0  0  0  0  0  0  0  0  0  0  0  0
    8.4907    8.1250  -10.0702 H   0  0  0  0  0  0  0  0  0  0  0  0
   10.2489    6.8178  -11.2493 H   0  0  0  0  0  0  0  0  0  0  0  0
   10.0862    5.5268  -10.0836 H   0  0  0  0  0  0  0  0  0  0  0  0
    7.7884    7.5393  -12.0396 H   0  0  0  0  0  0  0  0  0  0  0  0
    8.1582    6.5317  -13.3907 H   0  0  0  0  0  0  0  0  0  0  0  0
    5.8764    5.9991  -11.3958 H   0  0  0  0  0  0  0  0  0  0  0  0
    5.6771    6.9125  -12.8528 H   0  0  0  0  0  0  0  0  0  0  0  0
    4.8815    4.5517  -12.9967 H   0  0  0  0  0  0  0  0  0  0  0  0
    5.9946    4.9723  -14.2469 H   0  0  0  0  0  0  0  0  0  0  0  0
    6.6926    3.3731  -11.7381 H   0  0  0  0  0  0  0  0  0  0  0  0
    6.3674    2.7217  -13.3177 H   0  0  0  0  0  0  0  0  0  0  0  0
    8.6736    2.7887  -13.4483 H   0  0  0  0  0  0  0  0  0  0  0  0
    8.2849    4.3011  -14.1857 H   0  0  0  0  0  0  0  0  0  0  0  0
   10.0553    4.7818  -12.6893 H   0  0  0  0  0  0  0  0  0  0  0  0
    9.4454    3.7305  -11.4446 H   0  0  0  0  0  0  0  0  0  0  0  0
   11.5303    8.4923   -9.7743 H   0  0  0  0  0  0  0  0  0  0  0  0
   10.2607    9.6775   -9.4145 H   0  0  0  0  0  0  0  0  0  0  0  0
   11.2862   10.1734   -7.4049 H   0  0  0  0  0  0  0  0  0  0  0  0
   12.5822    9.0162   -7.7619 H   0  0  0  0  0  0  0  0  0  0  0  0
   11.6832   10.3180   -5.2626 H   0  0  0  0  0  0  0  0  0  0  0  0
   12.3657   10.2920   -2.8963 H   0  0  0  0  0  0  0  0  0  0  0  0
   12.3862    8.1668   -1.6183 H   0  0  0  0  0  0  0  0  0  0  0  0
   11.7386    6.0390   -2.7349 H   0  0  0  0  0  0  0  0  0  0  0  0
   11.0598    6.0308   -5.0991 H   0  0  0  0  0  0  0  0  0  0  0  0
    7.8332    5.2344  -10.8488 H   0  0  0  0  0  0  0  0  0  0  0  0
  2  1  2  0
  3  2  1  0
  4  3  1  0
  5  4  1  0
  6  5  1  0
  7  6  1  0
  8  7  1  0
  9  8  1  0
 10  9  1  0
 11 10  1  0
 12  6  1  0
 12 11  1  0
 13  3  1  0
 14 13  1  0
 15  2  1  0
 15 14  1  0
 16 15  1  0
 17 16  2  0
 18 17  1  0
 19 18  2  0
 20 19  1  0
 21 16  1  0
 21 20  2  0
 22  4  1  0
 23  4  1  0
 24  5  1  0
 25  5  1  0
 26  7  1  0
 27  7  1  0
 28  8  1  0
 29  8  1  0
 30  9  1  0
 31  9  1  0
 32 10  1  0
 33 10  1  0
 34 11  1  0
 35 11  1  0
 36 12  1  0
 37 12  1  0
 38 13  1  0
 39 13  1  0
 40 14  1  0
 41 14  1  0
 42 17  1  0
 43 18  1  0
 44 19  1  0
 45 20  1  0
 46 21  1  0
 47  6  1  0
M  CHG  1   6   1
M  END
>  <b_m_subgroup_collapsed>  (826) 
0

>  <r_i_docking_score>  (826) 
-7.28683077155166

>  <s_m_subgroup_title>  (826) 
glide-dock_SP_D22_pv

>  <s_m_subgroupid>  (826) 
glide-dock_SP_D22_pv

>  <Molecule ChEMBL ID>  (826) 
CHEMBL1081489

>  <Standard Type>  (826) 
Ki

>  <Standard Value>  (826) 
7.943

>  <label>  (826) 
1

$$$$
CHEMBL103772
     RDKit          3D

 44 47  0  0  1  0  0  0  0  0999 V2000
    6.0862    2.2587  -13.8469 C   0  0  0  0  0  0  0  0  0  0  0  0
    7.4169    2.2999  -14.2973 C   0  0  0  0  0  0  0  0  0  0  0  0
    8.2748    3.3248  -13.8550 C   0  0  0  0  0  0  0  0  0  0  0  0
    7.8111    4.3146  -12.9585 C   0  0  0  0  0  0  0  0  0  0  0  0
    8.7330    5.3377  -12.4718 C   0  0  0  0  0  0  0  0  0  0  0  0
    8.4861    6.2151  -11.4857 N   0  0  0  0  0  0  0  0  0  0  0  0
    9.6055    7.0071  -11.3094 C   0  0  0  0  0  0  0  0  0  0  0  0
    9.6876    8.1184  -10.3237 C   0  0  0  0  0  0  0  0  0  0  0  0
   10.5506    7.8406   -9.1758 N   0  0  0  0  0  0  0  0  0  0  0  0
   10.7722    9.1090   -8.4917 C   0  0  0  0  0  0  0  0  0  0  0  0
   11.6958    8.9388   -7.2810 C   0  0  0  0  0  0  0  0  0  0  0  0
   11.1195    7.9996   -6.3237 N   0  0  0  0  0  0  0  0  0  0  0  0
   11.5058    8.0637   -4.9854 C   0  0  0  0  0  0  0  0  0  0  0  0
   11.6860    6.9115   -4.3344 N   0  0  0  0  0  0  0  0  0  0  0  0
   12.0863    6.9730   -3.0505 C   0  0  0  0  0  0  0  0  0  0  0  0
   12.3113    8.2005   -2.4062 C   0  0  0  0  0  0  0  0  0  0  0  0
   12.0852    9.3521   -3.1767 C   0  0  0  0  0  0  0  0  0  0  0  0
   11.6849    9.2797   -4.4609 N   0  0  0  0  0  0  0  0  0  0  0  0
   10.7501    6.7327   -6.9626 C   0  0  0  0  0  0  0  0  0  0  0  0
    9.8755    6.9532   -8.2224 C   0  0  0  0  0  0  0  0  0  0  0  0
   10.5086    6.5720  -12.2462 C   0  0  0  0  0  0  0  0  0  0  0  0
    9.9605    5.5129  -12.9623 N   0  0  0  0  0  0  0  0  0  0  0  0
    6.4662    4.2798  -12.5276 C   0  0  0  0  0  0  0  0  0  0  0  0
    5.6072    3.2555  -12.9746 C   0  0  0  0  0  0  0  0  0  0  0  0
    5.4305    1.4676  -14.1789 H   0  0  0  0  0  0  0  0  0  0  0  0
    7.7849    1.5395  -14.9716 H   0  0  0  0  0  0  0  0  0  0  0  0
    9.3001    3.3313  -14.1981 H   0  0  0  0  0  0  0  0  0  0  0  0
    8.6907    8.4127   -9.9928 H   0  0  0  0  0  0  0  0  0  0  0  0
   10.0902    8.9737  -10.8630 H   0  0  0  0  0  0  0  0  0  0  0  0
    9.8184    9.5330   -8.1748 H   0  0  0  0  0  0  0  0  0  0  0  0
   11.2324    9.8158   -9.1812 H   0  0  0  0  0  0  0  0  0  0  0  0
   11.8595    9.9186   -6.8332 H   0  0  0  0  0  0  0  0  0  0  0  0
   12.6739    8.5758   -7.6010 H   0  0  0  0  0  0  0  0  0  0  0  0
   12.2261    6.0356   -2.5342 H   0  0  0  0  0  0  0  0  0  0  0  0
   12.6256    8.2634   -1.3768 H   0  0  0  0  0  0  0  0  0  0  0  0
   12.2136   10.3376   -2.7550 H   0  0  0  0  0  0  0  0  0  0  0  0
   11.6545    6.1800   -7.2211 H   0  0  0  0  0  0  0  0  0  0  0  0
   10.1880    6.1220   -6.2561 H   0  0  0  0  0  0  0  0  0  0  0  0
    8.9100    7.3713   -7.9338 H   0  0  0  0  0  0  0  0  0  0  0  0
    9.6710    5.9929   -8.6970 H   0  0  0  0  0  0  0  0  0  0  0  0
   11.5043    6.9351  -12.4549 H   0  0  0  0  0  0  0  0  0  0  0  0
    6.0850    5.0267  -11.8451 H   0  0  0  0  0  0  0  0  0  0  0  0
    4.5798    3.2317  -12.6470 H   0  0  0  0  0  0  0  0  0  0  0  0
    7.6109    6.3391  -10.9849 H   0  0  0  0  0  0  0  0  0  0  0  0
  2  1  2  0
  3  2  1  0
  4  3  2  0
  5  4  1  0
  6  5  1  0
  7  6  1  0
  8  7  1  0
  9  8  1  0
 10  9  1  0
 11 10  1  0
 12 11  1  0
 13 12  1  0
 14 13  2  0
 15 14  1  0
 16 15  2  0
 17 16  1  0
 18 13  1  0
 18 17  2  0
 19 12  1  0
 20  9  1  0
 20 19  1  0
 21  7  2  0
 22  5  2  0
 22 21  1  0
 23  4  1  0
 24  1  1  0
 24 23  2  0
 25  1  1  0
 26  2  1  0
 27  3  1  0
 28  8  1  0
 29  8  1  0
 30 10  1  0
 31 10  1  0
 32 11  1  0
 33 11  1  0
 34 15  1  0
 35 16  1  0
 36 17  1  0
 37 19  1  0
 38 19  1  0
 39 20  1  0
 40 20  1  0
 41 21  1  0
 42 23  1  0
 43 24  1  0
 44  6  1  0
M  END
>  <b_m_subgroup_collapsed>  (827) 
0

>  <r_i_docking_score>  (827) 
-7.2862845313887501

>  <s_m_subgroup_title>  (827) 
glide-dock_SP_D22_pv

>  <s_m_subgroupid>  (827) 
glide-dock_SP_D22_pv

>  <Molecule ChEMBL ID>  (827) 
CHEMBL103772

>  <Standard Type>  (827) 
Ki

>  <Standard Value>  (827) 
36.1

>  <label>  (827) 
1

$$$$
CHEMBL5722986
     RDKit          3D

 43 46  0  0  1  0  0  0  0  0999 V2000
   11.2857   10.9333   -5.5689 O   0  0  0  0  0  0  0  0  0  0  0  0
   11.2857    9.7088   -5.6495 C   0  0  0  0  0  0  0  0  0  0  0  0
   10.8845    9.0263   -6.8960 C   0  0  0  0  0  0  0  0  0  0  0  0
   10.8465    7.6812   -6.9684 C   0  0  0  0  0  0  0  0  0  0  0  0
   10.4969    6.9407   -8.2414 C   0  0  0  0  0  0  0  0  0  0  0  0
    9.2551    6.1952   -8.1238 N   0  0  0  0  0  0  0  0  0  0  0  0
    9.0421    5.3277   -9.2805 C   0  0  0  0  0  0  0  0  0  0  0  0
    9.0266    6.0891  -10.6231 C   0  0  0  0  0  0  0  0  0  0  0  0
    8.4288    5.2783  -11.7307 C   0  0  0  0  0  0  0  0  0  0  0  0
    7.0966    5.2158  -12.0459 C   0  0  0  0  0  0  0  0  0  0  0  0
    6.7868    4.1018  -13.3442 S   0  0  0  0  0  0  0  0  0  0  0  0
    8.5225    3.7761  -13.4455 C   0  0  0  0  0  0  0  0  0  0  0  0
    9.0629    2.8059  -14.4158 C   0  0  0  0  0  0  0  0  0  0  0  0
    8.1847    2.0438  -15.0787 N   0  0  0  0  0  0  0  0  0  0  0  0
    8.6705    1.1419  -15.9534 C   0  0  0  0  0  0  0  0  0  0  0  0
   10.0482    1.0203  -16.1980 C   0  0  0  0  0  0  0  0  0  0  0  0
   10.8833    1.8892  -15.4765 C   0  0  0  0  0  0  0  0  0  0  0  0
   10.3898    2.7736  -14.5884 N   0  0  0  0  0  0  0  0  0  0  0  0
    9.2309    4.4686  -12.5419 N   0  0  0  0  0  0  0  0  0  0  0  0
   11.2092    6.8843   -5.8965 N   0  0  0  0  0  0  0  0  0  0  0  0
   11.6495    7.4228   -4.6832 C   0  0  0  0  0  0  0  0  0  0  0  0
   12.0617    6.5751   -3.6415 C   0  0  0  0  0  0  0  0  0  0  0  0
   12.4812    7.1139   -2.4174 C   0  0  0  0  0  0  0  0  0  0  0  0
   12.4856    8.5060   -2.2319 C   0  0  0  0  0  0  0  0  0  0  0  0
   12.8913    9.0103   -1.0498 F   0  0  0  0  0  0  0  0  0  0  0  0
   12.0851    9.3670   -3.2706 C   0  0  0  0  0  0  0  0  0  0  0  0
   11.6842    8.8284   -4.5134 C   0  0  0  0  0  0  0  0  0  0  0  0
   10.6271    9.6335   -7.7499 H   0  0  0  0  0  0  0  0  0  0  0  0
   11.2896    6.2337   -8.4674 H   0  0  0  0  0  0  0  0  0  0  0  0
   10.4470    7.6535   -9.0652 H   0  0  0  0  0  0  0  0  0  0  0  0
    8.4606    6.8230   -8.0369 H   0  0  0  0  0  0  0  0  0  0  0  0
    8.0851    4.8307   -9.1305 H   0  0  0  0  0  0  0  0  0  0  0  0
    9.7958    4.5396   -9.3040 H   0  0  0  0  0  0  0  0  0  0  0  0
   10.0440    6.3711  -10.8956 H   0  0  0  0  0  0  0  0  0  0  0  0
    8.4868    7.0276  -10.5178 H   0  0  0  0  0  0  0  0  0  0  0  0
    6.2846    5.7443  -11.5629 H   0  0  0  0  0  0  0  0  0  0  0  0
    7.9534    0.5195  -16.4689 H   0  0  0  0  0  0  0  0  0  0  0  0
   10.4419    0.3054  -16.9042 H   0  0  0  0  0  0  0  0  0  0  0  0
   11.9544    1.8722  -15.6112 H   0  0  0  0  0  0  0  0  0  0  0  0
   11.1286    5.8800   -5.9917 H   0  0  0  0  0  0  0  0  0  0  0  0
   12.0742    5.5106   -3.7848 H   0  0  0  0  0  0  0  0  0  0  0  0
   12.7981    6.4581   -1.6191 H   0  0  0  0  0  0  0  0  0  0  0  0
   12.0871   10.4335   -3.0967 H   0  0  0  0  0  0  0  0  0  0  0  0
  2  1  2  0
  3  2  1  0
  4  3  2  0
  5  4  1  0
  6  5  1  0
  7  6  1  0
  8  7  1  0
  9  8  1  0
 10  9  2  0
 11 10  1  0
 12 11  1  0
 13 12  1  0
 14 13  2  0
 15 14  1  0
 16 15  2  0
 17 16  1  0
 18 13  1  0
 18 17  2  0
 19  9  1  0
 19 12  2  0
 20  4  1  0
 21 20  1  0
 22 21  2  0
 23 22  1  0
 24 23  2  0
 25 24  1  0
 26 24  1  0
 27  2  1  0
 27 21  1  0
 27 26  2  0
 28  3  1  0
 29  5  1  0
 30  5  1  0
 31  6  1  0
 32  7  1  0
 33  7  1  0
 34  8  1  0
 35  8  1  0
 36 10  1  0
 37 15  1  0
 38 16  1  0
 39 17  1  0
 40 20  1  0
 41 22  1  0
 42 23  1  0
 43 26  1  0
M  END
>  <b_m_subgroup_collapsed>  (828) 
0

>  <r_i_docking_score>  (828) 
-7.2842721205390104

>  <s_m_subgroup_title>  (828) 
glide-dock_SP_D22_pv

>  <s_m_subgroupid>  (828) 
glide-dock_SP_D22_pv

>  <Molecule ChEMBL ID>  (828) 
CHEMBL5722986

>  <Standard Type>  (828) 
Ki

>  <Standard Value>  (828) 
10000.0

>  <label>  (828) 
0

$$$$
CHEMBL563563
     RDKit          3D

 57 60  0  0  1  0  0  0  0  0999 V2000
    9.2381    2.4042  -14.4701 C   0  0  0  0  0  0  0  0  0  0  0  0
    9.0542    3.8331  -13.9122 C   0  0  0  0  0  0  0  0  0  0  0  0
    9.6915    4.7763  -14.9544 C   0  0  0  0  0  0  0  0  0  0  0  0
    9.8244    3.9654  -12.5679 C   0  0  0  0  0  0  0  0  0  0  0  0
    9.1163    4.7337  -11.4297 C   0  0  2  0  0  0  0  0  0  0  0  0
    7.6433    4.3970  -11.3057 C   0  0  0  0  0  0  0  0  0  0  0  0
    7.1111    5.0295  -12.5772 C   0  0  1  0  0  0  0  0  0  0  0  0
    5.5963    5.1946  -12.5421 C   0  0  0  0  0  0  0  0  0  0  0  0
    7.8379    6.3840  -12.6022 C   0  0  0  0  0  0  0  0  0  0  0  0
    8.9512    6.1821  -11.6528 N   0  0  2  0  0  0  0  0  0  0  0  0
   10.1062    7.0917  -11.6555 C   0  0  0  0  0  0  0  0  0  0  0  0
    9.8543    8.1997  -10.6203 C   0  0  0  0  0  0  0  0  0  0  0  0
    9.9336    7.7475   -9.2196 N   0  0  0  0  0  0  0  0  0  0  0  0
    9.1170    6.6820   -8.6565 C   0  0  0  0  0  0  0  0  0  0  0  0
    9.2462    6.8645   -7.1569 C   0  0  0  0  0  0  0  0  0  0  0  0
   10.2642    7.8878   -7.0618 N   0  0  0  0  0  0  0  0  0  0  0  0
   10.8410    8.2549   -5.8265 C   0  0  0  0  0  0  0  0  0  0  0  0
   10.8702    9.6101   -5.4402 C   0  0  0  0  0  0  0  0  0  0  0  0
   11.3222    9.9559   -4.1601 C   0  0  0  0  0  0  0  0  0  0  0  0
   11.8454    8.9876   -3.2950 C   0  0  0  0  0  0  0  0  0  0  0  0
   11.8545    7.6446   -3.6940 C   0  0  0  0  0  0  0  0  0  0  0  0
   12.4860    6.4772   -2.6153 Cl  0  0  0  0  0  0  0  0  0  0  0  0
   11.3243    7.2649   -4.9430 C   0  0  0  0  0  0  0  0  0  0  0  0
   10.5772    8.4154   -8.2554 C   0  0  0  0  0  0  0  0  0  0  0  0
   11.3181    9.3723   -8.4423 O   0  0  0  0  0  0  0  0  0  0  0  0
    7.5253    4.0977  -13.7368 C   0  0  0  0  0  0  0  0  0  0  0  0
   10.2927    2.1564  -14.5990 H   0  0  0  0  0  0  0  0  0  0  0  0
    8.8142    1.6483  -13.8092 H   0  0  0  0  0  0  0  0  0  0  0  0
    8.7536    2.2917  -15.4408 H   0  0  0  0  0  0  0  0  0  0  0  0
   10.6780    4.4208  -15.2552 H   0  0  0  0  0  0  0  0  0  0  0  0
    9.0924    4.8563  -15.8609 H   0  0  0  0  0  0  0  0  0  0  0  0
    9.8501    5.7723  -14.5621 H   0  0  0  0  0  0  0  0  0  0  0  0
   10.0105    2.9723  -12.1718 H   0  0  0  0  0  0  0  0  0  0  0  0
   10.8220    4.3745  -12.7319 H   0  0  0  0  0  0  0  0  0  0  0  0
    9.6513    4.5116  -10.5122 H   0  0  0  0  0  0  0  0  0  0  0  0
    7.2860    4.9136  -10.4230 H   0  0  0  0  0  0  0  0  0  0  0  0
    7.3252    3.3723  -11.2061 H   0  0  0  0  0  0  0  0  0  0  0  0
    5.2860    5.7986  -11.6873 H   0  0  0  0  0  0  0  0  0  0  0  0
    5.2443    5.6889  -13.4469 H   0  0  0  0  0  0  0  0  0  0  0  0
    5.0916    4.2307  -12.4651 H   0  0  0  0  0  0  0  0  0  0  0  0
    7.2105    7.2015  -12.2469 H   0  0  0  0  0  0  0  0  0  0  0  0
    8.1372    6.6373  -13.6104 H   0  0  0  0  0  0  0  0  0  0  0  0
   10.2430    7.5188  -12.6469 H   0  0  0  0  0  0  0  0  0  0  0  0
   11.0288    6.5723  -11.4080 H   0  0  0  0  0  0  0  0  0  0  0  0
    8.8860    8.6753  -10.7857 H   0  0  0  0  0  0  0  0  0  0  0  0
   10.6010    8.9723  -10.7991 H   0  0  0  0  0  0  0  0  0  0  0  0
    8.0860    6.7029   -8.9965 H   0  0  0  0  0  0  0  0  0  0  0  0
    9.5571    5.7203   -8.8865 H   0  0  0  0  0  0  0  0  0  0  0  0
    9.5322    5.9391   -6.6590 H   0  0  0  0  0  0  0  0  0  0  0  0
    8.3140    7.2252   -6.7177 H   0  0  0  0  0  0  0  0  0  0  0  0
   10.4860   10.3801   -6.0931 H   0  0  0  0  0  0  0  0  0  0  0  0
   11.2860   10.9723   -3.8323 H   0  0  0  0  0  0  0  0  0  0  0  0
   12.2204    9.2739   -2.3227 H   0  0  0  0  0  0  0  0  0  0  0  0
   11.3103    6.2205   -5.2193 H   0  0  0  0  0  0  0  0  0  0  0  0
    7.0151    3.1449  -13.5837 H   0  0  0  0  0  0  0  0  0  0  0  0
    7.0980    4.4851  -14.6469 H   0  0  0  0  0  0  0  0  0  0  0  0
    8.5035    6.4557  -10.7864 H   0  0  0  0  0  0  0  0  0  0  0  0
  2  1  1  0
  3  2  1  0
  4  2  1  0
  5  4  1  0
  6  5  1  0
  7  6  1  0
  7  8  1  1
  9  7  1  0
 10  5  1  0
 10  9  1  0
 11 10  1  0
 12 11  1  0
 13 12  1  0
 14 13  1  0
 15 14  1  0
 16 15  1  0
 17 16  1  0
 18 17  2  0
 19 18  1  0
 20 19  2  0
 21 20  1  0
 22 21  1  0
 23 17  1  0
 23 21  2  0
 24 13  1  0
 24 16  1  0
 25 24  2  0
 26  2  1  0
 26  7  1  0
 27  1  1  0
 28  1  1  0
 29  1  1  0
 30  3  1  0
 31  3  1  0
 32  3  1  0
 33  4  1  0
 34  4  1  0
  5 35  1  1
 36  6  1  0
 37  6  1  0
 38  8  1  0
 39  8  1  0
 40  8  1  0
 41  9  1  0
 42  9  1  0
 43 11  1  0
 44 11  1  0
 45 12  1  0
 46 12  1  0
 47 14  1  0
 48 14  1  0
 49 15  1  0
 50 15  1  0
 51 18  1  0
 52 19  1  0
 53 20  1  0
 54 23  1  0
 55 26  1  0
 56 26  1  0
 10 57  1  1
M  CHG  1  10   1
M  END
>  <b_m_subgroup_collapsed>  (829) 
0

>  <r_i_docking_score>  (829) 
-7.2728317416688801

>  <s_m_subgroup_title>  (829) 
glide-dock_SP_D22_pv

>  <s_m_subgroupid>  (829) 
glide-dock_SP_D22_pv

>  <Molecule ChEMBL ID>  (829) 
CHEMBL563563

>  <Standard Type>  (829) 
Ki

>  <Standard Value>  (829) 
100.0

>  <label>  (829) 
1

$$$$
CHEMBL487761
     RDKit          3D

 70 73  0  0  1  0  0  0  0  0999 V2000
   13.7917   -0.9343  -20.1541 C   0  0  0  0  0  0  0  0  0  0  0  0
   12.5665   -1.0276  -19.4461 O   0  0  0  0  0  0  0  0  0  0  0  0
   12.2022    0.0269  -18.6404 C   0  0  0  0  0  0  0  0  0  0  0  0
   12.8459    1.2913  -18.6479 C   0  0  0  0  0  0  0  0  0  0  0  0
   12.4329    2.2997  -17.7576 C   0  0  0  0  0  0  0  0  0  0  0  0
   11.3836    2.0608  -16.8489 C   0  0  0  0  0  0  0  0  0  0  0  0
   10.7280    0.8130  -16.8413 C   0  0  0  0  0  0  0  0  0  0  0  0
    9.6056    0.5479  -15.8522 C   0  0  0  0  0  0  0  0  0  0  0  0
    8.3206    1.3014  -16.2234 C   0  0  0  0  0  0  0  0  0  0  0  0
    7.1480    0.9569  -15.3165 C   0  0  0  0  0  0  0  0  0  0  0  0
    6.4255   -0.2258  -15.5750 C   0  0  0  0  0  0  0  0  0  0  0  0
    5.3129   -0.5730  -14.7906 C   0  0  0  0  0  0  0  0  0  0  0  0
    4.9194    0.2733  -13.7400 C   0  0  0  0  0  0  0  0  0  0  0  0
    5.6449    1.4465  -13.4589 C   0  0  0  0  0  0  0  0  0  0  0  0
    6.7733    1.8069  -14.2469 C   0  0  0  0  0  0  0  0  0  0  0  0
    7.5361    2.9398  -14.0316 O   0  0  0  0  0  0  0  0  0  0  0  0
    7.1693    3.8537  -13.0036 C   0  0  0  0  0  0  0  0  0  0  0  0
    8.4285    4.5671  -12.4943 C   0  0  0  0  0  0  0  0  0  0  0  0
    8.0983    5.5971  -11.4034 C   0  0  0  0  0  0  0  0  0  0  0  0
    9.3151    6.0077  -10.5648 C   0  0  0  0  0  0  0  0  0  0  0  0
    8.9203    6.9997   -9.4550 C   0  0  0  0  0  0  0  0  0  0  0  0
   10.0458    7.3723   -8.5994 N   0  0  0  0  0  0  0  0  0  0  0  0
    9.6514    8.5418   -7.8024 C   0  0  0  0  0  0  0  0  0  0  0  0
   10.8189    8.9986   -6.9016 C   0  0  0  0  0  0  0  0  0  0  0  0
   11.2617    7.9023   -6.0378 N   0  0  0  0  0  0  0  0  0  0  0  0
   11.6153    8.0734   -4.7020 C   0  0  0  0  0  0  0  0  0  0  0  0
   11.7797    6.9723   -3.9650 N   0  0  0  0  0  0  0  0  0  0  0  0
   12.0863    7.1252   -2.6603 C   0  0  0  0  0  0  0  0  0  0  0  0
   12.2564    8.3985   -2.0931 C   0  0  0  0  0  0  0  0  0  0  0  0
   12.0609    9.4888   -2.9583 C   0  0  0  0  0  0  0  0  0  0  0  0
   11.7345    9.3254   -4.2507 N   0  0  0  0  0  0  0  0  0  0  0  0
   11.5499    6.6824   -6.7899 C   0  0  0  0  0  0  0  0  0  0  0  0
   10.3500    6.2862   -7.6633 C   0  0  0  0  0  0  0  0  0  0  0  0
   11.1265   -0.1867  -17.7532 C   0  0  0  0  0  0  0  0  0  0  0  0
   13.9902   -1.8798  -20.6567 H   0  0  0  0  0  0  0  0  0  0  0  0
   13.7513   -0.1560  -20.9180 H   0  0  0  0  0  0  0  0  0  0  0  0
   14.6287   -0.7377  -19.4805 H   0  0  0  0  0  0  0  0  0  0  0  0
   13.6643    1.5041  -19.3194 H   0  0  0  0  0  0  0  0  0  0  0  0
   12.9314    3.2578  -17.7608 H   0  0  0  0  0  0  0  0  0  0  0  0
   11.0872    2.8343  -16.1562 H   0  0  0  0  0  0  0  0  0  0  0  0
    9.9359    0.8371  -14.8547 H   0  0  0  0  0  0  0  0  0  0  0  0
    9.4092   -0.5244  -15.8124 H   0  0  0  0  0  0  0  0  0  0  0  0
    8.0387    1.0563  -17.2480 H   0  0  0  0  0  0  0  0  0  0  0  0
    8.4977    2.3780  -16.2145 H   0  0  0  0  0  0  0  0  0  0  0  0
    6.7211   -0.8760  -16.3852 H   0  0  0  0  0  0  0  0  0  0  0  0
    4.7580   -1.4726  -15.0040 H   0  0  0  0  0  0  0  0  0  0  0  0
    4.0508    0.0238  -13.1502 H   0  0  0  0  0  0  0  0  0  0  0  0
    5.2829    2.0590  -12.6489 H   0  0  0  0  0  0  0  0  0  0  0  0
    6.7179    3.3724  -12.1397 H   0  0  0  0  0  0  0  0  0  0  0  0
    6.4469    4.5716  -13.3963 H   0  0  0  0  0  0  0  0  0  0  0  0
    8.9521    5.0502  -13.3204 H   0  0  0  0  0  0  0  0  0  0  0  0
    9.1100    3.8134  -12.0983 H   0  0  0  0  0  0  0  0  0  0  0  0
    7.3504    5.1785  -10.7298 H   0  0  0  0  0  0  0  0  0  0  0  0
    7.6366    6.4773  -11.8554 H   0  0  0  0  0  0  0  0  0  0  0  0
   10.0765    6.4546  -11.2054 H   0  0  0  0  0  0  0  0  0  0  0  0
    9.7534    5.1065  -10.1359 H   0  0  0  0  0  0  0  0  0  0  0  0
    8.1063    6.5906   -8.8528 H   0  0  0  0  0  0  0  0  0  0  0  0
    8.5304    7.8989   -9.9346 H   0  0  0  0  0  0  0  0  0  0  0  0
    8.7754    8.3073   -7.1949 H   0  0  0  0  0  0  0  0  0  0  0  0
    9.3660    9.3611   -8.4636 H   0  0  0  0  0  0  0  0  0  0  0  0
   10.4930    9.8608   -6.3193 H   0  0  0  0  0  0  0  0  0  0  0  0
   11.6608    9.3350   -7.5100 H   0  0  0  0  0  0  0  0  0  0  0  0
   12.2035    6.2250   -2.0750 H   0  0  0  0  0  0  0  0  0  0  0  0
   12.4947    8.5364   -1.0502 H   0  0  0  0  0  0  0  0  0  0  0  0
   12.1193   10.5082   -2.6032 H   0  0  0  0  0  0  0  0  0  0  0  0
   12.4132    6.8646   -7.4341 H   0  0  0  0  0  0  0  0  0  0  0  0
   11.8085    5.8497   -6.1354 H   0  0  0  0  0  0  0  0  0  0  0  0
    9.4824    6.0560   -7.0414 H   0  0  0  0  0  0  0  0  0  0  0  0
   10.6069    5.3764   -8.2042 H   0  0  0  0  0  0  0  0  0  0  0  0
   10.6304   -1.1483  -17.7519 H   0  0  0  0  0  0  0  0  0  0  0  0
  2  1  1  0
  3  2  1  0
  4  3  1  0
  5  4  2  0
  6  5  1  0
  7  6  2  0
  8  7  1  0
  9  8  1  0
 10  9  1  0
 11 10  2  0
 12 11  1  0
 13 12  2  0
 14 13  1  0
 15 10  1  0
 15 14  2  0
 16 15  1  0
 17 16  1  0
 18 17  1  0
 19 18  1  0
 20 19  1  0
 21 20  1  0
 22 21  1  0
 23 22  1  0
 24 23  1  0
 25 24  1  0
 26 25  1  0
 27 26  2  0
 28 27  1  0
 29 28  2  0
 30 29  1  0
 31 26  1  0
 31 30  2  0
 32 25  1  0
 33 22  1  0
 33 32  1  0
 34  3  2  0
 34  7  1  0
 35  1  1  0
 36  1  1  0
 37  1  1  0
 38  4  1  0
 39  5  1  0
 40  6  1  0
 41  8  1  0
 42  8  1  0
 43  9  1  0
 44  9  1  0
 45 11  1  0
 46 12  1  0
 47 13  1  0
 48 14  1  0
 49 17  1  0
 50 17  1  0
 51 18  1  0
 52 18  1  0
 53 19  1  0
 54 19  1  0
 55 20  1  0
 56 20  1  0
 57 21  1  0
 58 21  1  0
 59 23  1  0
 60 23  1  0
 61 24  1  0
 62 24  1  0
 63 28  1  0
 64 29  1  0
 65 30  1  0
 66 32  1  0
 67 32  1  0
 68 33  1  0
 69 33  1  0
 70 34  1  0
M  END
>  <b_m_subgroup_collapsed>  (830) 
0

>  <r_i_docking_score>  (830) 
-7.2715859825476503

>  <s_m_subgroup_title>  (830) 
glide-dock_SP_D22_pv

>  <s_m_subgroupid>  (830) 
glide-dock_SP_D22_pv

>  <Molecule ChEMBL ID>  (830) 
CHEMBL487761

>  <Standard Type>  (830) 
Ki

>  <Standard Value>  (830) 
1000000.0

>  <label>  (830) 
0

$$$$
CHEMBL352925
     RDKit          3D

 53 56  0  0  1  0  0  0  0  0999 V2000
   10.1230    0.5834  -16.1355 C   0  0  0  0  0  0  0  0  0  0  0  0
    8.8160    0.3118  -15.6868 C   0  0  0  0  0  0  0  0  0  0  0  0
    8.1216    1.2588  -14.9110 C   0  0  0  0  0  0  0  0  0  0  0  0
    8.7321    2.4896  -14.5807 C   0  0  0  0  0  0  0  0  0  0  0  0
    8.0218    3.4567  -13.7419 C   0  0  0  0  0  0  0  0  0  0  0  0
    6.6901    3.6555  -13.8471 N   0  0  0  0  0  0  0  0  0  0  0  0
    5.9076    4.5898  -13.0192 C   0  0  0  0  0  0  0  0  0  0  0  0
    6.8038    5.7309  -12.5251 C   0  0  0  0  0  0  0  0  0  0  0  0
    8.0462    5.1274  -11.8566 C   0  0  2  0  0  0  0  0  0  0  0  0
    9.0879    6.1892  -11.4515 C   0  0  0  0  0  0  0  0  0  0  0  0
    8.8861    6.8223  -10.1207 N   0  0  0  0  0  0  0  0  0  0  0  0
    9.0583    5.8583   -8.9916 C   0  0  0  0  0  0  0  0  0  0  0  0
    9.0809    6.5360   -7.6088 C   0  0  0  0  0  0  0  0  0  0  0  0
   10.0500    7.6249   -7.5898 N   0  0  0  0  0  0  0  0  0  0  0  0
   10.6165    8.0064   -6.3531 C   0  0  0  0  0  0  0  0  0  0  0  0
   11.1229    7.0259   -5.4668 C   0  0  0  0  0  0  0  0  0  0  0  0
   11.6920    7.3914   -4.2306 C   0  0  0  0  0  0  0  0  0  0  0  0
   11.7628    8.7452   -3.8571 C   0  0  0  0  0  0  0  0  0  0  0  0
   11.2687    9.7320   -4.7282 C   0  0  0  0  0  0  0  0  0  0  0  0
   10.7189    9.3662   -5.9701 C   0  0  0  0  0  0  0  0  0  0  0  0
    9.8076    8.6330   -8.6121 C   0  0  0  0  0  0  0  0  0  0  0  0
    9.7887    8.0007  -10.0084 C   0  0  0  0  0  0  0  0  0  0  0  0
    8.6723    4.1724  -12.7973 N   0  0  0  0  0  0  0  0  0  0  0  0
   10.0409    2.7627  -15.0396 C   0  0  0  0  0  0  0  0  0  0  0  0
   10.7339    1.8094  -15.8130 C   0  0  0  0  0  0  0  0  0  0  0  0
   10.6540   -0.1466  -16.7290 H   0  0  0  0  0  0  0  0  0  0  0  0
    8.3409   -0.6270  -15.9331 H   0  0  0  0  0  0  0  0  0  0  0  0
    7.1248    1.0208  -14.5628 H   0  0  0  0  0  0  0  0  0  0  0  0
    5.0708    4.9797  -13.5984 H   0  0  0  0  0  0  0  0  0  0  0  0
    5.4908    4.0479  -12.1686 H   0  0  0  0  0  0  0  0  0  0  0  0
    7.1172    6.3714  -13.3473 H   0  0  0  0  0  0  0  0  0  0  0  0
    6.2372    6.3635  -11.8465 H   0  0  0  0  0  0  0  0  0  0  0  0
    7.7361    4.5406  -10.9924 H   0  0  0  0  0  0  0  0  0  0  0  0
   10.0867    5.7534  -11.4702 H   0  0  0  0  0  0  0  0  0  0  0  0
    9.0942    6.9709  -12.2131 H   0  0  0  0  0  0  0  0  0  0  0  0
    8.2577    5.1205   -8.9990 H   0  0  0  0  0  0  0  0  0  0  0  0
    9.9954    5.3139   -9.1239 H   0  0  0  0  0  0  0  0  0  0  0  0
    8.0894    6.9321   -7.3741 H   0  0  0  0  0  0  0  0  0  0  0  0
    9.2911    5.7808   -6.8547 H   0  0  0  0  0  0  0  0  0  0  0  0
   11.0999    5.9804   -5.7280 H   0  0  0  0  0  0  0  0  0  0  0  0
   12.0697    6.6295   -3.5663 H   0  0  0  0  0  0  0  0  0  0  0  0
   12.1878    9.0263   -2.9024 H   0  0  0  0  0  0  0  0  0  0  0  0
   11.2862   10.7717   -4.4393 H   0  0  0  0  0  0  0  0  0  0  0  0
   10.3592   10.1571   -6.6066 H   0  0  0  0  0  0  0  0  0  0  0  0
    8.8654    9.1472   -8.4094 H   0  0  0  0  0  0  0  0  0  0  0  0
   10.6046    9.3754   -8.6013 H   0  0  0  0  0  0  0  0  0  0  0  0
   10.8081    7.6941  -10.2517 H   0  0  0  0  0  0  0  0  0  0  0  0
    9.5063    8.7533  -10.7458 H   0  0  0  0  0  0  0  0  0  0  0  0
    9.6264    3.8993  -12.6108 H   0  0  0  0  0  0  0  0  0  0  0  0
   10.5266    3.6986  -14.8021 H   0  0  0  0  0  0  0  0  0  0  0  0
   11.7371    2.0168  -16.1589 H   0  0  0  0  0  0  0  0  0  0  0  0
    6.1840    3.1326  -14.5482 H   0  0  0  0  0  0  0  0  0  0  0  0
    7.9257    7.1858  -10.0776 H   0  0  0  0  0  0  0  0  0  0  0  0
  2  1  2  0
  3  2  1  0
  4  3  2  0
  5  4  1  0
  6  5  2  0
  7  6  1  0
  8  7  1  0
  9  8  1  0
 10  9  1  0
 11 10  1  0
 12 11  1  0
 13 12  1  0
 14 13  1  0
 15 14  1  0
 16 15  2  0
 17 16  1  0
 18 17  2  0
 19 18  1  0
 20 15  1  0
 20 19  2  0
 21 14  1  0
 22 11  1  0
 22 21  1  0
 23  5  1  0
 23  9  1  0
 24  4  1  0
 25  1  1  0
 25 24  2  0
 26  1  1  0
 27  2  1  0
 28  3  1  0
 29  7  1  0
 30  7  1  0
 31  8  1  0
 32  8  1  0
  9 33  1  1
 34 10  1  0
 35 10  1  0
 36 12  1  0
 37 12  1  0
 38 13  1  0
 39 13  1  0
 40 16  1  0
 41 17  1  0
 42 18  1  0
 43 19  1  0
 44 20  1  0
 45 21  1  0
 46 21  1  0
 47 22  1  0
 48 22  1  0
 49 23  1  0
 50 24  1  0
 51 25  1  0
 52  6  1  0
 53 11  1  0
M  CHG  2   6   1  11   1
M  END
>  <b_m_subgroup_collapsed>  (831) 
0

>  <r_i_docking_score>  (831) 
-7.2699841167534904

>  <s_m_subgroup_title>  (831) 
glide-dock_SP_D22_pv

>  <s_m_subgroupid>  (831) 
glide-dock_SP_D22_pv

>  <Molecule ChEMBL ID>  (831) 
CHEMBL352925

>  <Standard Type>  (831) 
Ki

>  <Standard Value>  (831) 
25000.0

>  <label>  (831) 
0

$$$$
CHEMBL433121
     RDKit          3D

 53 55  0  0  1  0  0  0  0  0999 V2000
    6.3073    8.1519  -12.6469 C   0  0  0  0  0  0  0  0  0  0  0  0
    7.8399    8.2543  -12.6777 C   0  0  0  0  0  0  0  0  0  0  0  0
    8.7066    8.3386  -11.3976 C   0  0  0  0  0  0  0  0  0  0  0  0
    8.8860    7.0710  -10.6205 N   0  0  1  0  0  0  0  0  0  0  0  0
    9.0770    5.8172  -11.4145 C   0  0  0  0  0  0  0  0  0  0  0  0
   10.0630    5.8430  -12.5894 C   0  0  0  0  0  0  0  0  0  0  0  0
   11.2036    6.6773  -12.6263 C   0  0  0  0  0  0  0  0  0  0  0  0
   12.0860    6.6406  -13.7216 C   0  0  0  0  0  0  0  0  0  0  0  0
   11.8621    5.7569  -14.7996 C   0  0  0  0  0  0  0  0  0  0  0  0
   12.8065    5.6973  -15.9321 N   0  0  0  0  0  0  0  0  0  0  0  0
   12.6415    4.8234  -16.7771 O   0  0  0  0  0  0  0  0  0  0  0  0
   13.7124    6.5243  -15.9781 O   0  0  0  0  0  0  0  0  0  0  0  0
   10.7207    4.9245  -14.7650 C   0  0  0  0  0  0  0  0  0  0  0  0
    9.8312    4.9708  -13.6742 C   0  0  0  0  0  0  0  0  0  0  0  0
    9.7509    7.1278   -9.3900 C   0  0  2  0  0  0  0  0  0  0  0  0
    9.1613    6.2629   -8.2621 C   0  0  0  0  0  0  0  0  0  0  0  0
   10.0892    6.1723   -7.0397 C   0  0  0  0  0  0  0  0  0  0  0  0
   10.7001    7.4775   -6.5801 C   0  0  0  0  0  0  0  0  0  0  0  0
   10.6922    8.5747   -7.4629 C   0  0  0  0  0  0  0  0  0  0  0  0
   11.2860    9.7673   -7.0465 C   0  0  0  0  0  0  0  0  0  0  0  0
   11.8204    9.9281   -5.7668 C   0  0  0  0  0  0  0  0  0  0  0  0
   11.8204    8.8477   -4.8827 C   0  0  0  0  0  0  0  0  0  0  0  0
   11.2814    7.6005   -5.2841 C   0  0  0  0  0  0  0  0  0  0  0  0
   11.2857    6.5083   -4.4454 O   0  0  0  0  0  0  0  0  0  0  0  0
   11.8088    6.6789   -3.1306 C   0  0  0  0  0  0  0  0  0  0  0  0
    9.9984    8.5442   -8.8234 C   0  0  0  0  0  0  0  0  0  0  0  0
    5.9053    8.1723  -13.6595 H   0  0  0  0  0  0  0  0  0  0  0  0
    5.9748    7.1963  -12.2468 H   0  0  0  0  0  0  0  0  0  0  0  0
    5.8440    8.9717  -12.0940 H   0  0  0  0  0  0  0  0  0  0  0  0
    8.0861    9.1810  -13.1952 H   0  0  0  0  0  0  0  0  0  0  0  0
    8.1246    7.4249  -13.3139 H   0  0  0  0  0  0  0  0  0  0  0  0
    8.2759    9.1136  -10.7649 H   0  0  0  0  0  0  0  0  0  0  0  0
    9.6861    8.7153  -11.6835 H   0  0  0  0  0  0  0  0  0  0  0  0
    9.3558    4.9859  -10.7675 H   0  0  0  0  0  0  0  0  0  0  0  0
    8.0949    5.5481  -11.8060 H   0  0  0  0  0  0  0  0  0  0  0  0
   11.4329    7.3417  -11.8076 H   0  0  0  0  0  0  0  0  0  0  0  0
   12.9552    7.2829  -13.7151 H   0  0  0  0  0  0  0  0  0  0  0  0
   10.5204    4.2383  -15.5750 H   0  0  0  0  0  0  0  0  0  0  0  0
    8.9705    4.3173  -13.6690 H   0  0  0  0  0  0  0  0  0  0  0  0
   10.7276    6.7168   -9.6497 H   0  0  0  0  0  0  0  0  0  0  0  0
    8.2112    6.6953   -7.9466 H   0  0  0  0  0  0  0  0  0  0  0  0
    8.9272    5.2531   -8.5982 H   0  0  0  0  0  0  0  0  0  0  0  0
   10.9098    5.4868   -7.2522 H   0  0  0  0  0  0  0  0  0  0  0  0
    9.5107    5.7724   -6.2174 H   0  0  0  0  0  0  0  0  0  0  0  0
   11.2860   10.5723   -7.7314 H   0  0  0  0  0  0  0  0  0  0  0  0
   12.2219   10.8771   -5.4591 H   0  0  0  0  0  0  0  0  0  0  0  0
   12.2569    9.0084   -3.9091 H   0  0  0  0  0  0  0  0  0  0  0  0
   11.6837    5.7723   -2.5486 H   0  0  0  0  0  0  0  0  0  0  0  0
   12.8762    6.9029   -3.1539 H   0  0  0  0  0  0  0  0  0  0  0  0
   11.2863    7.4656   -2.5848 H   0  0  0  0  0  0  0  0  0  0  0  0
    9.0476    9.0595   -8.6801 H   0  0  0  0  0  0  0  0  0  0  0  0
   10.5838    9.1382   -9.5266 H   0  0  0  0  0  0  0  0  0  0  0  0
    7.9363    7.0015  -10.2465 H   0  0  0  0  0  0  0  0  0  0  0  0
  2  1  1  0
  3  2  1  0
  4  3  1  0
  5  4  1  0
  6  5  1  0
  7  6  1  0
  8  7  2  0
  9  8  1  0
 10  9  1  0
 11 10  2  0
 12 10  1  0
 13  9  2  0
 14  6  2  0
 14 13  1  0
 15  4  1  0
 16 15  1  0
 17 16  1  0
 18 17  1  0
 19 18  1  0
 20 19  2  0
 21 20  1  0
 22 21  2  0
 23 18  2  0
 23 22  1  0
 24 23  1  0
 25 24  1  0
 26 15  1  0
 26 19  1  0
 27  1  1  0
 28  1  1  0
 29  1  1  0
 30  2  1  0
 31  2  1  0
 32  3  1  0
 33  3  1  0
 34  5  1  0
 35  5  1  0
 36  7  1  0
 37  8  1  0
 38 13  1  0
 39 14  1  0
 15 40  1  6
 41 16  1  0
 42 16  1  0
 43 17  1  0
 44 17  1  0
 45 20  1  0
 46 21  1  0
 47 22  1  0
 48 25  1  0
 49 25  1  0
 50 25  1  0
 51 26  1  0
 52 26  1  0
  4 53  1  1
M  CHG  3   4   1  10   1  12  -1
M  END
>  <b_m_subgroup_collapsed>  (832) 
0

>  <r_i_docking_score>  (832) 
-7.2679884322273303

>  <s_m_subgroup_title>  (832) 
glide-dock_SP_D22_pv

>  <s_m_subgroupid>  (832) 
glide-dock_SP_D22_pv

>  <Molecule ChEMBL ID>  (832) 
CHEMBL433121

>  <Standard Type>  (832) 
Ki

>  <Standard Value>  (832) 
59.2

>  <label>  (832) 
1

$$$$
CHEMBL1258999
     RDKit          3D

 53 56  0  0  1  0  0  0  0  0999 V2000
   12.2799    9.3587   -5.5978 C   0  0  0  0  0  0  0  0  0  0  0  0
   11.4815    8.7926   -6.7521 C   0  0  0  0  0  0  0  0  0  0  0  0
   10.1263    8.4853   -6.5662 C   0  0  0  0  0  0  0  0  0  0  0  0
    9.3678    8.0334   -7.6577 C   0  0  0  0  0  0  0  0  0  0  0  0
   10.0188    7.8789   -8.8978 C   0  0  0  0  0  0  0  0  0  0  0  0
    9.2372    7.4751  -10.1292 C   0  0  0  0  0  0  0  0  0  0  0  0
    8.4864    6.2206   -9.9022 N   0  0  0  0  0  0  0  0  0  0  0  0
    9.0702    5.0108  -10.4980 C   0  0  0  0  0  0  0  0  0  0  0  0
    8.7233    4.8251  -11.9933 C   0  0  0  0  0  0  0  0  0  0  0  0
    8.8140    5.9997  -12.6193 F   0  0  0  0  0  0  0  0  0  0  0  0
    9.7592    3.9053  -12.6778 C   0  0  0  0  0  0  0  0  0  0  0  0
    9.3719    3.5948  -14.1348 C   0  0  0  0  0  0  0  0  0  0  0  0
    8.0403    2.9737  -14.1510 N   0  0  0  0  0  0  0  0  0  0  0  0
    7.8573    1.6942  -14.5807 C   0  0  0  0  0  0  0  0  0  0  0  0
    8.7531    1.0571  -15.1346 O   0  0  0  0  0  0  0  0  0  0  0  0
    6.5312    1.0412  -14.3590 C   0  0  0  0  0  0  0  0  0  0  0  0
    5.7192    1.0219  -13.2495 C   0  0  0  0  0  0  0  0  0  0  0  0
    4.6170    0.2392  -13.4467 O   0  0  0  0  0  0  0  0  0  0  0  0
    4.7149   -0.2736  -14.7239 C   0  0  0  0  0  0  0  0  0  0  0  0
    3.7954   -1.1138  -15.3692 C   0  0  0  0  0  0  0  0  0  0  0  0
    4.0869   -1.5520  -16.6740 C   0  0  0  0  0  0  0  0  0  0  0  0
    5.2778   -1.1392  -17.3071 C   0  0  0  0  0  0  0  0  0  0  0  0
    6.1827   -0.2828  -16.6425 C   0  0  0  0  0  0  0  0  0  0  0  0
    5.9182    0.1737  -15.3291 C   0  0  0  0  0  0  0  0  0  0  0  0
    7.0141    3.9124  -13.6642 C   0  0  0  0  0  0  0  0  0  0  0  0
    7.2785    4.3018  -12.1969 C   0  0  0  0  0  0  0  0  0  0  0  0
   11.3367    8.1185   -9.0773 N   0  0  0  0  0  0  0  0  0  0  0  0
   12.0496    8.5728   -8.0242 C   0  0  0  0  0  0  0  0  0  0  0  0
   11.7925   10.2518   -5.2075 H   0  0  0  0  0  0  0  0  0  0  0  0
   12.3600    8.6296   -4.7900 H   0  0  0  0  0  0  0  0  0  0  0  0
   13.2815    9.6342   -5.9097 H   0  0  0  0  0  0  0  0  0  0  0  0
    9.6842    8.6287   -5.5977 H   0  0  0  0  0  0  0  0  0  0  0  0
    8.3097    7.8414   -7.5380 H   0  0  0  0  0  0  0  0  0  0  0  0
    8.5271    8.2735  -10.3547 H   0  0  0  0  0  0  0  0  0  0  0  0
    9.9005    7.4035  -10.9915 H   0  0  0  0  0  0  0  0  0  0  0  0
    8.4108    6.1048   -8.9017 H   0  0  0  0  0  0  0  0  0  0  0  0
   10.1434    5.0394  -10.3378 H   0  0  0  0  0  0  0  0  0  0  0  0
    8.7012    4.1725   -9.9158 H   0  0  0  0  0  0  0  0  0  0  0  0
   10.7583    4.3518  -12.6473 H   0  0  0  0  0  0  0  0  0  0  0  0
    9.8352    2.9734  -12.1212 H   0  0  0  0  0  0  0  0  0  0  0  0
    9.3590    4.5068  -14.7326 H   0  0  0  0  0  0  0  0  0  0  0  0
   10.1434    2.9651  -14.5793 H   0  0  0  0  0  0  0  0  0  0  0  0
    5.7788    1.4859  -12.2760 H   0  0  0  0  0  0  0  0  0  0  0  0
    2.8885   -1.4281  -14.8746 H   0  0  0  0  0  0  0  0  0  0  0  0
    3.4029   -2.2207  -17.1794 H   0  0  0  0  0  0  0  0  0  0  0  0
    5.4987   -1.4853  -18.3063 H   0  0  0  0  0  0  0  0  0  0  0  0
    7.0912    0.0234  -17.1387 H   0  0  0  0  0  0  0  0  0  0  0  0
    7.0781    4.8266  -14.2472 H   0  0  0  0  0  0  0  0  0  0  0  0
    5.9936    3.5594  -13.8050 H   0  0  0  0  0  0  0  0  0  0  0  0
    7.0719    3.4518  -11.5506 H   0  0  0  0  0  0  0  0  0  0  0  0
    6.5646    5.0695  -11.8941 H   0  0  0  0  0  0  0  0  0  0  0  0
   13.0929    8.7846   -8.2087 H   0  0  0  0  0  0  0  0  0  0  0  0
    7.5430    6.3958  -10.2438 H   0  0  0  0  0  0  0  0  0  0  0  0
  2  1  1  0
  3  2  2  0
  4  3  1  0
  5  4  2  0
  6  5  1  0
  7  6  1  0
  8  7  1  0
  9  8  1  0
 10  9  1  0
 11  9  1  0
 12 11  1  0
 13 12  1  0
 14 13  1  0
 15 14  2  0
 16 14  1  0
 17 16  2  0
 18 17  1  0
 19 18  1  0
 20 19  2  0
 21 20  1  0
 22 21  2  0
 23 22  1  0
 24 16  1  0
 24 19  1  0
 24 23  2  0
 25 13  1  0
 26  9  1  0
 26 25  1  0
 27  5  1  0
 28  2  1  0
 28 27  2  0
 29  1  1  0
 30  1  1  0
 31  1  1  0
 32  3  1  0
 33  4  1  0
 34  6  1  0
 35  6  1  0
 36  7  1  0
 37  8  1  0
 38  8  1  0
 39 11  1  0
 40 11  1  0
 41 12  1  0
 42 12  1  0
 43 17  1  0
 44 20  1  0
 45 21  1  0
 46 22  1  0
 47 23  1  0
 48 25  1  0
 49 25  1  0
 50 26  1  0
 51 26  1  0
 52 28  1  0
 53  7  1  0
M  CHG  1   7   1
M  END
>  <b_m_subgroup_collapsed>  (833) 
0

>  <r_i_docking_score>  (833) 
-7.2678982843879103

>  <s_m_subgroup_title>  (833) 
glide-dock_SP_D22_pv

>  <s_m_subgroupid>  (833) 
glide-dock_SP_D22_pv

>  <Molecule ChEMBL ID>  (833) 
CHEMBL1258999

>  <Standard Type>  (833) 
Ki

>  <Standard Value>  (833) 
27000.0

>  <label>  (833) 
0

$$$$
CHEMBL134343
     RDKit          3D

 40 42  0  0  1  0  0  0  0  0999 V2000
    8.2727    0.1722  -15.4849 O   0  0  0  0  0  0  0  0  0  0  0  0
    7.5441    1.0865  -14.7784 C   0  0  0  0  0  0  0  0  0  0  0  0
    8.0315    2.4009  -14.6206 C   0  0  0  0  0  0  0  0  0  0  0  0
    7.3238    3.3459  -13.8469 C   0  0  0  0  0  0  0  0  0  0  0  0
    6.0891    2.9721  -13.2606 C   0  0  0  0  0  0  0  0  0  0  0  0
    5.5909    1.6653  -13.4431 C   0  0  0  0  0  0  0  0  0  0  0  0
    6.3158    0.7215  -14.1922 C   0  0  0  0  0  0  0  0  0  0  0  0
    5.6861   -0.8741  -14.3824 Cl  0  0  0  0  0  0  0  0  0  0  0  0
    5.3268    3.9520  -12.3991 C   0  0  0  0  0  0  0  0  0  0  0  0
    5.8647    5.3839  -12.5301 C   0  0  0  0  0  0  0  0  0  0  0  0
    7.4020    5.4195  -12.6227 C   0  0  1  0  0  0  0  0  0  0  0  0
    8.1403    5.0142  -11.3244 C   0  0  0  0  0  0  0  0  0  0  0  0
    8.4860    6.1723  -10.4642 N   0  0  0  0  0  0  0  0  0  0  0  0
    9.0831    5.7727   -9.1761 C   0  0  0  0  0  0  0  0  0  0  0  0
    9.8068    6.9320   -8.5279 C   0  0  0  0  0  0  0  0  0  0  0  0
   11.0263    7.3856   -9.0735 C   0  0  0  0  0  0  0  0  0  0  0  0
   11.7399    8.4260   -8.4492 C   0  0  0  0  0  0  0  0  0  0  0  0
   11.2371    9.0105   -7.2716 C   0  0  0  0  0  0  0  0  0  0  0  0
   10.0095    8.5736   -6.7386 C   0  0  0  0  0  0  0  0  0  0  0  0
    9.2873    7.5410   -7.3670 C   0  0  0  0  0  0  0  0  0  0  0  0
    7.8607    4.6071  -13.7055 O   0  0  0  0  0  0  0  0  0  0  0  0
    7.9139   -0.7085  -15.4517 H   0  0  0  0  0  0  0  0  0  0  0  0
    8.9747    2.6772  -15.0696 H   0  0  0  0  0  0  0  0  0  0  0  0
    4.6518    1.3776  -12.9934 H   0  0  0  0  0  0  0  0  0  0  0  0
    4.2699    3.9009  -12.6494 H   0  0  0  0  0  0  0  0  0  0  0  0
    5.4120    3.6135  -11.3695 H   0  0  0  0  0  0  0  0  0  0  0  0
    5.4594    5.8165  -13.4462 H   0  0  0  0  0  0  0  0  0  0  0  0
    5.5049    6.0051  -11.7099 H   0  0  0  0  0  0  0  0  0  0  0  0
    7.7010    6.4357  -12.8819 H   0  0  0  0  0  0  0  0  0  0  0  0
    7.5629    4.2824  -10.7569 H   0  0  0  0  0  0  0  0  0  0  0  0
    9.0791    4.5196  -11.5869 H   0  0  0  0  0  0  0  0  0  0  0  0
    9.1390    6.7677  -10.9533 H   0  0  0  0  0  0  0  0  0  0  0  0
    8.3039    5.3827   -8.5189 H   0  0  0  0  0  0  0  0  0  0  0  0
    9.8025    4.9661   -9.3276 H   0  0  0  0  0  0  0  0  0  0  0  0
   11.4270    6.9328   -9.9684 H   0  0  0  0  0  0  0  0  0  0  0  0
   12.6760    8.7682   -8.8663 H   0  0  0  0  0  0  0  0  0  0  0  0
   11.7877    9.8044   -6.7865 H   0  0  0  0  0  0  0  0  0  0  0  0
    9.6228    9.0375   -5.8470 H   0  0  0  0  0  0  0  0  0  0  0  0
    8.3445    7.2149   -6.9471 H   0  0  0  0  0  0  0  0  0  0  0  0
    7.6442    6.7295  -10.2640 H   0  0  0  0  0  0  0  0  0  0  0  0
  2  1  1  0
  3  2  2  0
  4  3  1  0
  5  4  2  0
  6  5  1  0
  7  2  1  0
  7  6  2  0
  8  7  1  0
  9  5  1  0
 10  9  1  0
 11 10  1  0
 12 11  1  0
 13 12  1  0
 14 13  1  0
 15 14  1  0
 16 15  2  0
 17 16  1  0
 18 17  2  0
 19 18  1  0
 20 15  1  0
 20 19  2  0
 21  4  1  0
 21 11  1  0
 22  1  1  0
 23  3  1  0
 24  6  1  0
 25  9  1  0
 26  9  1  0
 27 10  1  0
 28 10  1  0
 11 29  1  6
 30 12  1  0
 31 12  1  0
 32 13  1  0
 33 14  1  0
 34 14  1  0
 35 16  1  0
 36 17  1  0
 37 18  1  0
 38 19  1  0
 39 20  1  0
 40 13  1  0
M  CHG  1  13   1
M  END
>  <b_m_subgroup_collapsed>  (834) 
0

>  <r_i_docking_score>  (834) 
-7.2645033791337097

>  <s_m_subgroup_title>  (834) 
glide-dock_SP_D22_pv

>  <s_m_subgroupid>  (834) 
glide-dock_SP_D22_pv

>  <Molecule ChEMBL ID>  (834) 
CHEMBL134343

>  <Standard Type>  (834) 
Ki

>  <Standard Value>  (834) 
77.0

>  <label>  (834) 
1

$$$$
CHEMBL5420316
     RDKit          3D

 59 61  0  0  1  0  0  0  0  0999 V2000
   12.0599    6.5688   -3.1168 C   0  0  0  0  0  0  0  0  0  0  0  0
   12.1675    8.0272   -2.9796 N   0  0  0  0  0  0  0  0  0  0  0  0
   12.7348    8.4542   -1.6958 C   0  0  0  0  0  0  0  0  0  0  0  0
   11.6860    9.0020   -3.7997 C   0  0  0  0  0  0  0  0  0  0  0  0
   11.6835   10.1711   -3.4191 O   0  0  0  0  0  0  0  0  0  0  0  0
   11.3126    8.7208   -5.0763 N   0  0  0  0  0  0  0  0  0  0  0  0
   10.9376    9.8269   -5.9634 C   0  0  0  0  0  0  0  0  0  0  0  0
   10.5368    9.2199   -7.3027 C   0  0  0  0  0  0  0  0  0  0  0  0
   10.1191    7.8006   -6.9619 C   0  0  1  0  0  0  0  0  0  0  0  0
    8.7477    7.7642   -6.6471 O   0  0  0  0  0  0  0  0  0  0  0  0
   10.3732    6.7864   -8.0770 C   0  0  0  0  0  0  0  0  0  0  0  0
    9.4323    6.9402   -9.2745 C   0  0  0  0  0  0  0  0  0  0  0  0
    9.9331    6.0903  -10.4330 C   0  0  0  0  0  0  0  0  0  0  0  0
    8.8669    5.8249  -11.4167 N   0  0  0  0  0  0  0  0  0  0  0  0
    9.4164    5.6660  -12.7820 C   0  0  0  0  0  0  0  0  0  0  0  0
    8.2973    5.3760  -13.8037 C   0  0  0  0  0  0  0  0  0  0  0  0
    7.4293    4.2848  -13.3648 N   0  0  0  0  0  0  0  0  0  0  0  0
    7.4306    2.9782  -13.9171 C   0  0  0  0  0  0  0  0  0  0  0  0
    6.2096    2.2619  -13.8451 C   0  0  0  0  0  0  0  0  0  0  0  0
    6.1052    0.9301  -14.2779 C   0  0  0  0  0  0  0  0  0  0  0  0
    7.2236    0.2906  -14.8310 C   0  0  0  0  0  0  0  0  0  0  0  0
    8.4424    0.9808  -14.9454 C   0  0  0  0  0  0  0  0  0  0  0  0
    9.7999    0.1590  -15.6318 Cl  0  0  0  0  0  0  0  0  0  0  0  0
    8.5613    2.3175  -14.4963 C   0  0  0  0  0  0  0  0  0  0  0  0
   10.1259    3.0478  -14.6391 Cl  0  0  0  0  0  0  0  0  0  0  0  0
    6.8934    4.4459  -12.0134 C   0  0  0  0  0  0  0  0  0  0  0  0
    8.0515    4.6506  -11.0328 C   0  0  0  0  0  0  0  0  0  0  0  0
   10.8938    7.4570   -5.6888 C   0  0  0  0  0  0  0  0  0  0  0  0
   12.4804    6.2169   -4.0518 H   0  0  0  0  0  0  0  0  0  0  0  0
   12.6035    6.0194   -2.3482 H   0  0  0  0  0  0  0  0  0  0  0  0
   11.0217    6.2463   -3.0432 H   0  0  0  0  0  0  0  0  0  0  0  0
   12.0683    9.1295   -1.1567 H   0  0  0  0  0  0  0  0  0  0  0  0
   12.9094    7.6154   -1.0375 H   0  0  0  0  0  0  0  0  0  0  0  0
   13.6825    8.9723   -1.8456 H   0  0  0  0  0  0  0  0  0  0  0  0
   10.0889   10.3419   -5.5100 H   0  0  0  0  0  0  0  0  0  0  0  0
   11.7470   10.5493   -6.0827 H   0  0  0  0  0  0  0  0  0  0  0  0
   11.4062    9.2118   -7.9623 H   0  0  0  0  0  0  0  0  0  0  0  0
    9.7429    9.7717   -7.8037 H   0  0  0  0  0  0  0  0  0  0  0  0
    8.2202    7.7855   -7.4352 H   0  0  0  0  0  0  0  0  0  0  0  0
   11.4079    6.8830   -8.4063 H   0  0  0  0  0  0  0  0  0  0  0  0
   10.2747    5.7735   -7.6798 H   0  0  0  0  0  0  0  0  0  0  0  0
    8.4281    6.6360   -8.9802 H   0  0  0  0  0  0  0  0  0  0  0  0
    9.3605    7.9820   -9.5913 H   0  0  0  0  0  0  0  0  0  0  0  0
   10.7730    6.6098  -10.8970 H   0  0  0  0  0  0  0  0  0  0  0  0
   10.3230    5.1417  -10.0615 H   0  0  0  0  0  0  0  0  0  0  0  0
    9.9576    6.5704  -13.0502 H   0  0  0  0  0  0  0  0  0  0  0  0
   10.1536    4.8660  -12.7591 H   0  0  0  0  0  0  0  0  0  0  0  0
    7.6875    6.2767  -13.8458 H   0  0  0  0  0  0  0  0  0  0  0  0
    8.6785    5.2210  -14.8124 H   0  0  0  0  0  0  0  0  0  0  0  0
    5.3250    2.7343  -13.4432 H   0  0  0  0  0  0  0  0  0  0  0  0
    5.1639    0.4052  -14.2025 H   0  0  0  0  0  0  0  0  0  0  0  0
    7.1435   -0.7302  -15.1734 H   0  0  0  0  0  0  0  0  0  0  0  0
    6.2202    5.3051  -11.9896 H   0  0  0  0  0  0  0  0  0  0  0  0
    6.3081    3.5877  -11.6841 H   0  0  0  0  0  0  0  0  0  0  0  0
    8.6958    3.7731  -11.0557 H   0  0  0  0  0  0  0  0  0  0  0  0
    7.6884    4.7558  -10.0136 H   0  0  0  0  0  0  0  0  0  0  0  0
   10.2827    6.8343   -5.0370 H   0  0  0  0  0  0  0  0  0  0  0  0
   11.7841    6.8924   -5.9604 H   0  0  0  0  0  0  0  0  0  0  0  0
    8.2460    6.6260  -11.4198 H   0  0  0  0  0  0  0  0  0  0  0  0
  2  1  1  0
  3  2  1  0
  4  2  1  0
  5  4  2  0
  6  4  1  0
  7  6  1  0
  8  7  1  0
  9  8  1  0
  9 10  1  1
 11  9  1  0
 12 11  1  0
 13 12  1  0
 14 13  1  0
 15 14  1  0
 16 15  1  0
 17 16  1  0
 18 17  1  0
 19 18  2  0
 20 19  1  0
 21 20  2  0
 22 21  1  0
 23 22  1  0
 24 18  1  0
 24 22  2  0
 25 24  1  0
 26 17  1  0
 27 14  1  0
 27 26  1  0
 28  6  1  0
 28  9  1  0
 29  1  1  0
 30  1  1  0
 31  1  1  0
 32  3  1  0
 33  3  1  0
 34  3  1  0
 35  7  1  0
 36  7  1  0
 37  8  1  0
 38  8  1  0
 39 10  1  0
 40 11  1  0
 41 11  1  0
 42 12  1  0
 43 12  1  0
 44 13  1  0
 45 13  1  0
 46 15  1  0
 47 15  1  0
 48 16  1  0
 49 16  1  0
 50 19  1  0
 51 20  1  0
 52 21  1  0
 53 26  1  0
 54 26  1  0
 55 27  1  0
 56 27  1  0
 57 28  1  0
 58 28  1  0
 59 14  1  0
M  CHG  1  14   1
M  END
>  <b_m_subgroup_collapsed>  (835) 
0

>  <r_i_docking_score>  (835) 
-7.2639697849828098

>  <s_m_subgroup_title>  (835) 
glide-dock_SP_D22_pv

>  <s_m_subgroupid>  (835) 
glide-dock_SP_D22_pv

>  <Molecule ChEMBL ID>  (835) 
CHEMBL5420316

>  <Standard Type>  (835) 
Ki

>  <Standard Value>  (835) 
89.8

>  <label>  (835) 
1

$$$$
CHEMBL87478
     RDKit          3D

 69 73  0  0  1  0  0  0  0  0999 V2000
    4.0321   -1.2952  -17.6343 C   0  0  0  0  0  0  0  0  0  0  0  0
    5.0647   -0.1893  -17.3717 C   0  0  0  0  0  0  0  0  0  0  0  0
    6.4563   -0.5203  -17.9280 C   0  0  0  0  0  0  0  0  0  0  0  0
    7.6410    0.8136  -17.5773 S   0  0  0  0  0  0  0  0  0  0  0  0
    9.2204    0.3138  -18.2176 C   0  0  0  0  0  0  0  0  0  0  0  0
    9.2726   -0.2977  -19.4897 C   0  0  0  0  0  0  0  0  0  0  0  0
   10.5091   -0.6273  -20.0743 C   0  0  0  0  0  0  0  0  0  0  0  0
   11.7058   -0.3536  -19.3886 C   0  0  0  0  0  0  0  0  0  0  0  0
   11.6644    0.2500  -18.1212 C   0  0  0  0  0  0  0  0  0  0  0  0
   10.4312    0.5826  -17.5208 C   0  0  0  0  0  0  0  0  0  0  0  0
   10.4594    1.2070  -16.2638 N   0  0  0  0  0  0  0  0  0  0  0  0
    9.8440    0.6333  -15.0794 C   0  0  0  0  0  0  0  0  0  0  0  0
    8.9694    1.6958  -14.3819 C   0  0  0  0  0  0  0  0  0  0  0  0
    9.7175    2.9339  -14.1159 N   0  0  0  0  0  0  0  0  0  0  0  0
    8.7961    3.8905  -13.5015 C   0  0  0  0  0  0  0  0  0  0  0  0
    9.5292    5.0596  -12.8261 C   0  0  0  0  0  0  0  0  0  0  0  0
    8.5592    6.1739  -12.4032 C   0  0  0  0  0  0  0  0  0  0  0  0
    9.3025    7.2792  -11.9053 O   0  0  0  0  0  0  0  0  0  0  0  0
    9.6862    7.3031  -10.5841 C   0  0  0  0  0  0  0  0  0  0  0  0
   10.5142    8.3748  -10.2048 C   0  0  0  0  0  0  0  0  0  0  0  0
   10.9097    8.5430   -8.8679 C   0  0  0  0  0  0  0  0  0  0  0  0
   10.4805    7.6299   -7.8852 C   0  0  0  0  0  0  0  0  0  0  0  0
   10.8898    7.8226   -6.5055 C   0  0  0  0  0  0  0  0  0  0  0  0
   10.9527    9.0301   -5.9361 N   0  0  0  0  0  0  0  0  0  0  0  0
   11.4279    8.7530   -4.6710 C   0  0  0  0  0  0  0  0  0  0  0  0
   11.6859    9.6083   -3.5821 C   0  0  0  0  0  0  0  0  0  0  0  0
   12.2170    9.0991   -2.3817 C   0  0  0  0  0  0  0  0  0  0  0  0
   12.4568    7.7200   -2.2428 C   0  0  0  0  0  0  0  0  0  0  0  0
   12.1418    6.8351   -3.2877 C   0  0  0  0  0  0  0  0  0  0  0  0
   11.6549    7.3609   -4.4937 C   0  0  0  0  0  0  0  0  0  0  0  0
   11.2713    6.8114   -5.6997 N   0  0  0  0  0  0  0  0  0  0  0  0
    9.6873    6.5260   -8.2597 C   0  0  0  0  0  0  0  0  0  0  0  0
    9.2930    6.3602   -9.6005 C   0  0  0  0  0  0  0  0  0  0  0  0
   10.2384    3.4663  -15.3868 C   0  0  0  0  0  0  0  0  0  0  0  0
   11.1793    2.4525  -16.0644 C   0  0  0  0  0  0  0  0  0  0  0  0
    3.0541   -1.0261  -17.2335 H   0  0  0  0  0  0  0  0  0  0  0  0
    3.9101   -1.4768  -18.7036 H   0  0  0  0  0  0  0  0  0  0  0  0
    4.3285   -2.2349  -17.1637 H   0  0  0  0  0  0  0  0  0  0  0  0
    5.1331   -0.0112  -16.2971 H   0  0  0  0  0  0  0  0  0  0  0  0
    4.7140    0.7422  -17.8194 H   0  0  0  0  0  0  0  0  0  0  0  0
    6.3901   -0.6739  -19.0054 H   0  0  0  0  0  0  0  0  0  0  0  0
    6.8291   -1.4467  -17.4884 H   0  0  0  0  0  0  0  0  0  0  0  0
    8.3684   -0.4863  -20.0462 H   0  0  0  0  0  0  0  0  0  0  0  0
   10.5375   -1.0833  -21.0531 H   0  0  0  0  0  0  0  0  0  0  0  0
   12.6563   -0.6068  -19.8373 H   0  0  0  0  0  0  0  0  0  0  0  0
   12.5871    0.4582  -17.6027 H   0  0  0  0  0  0  0  0  0  0  0  0
    9.2469   -0.2422  -15.3395 H   0  0  0  0  0  0  0  0  0  0  0  0
   10.6285    0.2907  -14.4042 H   0  0  0  0  0  0  0  0  0  0  0  0
    8.0963    1.9194  -14.9989 H   0  0  0  0  0  0  0  0  0  0  0  0
    8.5987    1.2790  -13.4469 H   0  0  0  0  0  0  0  0  0  0  0  0
    8.0846    4.2545  -14.2462 H   0  0  0  0  0  0  0  0  0  0  0  0
    8.2070    3.3889  -12.7338 H   0  0  0  0  0  0  0  0  0  0  0  0
   10.0855    4.6916  -11.9622 H   0  0  0  0  0  0  0  0  0  0  0  0
   10.2657    5.5029  -13.4964 H   0  0  0  0  0  0  0  0  0  0  0  0
    8.0205    6.5288  -13.2829 H   0  0  0  0  0  0  0  0  0  0  0  0
    7.7900    5.8244  -11.7132 H   0  0  0  0  0  0  0  0  0  0  0  0
   10.8421    9.0799  -10.9532 H   0  0  0  0  0  0  0  0  0  0  0  0
   11.5392    9.3752   -8.5994 H   0  0  0  0  0  0  0  0  0  0  0  0
   11.4744   10.6587   -3.6731 H   0  0  0  0  0  0  0  0  0  0  0  0
   12.4362    9.7718   -1.5661 H   0  0  0  0  0  0  0  0  0  0  0  0
   12.8785    7.3387   -1.3238 H   0  0  0  0  0  0  0  0  0  0  0  0
   12.2950    5.7724   -3.1718 H   0  0  0  0  0  0  0  0  0  0  0  0
   11.2671    5.8349   -5.9635 H   0  0  0  0  0  0  0  0  0  0  0  0
    9.3522    5.8173   -7.5153 H   0  0  0  0  0  0  0  0  0  0  0  0
    8.6594    5.5180   -9.8359 H   0  0  0  0  0  0  0  0  0  0  0  0
    9.4108    3.7084  -16.0580 H   0  0  0  0  0  0  0  0  0  0  0  0
   10.7887    4.3914  -15.2201 H   0  0  0  0  0  0  0  0  0  0  0  0
   12.0618    2.2719  -15.4473 H   0  0  0  0  0  0  0  0  0  0  0  0
   11.5285    2.8538  -17.0151 H   0  0  0  0  0  0  0  0  0  0  0  0
  2  1  1  0
  3  2  1  0
  4  3  1  0
  5  4  1  0
  6  5  2  0
  7  6  1  0
  8  7  2  0
  9  8  1  0
 10  5  1  0
 10  9  2  0
 11 10  1  0
 12 11  1  0
 13 12  1  0
 14 13  1  0
 15 14  1  0
 16 15  1  0
 17 16  1  0
 18 17  1  0
 19 18  1  0
 20 19  1  0
 21 20  2  0
 22 21  1  0
 23 22  1  0
 24 23  2  0
 25 24  1  0
 26 25  2  0
 27 26  1  0
 28 27  2  0
 29 28  1  0
 30 25  1  0
 30 29  2  0
 31 23  1  0
 31 30  1  0
 32 22  2  0
 33 19  2  0
 33 32  1  0
 34 14  1  0
 35 11  1  0
 35 34  1  0
 36  1  1  0
 37  1  1  0
 38  1  1  0
 39  2  1  0
 40  2  1  0
 41  3  1  0
 42  3  1  0
 43  6  1  0
 44  7  1  0
 45  8  1  0
 46  9  1  0
 47 12  1  0
 48 12  1  0
 49 13  1  0
 50 13  1  0
 51 15  1  0
 52 15  1  0
 53 16  1  0
 54 16  1  0
 55 17  1  0
 56 17  1  0
 57 20  1  0
 58 21  1  0
 59 26  1  0
 60 27  1  0
 61 28  1  0
 62 29  1  0
 63 31  1  0
 64 32  1  0
 65 33  1  0
 66 34  1  0
 67 34  1  0
 68 35  1  0
 69 35  1  0
M  END
>  <b_m_subgroup_collapsed>  (836) 
0

>  <r_i_docking_score>  (836) 
-7.2633373116747704

>  <s_m_subgroup_title>  (836) 
glide-dock_SP_D22_pv

>  <s_m_subgroupid>  (836) 
glide-dock_SP_D22_pv

>  <Molecule ChEMBL ID>  (836) 
CHEMBL87478

>  <Standard Type>  (836) 
Ki

>  <Standard Value>  (836) 
8.0

>  <label>  (836) 
1

$$$$
CHEMBL2031884
     RDKit          3D

 62 65  0  0  1  0  0  0  0  0999 V2000
   12.2794    8.0318   -2.3910 C   0  0  0  0  0  0  0  0  0  0  0  0
   12.3063    9.2994   -3.2516 C   0  0  0  0  0  0  0  0  0  0  0  0
   12.0350    8.9753   -4.6482 N   0  0  0  0  0  0  0  0  0  0  0  0
   11.1513    9.6102   -5.4310 C   0  0  0  0  0  0  0  0  0  0  0  0
   10.4862   10.5713   -5.0471 O   0  0  0  0  0  0  0  0  0  0  0  0
   10.9732    9.0242   -6.8046 C   0  0  0  0  0  0  0  0  0  0  0  0
   12.0860    8.7448   -7.6232 C   0  0  0  0  0  0  0  0  0  0  0  0
   11.9190    8.1781   -8.9031 C   0  0  0  0  0  0  0  0  0  0  0  0
   10.6333    7.8867   -9.4169 C   0  0  0  0  0  0  0  0  0  0  0  0
   10.4667    7.2231  -10.7369 C   0  0  0  0  0  0  0  0  0  0  0  0
    9.3696    6.3603  -10.9794 C   0  0  0  0  0  0  0  0  0  0  0  0
    9.2491    5.6413  -12.1857 C   0  0  0  0  0  0  0  0  0  0  0  0
   10.2305    5.7576  -13.1927 C   0  0  0  0  0  0  0  0  0  0  0  0
   11.3223    6.6275  -12.9735 C   0  0  0  0  0  0  0  0  0  0  0  0
   11.4220    7.3720  -11.7738 C   0  0  0  0  0  0  0  0  0  0  0  0
   12.4003    6.7291  -14.0318 C   0  0  0  0  0  0  0  0  0  0  0  0
   11.8398    6.4928  -15.4372 C   0  0  0  0  0  0  0  0  0  0  0  0
   10.9047    5.3597  -15.5142 N   0  0  0  0  0  0  0  0  0  0  0  0
   10.8416    4.7282  -16.8399 C   0  0  0  0  0  0  0  0  0  0  0  0
    9.9121    5.5142  -17.7861 C   0  0  0  0  0  0  0  0  0  0  0  0
    9.9572    4.9919  -19.1739 N   0  0  1  0  0  0  0  0  0  0  0  0
    9.2988    3.6846  -19.3941 C   0  0  0  0  0  0  0  0  0  0  0  0
    8.8502    3.6654  -20.8644 C   0  0  0  0  0  0  0  0  0  0  0  0
    9.3606    4.9805  -21.4613 C   0  0  0  0  0  0  0  0  0  0  0  0
    9.5184    5.9096  -20.2544 C   0  0  1  0  0  0  0  0  0  0  0  0
    8.2082    6.6682  -19.9508 C   0  0  0  0  0  0  0  0  0  0  0  0
   10.1121    4.9723  -14.4810 C   0  0  0  0  0  0  0  0  0  0  0  0
    9.2868    4.0632  -14.5827 O   0  0  0  0  0  0  0  0  0  0  0  0
    9.5208    8.2068   -8.6019 C   0  0  0  0  0  0  0  0  0  0  0  0
    9.6856    8.7621   -7.3154 C   0  0  0  0  0  0  0  0  0  0  0  0
   12.5477    8.2613   -1.3598 H   0  0  0  0  0  0  0  0  0  0  0  0
   11.2863    7.5835   -2.3812 H   0  0  0  0  0  0  0  0  0  0  0  0
   12.9762    7.2814   -2.7640 H   0  0  0  0  0  0  0  0  0  0  0  0
   13.2858    9.7716   -3.1929 H   0  0  0  0  0  0  0  0  0  0  0  0
   11.5889   10.0208   -2.8549 H   0  0  0  0  0  0  0  0  0  0  0  0
   12.5112    8.1765   -5.0388 H   0  0  0  0  0  0  0  0  0  0  0  0
   13.0846    8.9723   -7.2783 H   0  0  0  0  0  0  0  0  0  0  0  0
   12.8026    7.9569   -9.4823 H   0  0  0  0  0  0  0  0  0  0  0  0
    8.6070    6.2167  -10.2265 H   0  0  0  0  0  0  0  0  0  0  0  0
    8.3988    4.9880  -12.3210 H   0  0  0  0  0  0  0  0  0  0  0  0
   12.2706    8.0261  -11.6375 H   0  0  0  0  0  0  0  0  0  0  0  0
   12.9128    7.6903  -13.9751 H   0  0  0  0  0  0  0  0  0  0  0  0
   13.1375    5.9512  -13.8439 H   0  0  0  0  0  0  0  0  0  0  0  0
   11.2882    7.3723  -15.7548 H   0  0  0  0  0  0  0  0  0  0  0  0
   12.6681    6.3852  -16.1387 H   0  0  0  0  0  0  0  0  0  0  0  0
   11.8445    4.6693  -17.2649 H   0  0  0  0  0  0  0  0  0  0  0  0
   10.5103    3.6912  -16.7572 H   0  0  0  0  0  0  0  0  0  0  0  0
    8.8872    5.5064  -17.4142 H   0  0  0  0  0  0  0  0  0  0  0  0
   10.2348    6.5554  -17.8095 H   0  0  0  0  0  0  0  0  0  0  0  0
    9.9920    2.8739  -19.1687 H   0  0  0  0  0  0  0  0  0  0  0  0
    8.4366    3.5726  -18.7362 H   0  0  0  0  0  0  0  0  0  0  0  0
    9.2418    2.8015  -21.4045 H   0  0  0  0  0  0  0  0  0  0  0  0
    7.7605    3.6228  -20.9228 H   0  0  0  0  0  0  0  0  0  0  0  0
   10.3351    4.8161  -21.9252 H   0  0  0  0  0  0  0  0  0  0  0  0
    8.6998    5.3796  -22.2318 H   0  0  0  0  0  0  0  0  0  0  0  0
   10.3051    6.6433  -20.4410 H   0  0  0  0  0  0  0  0  0  0  0  0
    7.9648    7.3480  -20.7681 H   0  0  0  0  0  0  0  0  0  0  0  0
    7.3621    5.9913  -19.8465 H   0  0  0  0  0  0  0  0  0  0  0  0
    8.2746    7.2757  -19.0476 H   0  0  0  0  0  0  0  0  0  0  0  0
    8.5167    8.0184   -8.9550 H   0  0  0  0  0  0  0  0  0  0  0  0
    8.8099    8.9716   -6.7171 H   0  0  0  0  0  0  0  0  0  0  0  0
   10.9338    4.8316  -19.3767 H   0  0  0  0  0  0  0  0  0  0  0  0
  2  1  1  0
  3  2  1  0
  4  3  1  0
  5  4  2  0
  6  4  1  0
  7  6  1  0
  8  7  2  0
  9  8  1  0
 10  9  1  0
 11 10  1  0
 12 11  2  0
 13 12  1  0
 14 13  2  0
 15 10  2  0
 15 14  1  0
 16 14  1  0
 17 16  1  0
 18 17  1  0
 19 18  1  0
 20 19  1  0
 21 20  1  0
 22 21  1  0
 23 22  1  0
 24 23  1  0
 25 21  1  0
 25 24  1  0
 26 25  1  0
 27 13  1  0
 27 18  1  0
 28 27  2  0
 29  9  2  0
 30  6  2  0
 30 29  1  0
 31  1  1  0
 32  1  1  0
 33  1  1  0
 34  2  1  0
 35  2  1  0
 36  3  1  0
 37  7  1  0
 38  8  1  0
 39 11  1  0
 40 12  1  0
 41 15  1  0
 42 16  1  0
 43 16  1  0
 44 17  1  0
 45 17  1  0
 46 19  1  0
 47 19  1  0
 48 20  1  0
 49 20  1  0
 50 22  1  0
 51 22  1  0
 52 23  1  0
 53 23  1  0
 54 24  1  0
 55 24  1  0
 25 56  1  6
 57 26  1  0
 58 26  1  0
 59 26  1  0
 60 29  1  0
 61 30  1  0
 21 62  1  6
M  CHG  1  21   1
M  END
>  <b_m_subgroup_collapsed>  (837) 
0

>  <r_i_docking_score>  (837) 
-7.2628640538928897

>  <s_m_subgroup_title>  (837) 
glide-dock_SP_D22_pv

>  <s_m_subgroupid>  (837) 
glide-dock_SP_D22_pv

>  <Molecule ChEMBL ID>  (837) 
CHEMBL2031884

>  <Standard Type>  (837) 
Ki

>  <Standard Value>  (837) 
10000.0

>  <label>  (837) 
0

$$$$
CHEMBL110888
     RDKit          3D

 44 45  0  0  1  0  0  0  0  0999 V2000
    8.7184    4.1708   -8.7202 C   0  0  0  0  0  0  0  0  0  0  0  0
    9.6879    5.3287   -8.8060 C   0  0  0  0  0  0  0  0  0  0  0  0
    8.9655    6.6638   -8.5958 C   0  0  0  0  0  0  0  0  0  0  0  0
    9.9189    7.8064   -8.6634 N   0  0  0  0  0  0  0  0  0  0  0  0
    9.4455    8.8510   -9.6184 C   0  0  0  0  0  0  0  0  0  0  0  0
    9.3868    8.3620  -11.0837 C   0  0  0  0  0  0  0  0  0  0  0  0
   10.7132    7.7751  -11.5891 C   0  0  0  0  0  0  0  0  0  0  0  0
   10.3195    8.3128   -7.3038 C   0  0  2  0  0  0  0  0  0  0  0  0
   11.4562    9.3634   -7.3220 C   0  0  0  0  0  0  0  0  0  0  0  0
   11.6777    9.9906   -5.9334 C   0  0  0  0  0  0  0  0  0  0  0  0
   11.7655    8.9578   -4.8265 C   0  0  0  0  0  0  0  0  0  0  0  0
   12.2599    9.3814   -3.6467 N   0  0  0  0  0  0  0  0  0  0  0  0
   12.3980    8.4844   -2.6518 C   0  0  0  0  0  0  0  0  0  0  0  0
   12.8861    8.9723   -1.4523 N   0  0  0  0  0  0  0  0  0  0  0  0
   12.0856    7.1231   -2.7857 C   0  0  0  0  0  0  0  0  0  0  0  0
   11.5626    6.6938   -4.0153 C   0  0  0  0  0  0  0  0  0  0  0  0
   11.3665    7.6249   -5.0481 C   0  0  0  0  0  0  0  0  0  0  0  0
   10.7931    7.1665   -6.3715 C   0  0  0  0  0  0  0  0  0  0  0  0
    9.2551    3.2255   -8.6469 H   0  0  0  0  0  0  0  0  0  0  0  0
    8.0834    4.2513   -7.8469 H   0  0  0  0  0  0  0  0  0  0  0  0
    8.0765    4.1722   -9.6004 H   0  0  0  0  0  0  0  0  0  0  0  0
   10.1635    5.2982   -9.7834 H   0  0  0  0  0  0  0  0  0  0  0  0
   10.4783    5.1743   -8.0794 H   0  0  0  0  0  0  0  0  0  0  0  0
    8.4095    6.6764   -7.6575 H   0  0  0  0  0  0  0  0  0  0  0  0
    8.1874    6.7236   -9.3522 H   0  0  0  0  0  0  0  0  0  0  0  0
    8.4729    9.2237   -9.2984 H   0  0  0  0  0  0  0  0  0  0  0  0
   10.1064    9.7101   -9.6212 H   0  0  0  0  0  0  0  0  0  0  0  0
    8.5889    7.6365  -11.2390 H   0  0  0  0  0  0  0  0  0  0  0  0
    9.1083    9.2051  -11.7160 H   0  0  0  0  0  0  0  0  0  0  0  0
   10.6768    7.6139  -12.6651 H   0  0  0  0  0  0  0  0  0  0  0  0
   11.5530    8.4362  -11.3753 H   0  0  0  0  0  0  0  0  0  0  0  0
   10.9242    6.8137  -11.1327 H   0  0  0  0  0  0  0  0  0  0  0  0
    9.4341    8.7751   -6.8617 H   0  0  0  0  0  0  0  0  0  0  0  0
   12.3806    8.8857   -7.6514 H   0  0  0  0  0  0  0  0  0  0  0  0
   11.2859   10.1719   -8.0173 H   0  0  0  0  0  0  0  0  0  0  0  0
   10.8592   10.6711   -5.6959 H   0  0  0  0  0  0  0  0  0  0  0  0
   12.5910   10.5860   -5.9413 H   0  0  0  0  0  0  0  0  0  0  0  0
   13.1350    8.3623   -0.6904 H   0  0  0  0  0  0  0  0  0  0  0  0
   13.2714    9.9151   -1.4383 H   0  0  0  0  0  0  0  0  0  0  0  0
   12.2190    6.4246   -1.9727 H   0  0  0  0  0  0  0  0  0  0  0  0
   11.2863    5.6697   -4.1677 H   0  0  0  0  0  0  0  0  0  0  0  0
   11.5872    6.5986   -6.8574 H   0  0  0  0  0  0  0  0  0  0  0  0
    9.9851    6.4718   -6.1423 H   0  0  0  0  0  0  0  0  0  0  0  0
   10.7586    7.4362   -9.0838 H   0  0  0  0  0  0  0  0  0  0  0  0
  2  1  1  0
  3  2  1  0
  4  3  1  0
  5  4  1  0
  6  5  1  0
  7  6  1  0
  8  4  1  0
  9  8  1  0
 10  9  1  0
 11 10  1  0
 12 11  1  0
 13 12  2  0
 14 13  1  0
 15 13  1  0
 16 15  2  0
 17 11  2  0
 17 16  1  0
 18  8  1  0
 18 17  1  0
 19  1  1  0
 20  1  1  0
 21  1  1  0
 22  2  1  0
 23  2  1  0
 24  3  1  0
 25  3  1  0
 26  5  1  0
 27  5  1  0
 28  6  1  0
 29  6  1  0
 30  7  1  0
 31  7  1  0
 32  7  1  0
  8 33  1  1
 34  9  1  0
 35  9  1  0
 36 10  1  0
 37 10  1  0
 38 14  1  0
 39 14  1  0
 40 15  1  0
 41 16  1  0
 42 18  1  0
 43 18  1  0
 44  4  1  0
M  CHG  1   4   1
M  END
>  <b_m_subgroup_collapsed>  (838) 
0

>  <r_i_docking_score>  (838) 
-7.2621520314869104

>  <s_m_subgroup_title>  (838) 
glide-dock_SP_D22_pv

>  <s_m_subgroupid>  (838) 
glide-dock_SP_D22_pv

>  <Molecule ChEMBL ID>  (838) 
CHEMBL110888

>  <Standard Type>  (838) 
Ki

>  <Standard Value>  (838) 
5.0

>  <label>  (838) 
1

$$$$
CHEMBL4564507
     RDKit          3D

 57 59  0  0  1  0  0  0  0  0999 V2000
   11.2837    7.8314   -5.1089 C   0  0  0  0  0  0  0  0  0  0  0  0
   11.4382    8.9658   -6.1357 C   0  0  0  0  0  0  0  0  0  0  0  0
   11.5308    8.4781   -7.5782 C   0  0  0  0  0  0  0  0  0  0  0  0
   12.7655    8.5720   -8.2468 C   0  0  0  0  0  0  0  0  0  0  0  0
   12.8830    8.1722   -9.5850 C   0  0  0  0  0  0  0  0  0  0  0  0
   11.7708    7.6628  -10.2672 C   0  0  0  0  0  0  0  0  0  0  0  0
   10.5341    7.5100   -9.6119 C   0  0  0  0  0  0  0  0  0  0  0  0
    9.5002    6.9260  -10.3638 N   0  0  0  0  0  0  0  0  0  0  0  0
    8.7327    5.8068   -9.8210 C   0  0  0  0  0  0  0  0  0  0  0  0
    8.1271    4.9671  -10.9606 C   0  0  0  0  0  0  0  0  0  0  0  0
    7.3184    5.8400  -11.8475 N   0  0  0  0  0  0  0  0  0  0  0  0
    6.5518    5.1610  -12.9274 C   0  0  0  0  0  0  0  0  0  0  0  0
    5.8604    3.8552  -12.5805 C   0  0  0  0  0  0  0  0  0  0  0  0
    6.0092    2.7361  -13.3145 C   0  0  0  0  0  0  0  0  0  0  0  0
    5.2602    1.4368  -13.0976 C   0  0  0  0  0  0  0  0  0  0  0  0
    5.4066    0.5542  -14.2473 N   0  0  0  0  0  0  0  0  0  0  0  0
    4.5298   -0.3968  -14.5981 C   0  0  0  0  0  0  0  0  0  0  0  0
    3.6637   -0.8470  -13.8468 O   0  0  0  0  0  0  0  0  0  0  0  0
    4.6430   -0.8147  -16.0235 C   0  0  0  0  0  0  0  0  0  0  0  0
    3.9128   -1.8225  -16.5208 N   0  0  0  0  0  0  0  0  0  0  0  0
    4.1798   -1.9173  -17.8753 C   0  0  0  0  0  0  0  0  0  0  0  0
    3.5493   -2.9413  -18.7557 C   0  0  0  0  0  0  0  0  0  0  0  0
    5.0951   -0.9256  -18.1398 C   0  0  0  0  0  0  0  0  0  0  0  0
    5.3856   -0.2316  -16.9653 N   0  0  0  0  0  0  0  0  0  0  0  0
    8.1454    6.9317  -12.4307 C   0  0  0  0  0  0  0  0  0  0  0  0
    8.8868    7.7740  -11.3799 C   0  0  0  0  0  0  0  0  0  0  0  0
   10.4062    7.9565   -8.2645 C   0  0  0  0  0  0  0  0  0  0  0  0
    8.8859    7.9415   -7.4488 Cl  0  0  0  0  0  0  0  0  0  0  0  0
   11.2933    8.2271   -4.0934 H   0  0  0  0  0  0  0  0  0  0  0  0
   10.3453    7.2911   -5.2359 H   0  0  0  0  0  0  0  0  0  0  0  0
   12.0847    7.0991   -5.1876 H   0  0  0  0  0  0  0  0  0  0  0  0
   12.3317    9.5450   -5.8963 H   0  0  0  0  0  0  0  0  0  0  0  0
   10.6049    9.6638   -6.0466 H   0  0  0  0  0  0  0  0  0  0  0  0
   13.6362    8.9679   -7.7430 H   0  0  0  0  0  0  0  0  0  0  0  0
   13.8309    8.2679  -10.0919 H   0  0  0  0  0  0  0  0  0  0  0  0
   11.8818    7.3555  -11.2969 H   0  0  0  0  0  0  0  0  0  0  0  0
    7.9202    6.1723   -9.1927 H   0  0  0  0  0  0  0  0  0  0  0  0
    9.3719    5.1869   -9.1916 H   0  0  0  0  0  0  0  0  0  0  0  0
    7.5089    4.1773  -10.5377 H   0  0  0  0  0  0  0  0  0  0  0  0
    8.9154    4.4798  -11.5369 H   0  0  0  0  0  0  0  0  0  0  0  0
    7.2127    4.9739  -13.7760 H   0  0  0  0  0  0  0  0  0  0  0  0
    5.7796    5.8517  -13.2678 H   0  0  0  0  0  0  0  0  0  0  0  0
    5.2021    3.8642  -11.7241 H   0  0  0  0  0  0  0  0  0  0  0  0
    6.6945    2.7499  -14.1506 H   0  0  0  0  0  0  0  0  0  0  0  0
    5.5814    0.9415  -12.1800 H   0  0  0  0  0  0  0  0  0  0  0  0
    4.2011    1.6895  -13.0280 H   0  0  0  0  0  0  0  0  0  0  0  0
    6.0833    0.8053  -14.9545 H   0  0  0  0  0  0  0  0  0  0  0  0
    3.7829   -2.7544  -19.8031 H   0  0  0  0  0  0  0  0  0  0  0  0
    3.9043   -3.9393  -18.5003 H   0  0  0  0  0  0  0  0  0  0  0  0
    2.4652   -2.9350  -18.6447 H   0  0  0  0  0  0  0  0  0  0  0  0
    5.5648   -0.6617  -19.0762 H   0  0  0  0  0  0  0  0  0  0  0  0
    8.8844    6.4775  -13.0904 H   0  0  0  0  0  0  0  0  0  0  0  0
    7.5245    7.5887  -13.0416 H   0  0  0  0  0  0  0  0  0  0  0  0
    8.2183    8.5082  -10.9317 H   0  0  0  0  0  0  0  0  0  0  0  0
    9.6552    8.3631  -11.8824 H   0  0  0  0  0  0  0  0  0  0  0  0
    6.6659    6.3221  -11.2293 H   0  0  0  0  0  0  0  0  0  0  0  0
    3.2908   -2.4412  -16.0074 H   0  0  0  0  0  0  0  0  0  0  0  0
  2  1  1  0
  3  2  1  0
  4  3  2  0
  5  4  1  0
  6  5  2  0
  7  6  1  0
  8  7  1  0
  9  8  1  0
 10  9  1  0
 11 10  1  0
 12 11  1  0
 13 12  1  0
 14 13  2  0
 15 14  1  0
 16 15  1  0
 17 16  1  0
 18 17  2  0
 19 17  1  0
 20 19  1  0
 21 20  1  0
 22 21  1  0
 23 21  2  0
 24 19  2  0
 24 23  1  0
 25 11  1  0
 26  8  1  0
 26 25  1  0
 27  3  1  0
 27  7  2  0
 28 27  1  0
 29  1  1  0
 30  1  1  0
 31  1  1  0
 32  2  1  0
 33  2  1  0
 34  4  1  0
 35  5  1  0
 36  6  1  0
 37  9  1  0
 38  9  1  0
 39 10  1  0
 40 10  1  0
 41 12  1  0
 42 12  1  0
 43 13  1  0
 44 14  1  0
 45 15  1  0
 46 15  1  0
 47 16  1  0
 48 22  1  0
 49 22  1  0
 50 22  1  0
 51 23  1  0
 52 25  1  0
 53 25  1  0
 54 26  1  0
 55 26  1  0
 56 11  1  0
 57 20  1  0
M  CHG  1  11   1
M  END
>  <b_m_subgroup_collapsed>  (839) 
0

>  <r_i_docking_score>  (839) 
-7.2604850527381197

>  <s_m_subgroup_title>  (839) 
glide-dock_SP_D22_pv

>  <s_m_subgroupid>  (839) 
glide-dock_SP_D22_pv

>  <Molecule ChEMBL ID>  (839) 
CHEMBL4564507

>  <Standard Type>  (839) 
Ki

>  <Standard Value>  (839) 
16.1

>  <label>  (839) 
1

$$$$
CHEMBL4287055
     RDKit          3D

 57 60  0  0  1  0  0  0  0  0999 V2000
   11.3908    3.1726  -14.6475 O   0  0  0  0  0  0  0  0  0  0  0  0
   11.2184    4.3429  -14.9844 C   0  0  0  0  0  0  0  0  0  0  0  0
   10.0977    5.0235  -14.6985 N   0  0  0  0  0  0  0  0  0  0  0  0
    8.8929    4.4611  -14.1031 C   0  0  0  0  0  0  0  0  0  0  0  0
    8.9853    4.2603  -12.5818 C   0  0  0  0  0  0  0  0  0  0  0  0
    9.1660    5.5522  -11.7636 C   0  0  0  0  0  0  0  0  0  0  0  0
    9.0611    5.2504  -10.2584 C   0  0  0  0  0  0  0  0  0  0  0  0
    9.1956    6.4357   -9.3696 N   0  0  0  0  0  0  0  0  0  0  0  0
   10.5746    7.0180   -9.3760 C   0  0  0  0  0  0  0  0  0  0  0  0
   10.7677    8.1568   -8.3475 C   0  0  0  0  0  0  0  0  0  0  0  0
   10.2450    7.7559   -7.0527 N   0  0  0  0  0  0  0  0  0  0  0  0
   10.9610    7.8786   -5.8473 C   0  0  0  0  0  0  0  0  0  0  0  0
   11.1451    6.7346   -5.0428 C   0  0  0  0  0  0  0  0  0  0  0  0
   11.6861    6.8338   -3.7467 C   0  0  0  0  0  0  0  0  0  0  0  0
   12.0506    8.0936   -3.2460 C   0  0  0  0  0  0  0  0  0  0  0  0
   12.4872    8.3121   -1.6060 Cl  0  0  0  0  0  0  0  0  0  0  0  0
   11.9687    9.2198   -4.0658 C   0  0  0  0  0  0  0  0  0  0  0  0
   11.4288    9.1219   -5.3557 C   0  0  0  0  0  0  0  0  0  0  0  0
   11.2864   10.5724   -6.2471 Cl  0  0  0  0  0  0  0  0  0  0  0  0
    8.8860    7.2431   -7.0136 C   0  0  0  0  0  0  0  0  0  0  0  0
    8.7315    6.0841   -8.0007 C   0  0  0  0  0  0  0  0  0  0  0  0
   12.2199    5.0455  -15.8187 C   0  0  0  0  0  0  0  0  0  0  0  0
   13.2841    4.5721  -16.5471 C   0  0  0  0  0  0  0  0  0  0  0  0
   13.8827    5.6923  -17.2143 C   0  0  0  0  0  0  0  0  0  0  0  0
   14.9661    5.8627  -18.1092 C   0  0  0  0  0  0  0  0  0  0  0  0
   15.2968    7.1349  -18.6207 C   0  0  0  0  0  0  0  0  0  0  0  0
   14.5492    8.2681  -18.2455 C   0  0  0  0  0  0  0  0  0  0  0  0
   13.4748    8.1262  -17.3483 C   0  0  0  0  0  0  0  0  0  0  0  0
   13.1520    6.8557  -16.8476 C   0  0  0  0  0  0  0  0  0  0  0  0
   12.1642    6.4243  -15.9878 N   0  0  0  0  0  0  0  0  0  0  0  0
   10.0220    5.9645  -15.0496 H   0  0  0  0  0  0  0  0  0  0  0  0
    8.6584    3.5105  -14.5877 H   0  0  0  0  0  0  0  0  0  0  0  0
    8.0689    5.1330  -14.3333 H   0  0  0  0  0  0  0  0  0  0  0  0
    9.7893    3.5590  -12.3510 H   0  0  0  0  0  0  0  0  0  0  0  0
    8.0642    3.7728  -12.2607 H   0  0  0  0  0  0  0  0  0  0  0  0
    8.3991    6.2757  -12.0441 H   0  0  0  0  0  0  0  0  0  0  0  0
   10.1284    5.9997  -12.0091 H   0  0  0  0  0  0  0  0  0  0  0  0
    9.8007    4.4989   -9.9752 H   0  0  0  0  0  0  0  0  0  0  0  0
    8.0866    4.7930  -10.0799 H   0  0  0  0  0  0  0  0  0  0  0  0
   10.8244    7.3911  -10.3687 H   0  0  0  0  0  0  0  0  0  0  0  0
   11.2858    6.2243   -9.1504 H   0  0  0  0  0  0  0  0  0  0  0  0
   10.2362    9.0512   -8.6769 H   0  0  0  0  0  0  0  0  0  0  0  0
   11.8233    8.4242   -8.2726 H   0  0  0  0  0  0  0  0  0  0  0  0
   10.8140    5.7757   -5.3977 H   0  0  0  0  0  0  0  0  0  0  0  0
   11.7527    5.9573   -3.1189 H   0  0  0  0  0  0  0  0  0  0  0  0
   12.2652   10.1721   -3.6641 H   0  0  0  0  0  0  0  0  0  0  0  0
    8.6369    6.8954   -6.0152 H   0  0  0  0  0  0  0  0  0  0  0  0
    8.1907    8.0496   -7.2521 H   0  0  0  0  0  0  0  0  0  0  0  0
    7.6879    5.7723   -8.0259 H   0  0  0  0  0  0  0  0  0  0  0  0
    9.3060    5.2290   -7.6417 H   0  0  0  0  0  0  0  0  0  0  0  0
   13.6048    3.5438  -16.6315 H   0  0  0  0  0  0  0  0  0  0  0  0
   15.5353    4.9989  -18.4152 H   0  0  0  0  0  0  0  0  0  0  0  0
   16.1215    7.2413  -19.3115 H   0  0  0  0  0  0  0  0  0  0  0  0
   14.7981    9.2416  -18.6434 H   0  0  0  0  0  0  0  0  0  0  0  0
   12.8862    8.9799  -17.0558 H   0  0  0  0  0  0  0  0  0  0  0  0
   11.4906    7.0218  -15.5366 H   0  0  0  0  0  0  0  0  0  0  0  0
    8.5481    7.1418   -9.7025 H   0  0  0  0  0  0  0  0  0  0  0  0
  2  1  2  0
  3  2  1  0
  4  3  1  0
  5  4  1  0
  6  5  1  0
  7  6  1  0
  8  7  1  0
  9  8  1  0
 10  9  1  0
 11 10  1  0
 12 11  1  0
 13 12  1  0
 14 13  2  0
 15 14  1  0
 16 15  1  0
 17 15  2  0
 18 12  2  0
 18 17  1  0
 19 18  1  0
 20 11  1  0
 21  8  1  0
 21 20  1  0
 22  2  1  0
 23 22  2  0
 24 23  1  0
 25 24  2  0
 26 25  1  0
 27 26  2  0
 28 27  1  0
 29 24  1  0
 29 28  2  0
 30 22  1  0
 30 29  1  0
 31  3  1  0
 32  4  1  0
 33  4  1  0
 34  5  1  0
 35  5  1  0
 36  6  1  0
 37  6  1  0
 38  7  1  0
 39  7  1  0
 40  9  1  0
 41  9  1  0
 42 10  1  0
 43 10  1  0
 44 13  1  0
 45 14  1  0
 46 17  1  0
 47 20  1  0
 48 20  1  0
 49 21  1  0
 50 21  1  0
 51 23  1  0
 52 25  1  0
 53 26  1  0
 54 27  1  0
 55 28  1  0
 56 30  1  0
 57  8  1  0
M  CHG  1   8   1
M  END
>  <b_m_subgroup_collapsed>  (840) 
0

>  <r_i_docking_score>  (840) 
-7.2578558454192201

>  <s_m_subgroup_title>  (840) 
glide-dock_SP_D22_pv

>  <s_m_subgroupid>  (840) 
glide-dock_SP_D22_pv

>  <Molecule ChEMBL ID>  (840) 
CHEMBL4287055

>  <Standard Type>  (840) 
Ki

>  <Standard Value>  (840) 
23889.0

>  <label>  (840) 
0

$$$$
CHEMBL339960
     RDKit          3D

 57 60  0  0  1  0  0  0  0  0999 V2000
   11.3908    3.1726  -14.6475 O   0  0  0  0  0  0  0  0  0  0  0  0
   11.2184    4.3429  -14.9844 C   0  0  0  0  0  0  0  0  0  0  0  0
   10.0977    5.0235  -14.6985 N   0  0  0  0  0  0  0  0  0  0  0  0
    8.8929    4.4611  -14.1031 C   0  0  0  0  0  0  0  0  0  0  0  0
    8.9853    4.2603  -12.5818 C   0  0  0  0  0  0  0  0  0  0  0  0
    9.1660    5.5522  -11.7636 C   0  0  0  0  0  0  0  0  0  0  0  0
    9.0611    5.2504  -10.2584 C   0  0  0  0  0  0  0  0  0  0  0  0
    9.1956    6.4357   -9.3696 N   0  0  0  0  0  0  0  0  0  0  0  0
   10.5746    7.0180   -9.3760 C   0  0  0  0  0  0  0  0  0  0  0  0
   10.7677    8.1568   -8.3475 C   0  0  0  0  0  0  0  0  0  0  0  0
   10.2450    7.7559   -7.0527 N   0  0  0  0  0  0  0  0  0  0  0  0
   10.9610    7.8786   -5.8473 C   0  0  0  0  0  0  0  0  0  0  0  0
   11.1451    6.7346   -5.0428 C   0  0  0  0  0  0  0  0  0  0  0  0
   11.6861    6.8338   -3.7467 C   0  0  0  0  0  0  0  0  0  0  0  0
   12.0506    8.0936   -3.2460 C   0  0  0  0  0  0  0  0  0  0  0  0
   12.4872    8.3121   -1.6060 Cl  0  0  0  0  0  0  0  0  0  0  0  0
   11.9687    9.2198   -4.0658 C   0  0  0  0  0  0  0  0  0  0  0  0
   11.4288    9.1219   -5.3557 C   0  0  0  0  0  0  0  0  0  0  0  0
   11.2864   10.5724   -6.2471 Cl  0  0  0  0  0  0  0  0  0  0  0  0
    8.8860    7.2431   -7.0136 C   0  0  0  0  0  0  0  0  0  0  0  0
    8.7315    6.0841   -8.0007 C   0  0  0  0  0  0  0  0  0  0  0  0
   12.2199    5.0455  -15.8187 C   0  0  0  0  0  0  0  0  0  0  0  0
   13.2841    4.5721  -16.5471 C   0  0  0  0  0  0  0  0  0  0  0  0
   13.8827    5.6923  -17.2143 C   0  0  0  0  0  0  0  0  0  0  0  0
   14.9661    5.8627  -18.1092 C   0  0  0  0  0  0  0  0  0  0  0  0
   15.2968    7.1349  -18.6207 C   0  0  0  0  0  0  0  0  0  0  0  0
   14.5492    8.2681  -18.2455 C   0  0  0  0  0  0  0  0  0  0  0  0
   13.4748    8.1262  -17.3483 C   0  0  0  0  0  0  0  0  0  0  0  0
   13.1520    6.8557  -16.8476 C   0  0  0  0  0  0  0  0  0  0  0  0
   12.1642    6.4243  -15.9878 N   0  0  0  0  0  0  0  0  0  0  0  0
   10.0220    5.9645  -15.0496 H   0  0  0  0  0  0  0  0  0  0  0  0
    8.6584    3.5105  -14.5877 H   0  0  0  0  0  0  0  0  0  0  0  0
    8.0689    5.1330  -14.3333 H   0  0  0  0  0  0  0  0  0  0  0  0
    9.7893    3.5590  -12.3510 H   0  0  0  0  0  0  0  0  0  0  0  0
    8.0642    3.7728  -12.2607 H   0  0  0  0  0  0  0  0  0  0  0  0
    8.3991    6.2757  -12.0441 H   0  0  0  0  0  0  0  0  0  0  0  0
   10.1284    5.9997  -12.0091 H   0  0  0  0  0  0  0  0  0  0  0  0
    9.8007    4.4989   -9.9752 H   0  0  0  0  0  0  0  0  0  0  0  0
    8.0866    4.7930  -10.0799 H   0  0  0  0  0  0  0  0  0  0  0  0
   10.8244    7.3911  -10.3687 H   0  0  0  0  0  0  0  0  0  0  0  0
   11.2858    6.2243   -9.1504 H   0  0  0  0  0  0  0  0  0  0  0  0
   10.2362    9.0512   -8.6769 H   0  0  0  0  0  0  0  0  0  0  0  0
   11.8233    8.4242   -8.2726 H   0  0  0  0  0  0  0  0  0  0  0  0
   10.8140    5.7757   -5.3977 H   0  0  0  0  0  0  0  0  0  0  0  0
   11.7527    5.9573   -3.1189 H   0  0  0  0  0  0  0  0  0  0  0  0
   12.2652   10.1721   -3.6641 H   0  0  0  0  0  0  0  0  0  0  0  0
    8.6369    6.8954   -6.0152 H   0  0  0  0  0  0  0  0  0  0  0  0
    8.1907    8.0496   -7.2521 H   0  0  0  0  0  0  0  0  0  0  0  0
    7.6879    5.7723   -8.0259 H   0  0  0  0  0  0  0  0  0  0  0  0
    9.3060    5.2290   -7.6417 H   0  0  0  0  0  0  0  0  0  0  0  0
   13.6048    3.5438  -16.6315 H   0  0  0  0  0  0  0  0  0  0  0  0
   15.5353    4.9989  -18.4152 H   0  0  0  0  0  0  0  0  0  0  0  0
   16.1215    7.2413  -19.3115 H   0  0  0  0  0  0  0  0  0  0  0  0
   14.7981    9.2416  -18.6434 H   0  0  0  0  0  0  0  0  0  0  0  0
   12.8862    8.9799  -17.0558 H   0  0  0  0  0  0  0  0  0  0  0  0
   11.4906    7.0218  -15.5366 H   0  0  0  0  0  0  0  0  0  0  0  0
    8.5481    7.1418   -9.7025 H   0  0  0  0  0  0  0  0  0  0  0  0
  2  1  2  0
  3  2  1  0
  4  3  1  0
  5  4  1  0
  6  5  1  0
  7  6  1  0
  8  7  1  0
  9  8  1  0
 10  9  1  0
 11 10  1  0
 12 11  1  0
 13 12  1  0
 14 13  2  0
 15 14  1  0
 16 15  1  0
 17 15  2  0
 18 12  2  0
 18 17  1  0
 19 18  1  0
 20 11  1  0
 21  8  1  0
 21 20  1  0
 22  2  1  0
 23 22  2  0
 24 23  1  0
 25 24  2  0
 26 25  1  0
 27 26  2  0
 28 27  1  0
 29 24  1  0
 29 28  2  0
 30 22  1  0
 30 29  1  0
 31  3  1  0
 32  4  1  0
 33  4  1  0
 34  5  1  0
 35  5  1  0
 36  6  1  0
 37  6  1  0
 38  7  1  0
 39  7  1  0
 40  9  1  0
 41  9  1  0
 42 10  1  0
 43 10  1  0
 44 13  1  0
 45 14  1  0
 46 17  1  0
 47 20  1  0
 48 20  1  0
 49 21  1  0
 50 21  1  0
 51 23  1  0
 52 25  1  0
 53 26  1  0
 54 27  1  0
 55 28  1  0
 56 30  1  0
 57  8  1  0
M  CHG  1   8   1
M  END
>  <b_m_subgroup_collapsed>  (841) 
0

>  <r_i_docking_score>  (841) 
-7.2578558454192201

>  <s_m_subgroup_title>  (841) 
glide-dock_SP_D22_pv

>  <s_m_subgroupid>  (841) 
glide-dock_SP_D22_pv

>  <Molecule ChEMBL ID>  (841) 
CHEMBL339960

>  <Standard Type>  (841) 
Ki

>  <Standard Value>  (841) 
23890.0

>  <label>  (841) 
0

$$$$
CHEMBL1625084
     RDKit          3D

 40 41  0  0  1  0  0  0  0  0999 V2000
   10.8968   10.5723   -5.3348 Cl  0  0  0  0  0  0  0  0  0  0  0  0
   11.4719    9.2067   -4.4630 C   0  0  0  0  0  0  0  0  0  0  0  0
   12.0808    9.3722   -3.2042 C   0  0  0  0  0  0  0  0  0  0  0  0
   12.4855    8.2440   -2.4680 C   0  0  0  0  0  0  0  0  0  0  0  0
   12.2852    6.9553   -2.9975 C   0  0  0  0  0  0  0  0  0  0  0  0
   11.6861    6.7927   -4.2626 C   0  0  0  0  0  0  0  0  0  0  0  0
   11.2859    7.9227   -5.0066 C   0  0  0  0  0  0  0  0  0  0  0  0
   10.5915    7.8127   -6.1843 O   0  0  0  0  0  0  0  0  0  0  0  0
   11.2055    7.0940   -7.2400 C   0  0  0  0  0  0  0  0  0  0  0  0
   11.9686    8.0750   -8.1534 C   0  0  0  0  0  0  0  0  0  0  0  0
   11.8126    7.7714   -9.6542 C   0  0  0  0  0  0  0  0  0  0  0  0
   10.5011    8.3230  -10.2397 C   0  0  0  0  0  0  0  0  0  0  0  0
    9.8067    7.3552  -11.0915 N   0  0  0  0  0  0  0  0  0  0  0  0
    8.8135    8.0924  -11.8805 C   0  0  0  0  0  0  0  0  0  0  0  0
    7.9594    7.1300  -12.7273 C   0  0  0  0  0  0  0  0  0  0  0  0
    7.2844    6.1723  -11.8469 N   0  0  0  0  0  0  0  0  0  0  0  0
    8.2669    5.3990  -11.0721 C   0  0  0  0  0  0  0  0  0  0  0  0
    9.1211    6.3690  -10.2389 C   0  0  0  0  0  0  0  0  0  0  0  0
   12.2058   10.3605   -2.7864 H   0  0  0  0  0  0  0  0  0  0  0  0
   12.9323    8.3706   -1.4928 H   0  0  0  0  0  0  0  0  0  0  0  0
   12.5770    6.0852   -2.4263 H   0  0  0  0  0  0  0  0  0  0  0  0
   11.5027    5.7980   -4.6426 H   0  0  0  0  0  0  0  0  0  0  0  0
   11.8541    6.2847   -6.9023 H   0  0  0  0  0  0  0  0  0  0  0  0
   10.3901    6.6191   -7.7787 H   0  0  0  0  0  0  0  0  0  0  0  0
   11.6353    9.0969   -7.9688 H   0  0  0  0  0  0  0  0  0  0  0  0
   13.0239    8.0688   -7.8837 H   0  0  0  0  0  0  0  0  0  0  0  0
   12.6415    8.2311  -10.1939 H   0  0  0  0  0  0  0  0  0  0  0  0
   11.9005    6.7062   -9.8469 H   0  0  0  0  0  0  0  0  0  0  0  0
    9.8301    8.6710   -9.4514 H   0  0  0  0  0  0  0  0  0  0  0  0
   10.7594    9.2068  -10.8214 H   0  0  0  0  0  0  0  0  0  0  0  0
    8.1730    8.6916  -11.2310 H   0  0  0  0  0  0  0  0  0  0  0  0
    9.3221    8.7939  -12.5428 H   0  0  0  0  0  0  0  0  0  0  0  0
    7.2074    7.6921  -13.2806 H   0  0  0  0  0  0  0  0  0  0  0  0
    8.5581    6.5722  -13.4450 H   0  0  0  0  0  0  0  0  0  0  0  0
    6.7662    6.7535  -11.1700 H   0  0  0  0  0  0  0  0  0  0  0  0
    7.7333    4.7087  -10.4177 H   0  0  0  0  0  0  0  0  0  0  0  0
    8.8887    4.8000  -11.7391 H   0  0  0  0  0  0  0  0  0  0  0  0
    9.8538    5.7837   -9.6864 H   0  0  0  0  0  0  0  0  0  0  0  0
    8.4862    6.8737   -9.5060 H   0  0  0  0  0  0  0  0  0  0  0  0
    6.6542    5.5705  -12.3542 H   0  0  0  0  0  0  0  0  0  0  0  0
  2  1  1  0
  3  2  2  0
  4  3  1  0
  5  4  2  0
  6  5  1  0
  7  2  1  0
  7  6  2  0
  8  7  1  0
  9  8  1  0
 10  9  1  0
 11 10  1  0
 12 11  1  0
 13 12  1  0
 14 13  1  0
 15 14  1  0
 16 15  1  0
 17 16  1  0
 18 13  1  0
 18 17  1  0
 19  3  1  0
 20  4  1  0
 21  5  1  0
 22  6  1  0
 23  9  1  0
 24  9  1  0
 25 10  1  0
 26 10  1  0
 27 11  1  0
 28 11  1  0
 29 12  1  0
 30 12  1  0
 31 14  1  0
 32 14  1  0
 33 15  1  0
 34 15  1  0
 35 16  1  0
 36 17  1  0
 37 17  1  0
 38 18  1  0
 39 18  1  0
 40 16  1  0
M  CHG  1  16   1
M  END
>  <b_m_subgroup_collapsed>  (842) 
0

>  <r_i_docking_score>  (842) 
-7.2574844399764604

>  <s_m_subgroup_title>  (842) 
glide-dock_SP_D22_pv

>  <s_m_subgroupid>  (842) 
glide-dock_SP_D22_pv

>  <Molecule ChEMBL ID>  (842) 
CHEMBL1625084

>  <Standard Type>  (842) 
Ki

>  <Standard Value>  (842) 
10000.0

>  <label>  (842) 
0

$$$$
CHEMBL1171630
     RDKit          3D

 66 71  0  0  1  0  0  0  0  0999 V2000
   10.0648    4.6531  -13.3379 O   0  0  0  0  0  0  0  0  0  0  0  0
   10.4517    5.7304  -12.9116 C   0  0  0  0  0  0  0  0  0  0  0  0
   11.5740    6.3173  -13.3021 N   0  0  0  0  0  0  0  0  0  0  0  0
   12.5016    5.8052  -14.3110 C   0  0  0  0  0  0  0  0  0  0  0  0
   11.8872    5.6515  -15.6741 C   0  0  0  0  0  0  0  0  0  0  0  0
   11.7687    6.5722  -16.6739 C   0  0  0  0  0  0  0  0  0  0  0  0
   11.0706    5.8972  -17.6537 N   0  0  0  0  0  0  0  0  0  0  0  0
   10.6209    6.3830  -18.9450 C   0  0  0  0  0  0  0  0  0  0  0  0
    9.1038    6.6186  -18.9741 C   0  0  0  0  0  0  0  0  0  0  0  0
    8.7312    7.0595  -20.1755 F   0  0  0  0  0  0  0  0  0  0  0  0
   10.8109    4.6197  -17.2871 N   0  0  0  0  0  0  0  0  0  0  0  0
   11.3051    4.4566  -16.1009 N   0  0  0  0  0  0  0  0  0  0  0  0
   12.0075    7.2643  -12.3033 C   0  0  0  0  0  0  0  0  0  0  0  0
   10.8706    7.4035  -11.3749 N   0  0  0  0  0  0  0  0  0  0  0  0
   11.0251    7.9563  -10.0773 C   0  0  0  0  0  0  0  0  0  0  0  0
    9.9158    8.2999   -9.2603 C   0  0  0  0  0  0  0  0  0  0  0  0
   10.0837    8.7311   -7.9325 C   0  0  0  0  0  0  0  0  0  0  0  0
   11.3742    8.8573   -7.3949 C   0  0  0  0  0  0  0  0  0  0  0  0
   12.4863    8.5726   -8.2045 C   0  0  0  0  0  0  0  0  0  0  0  0
   12.3153    8.1634   -9.5364 C   0  0  0  0  0  0  0  0  0  0  0  0
    9.7755    6.5073  -11.7707 C   0  0  2  0  0  0  0  0  0  0  0  0
    9.2708    5.5296  -10.6705 C   0  0  0  0  0  0  0  0  0  0  0  0
    8.1179    4.6132  -11.1345 C   0  0  0  0  0  0  0  0  0  0  0  0
    7.0234    5.3231  -11.8649 N   0  0  2  0  0  0  0  0  0  0  0  0
    6.0291    4.3975  -12.4902 C   0  0  0  0  0  0  0  0  0  0  0  0
    6.5760    3.3267  -13.4283 C   0  0  0  0  0  0  0  0  0  0  0  0
    7.6325    3.3723  -14.3109 C   0  0  0  0  0  0  0  0  0  0  0  0
    7.8520    2.2023  -14.9792 O   0  0  0  0  0  0  0  0  0  0  0  0
    6.8478    1.3550  -14.5956 C   0  0  0  0  0  0  0  0  0  0  0  0
    6.5980    0.0579  -15.0717 C   0  0  0  0  0  0  0  0  0  0  0  0
    5.4353   -0.6037  -14.6386 C   0  0  0  0  0  0  0  0  0  0  0  0
    4.5674    0.0409  -13.7337 C   0  0  0  0  0  0  0  0  0  0  0  0
    4.8856    1.3156  -13.2170 C   0  0  0  0  0  0  0  0  0  0  0  0
    6.0229    2.0177  -13.6520 C   0  0  0  0  0  0  0  0  0  0  0  0
    7.4456    6.3916  -12.8096 C   0  0  0  0  0  0  0  0  0  0  0  0
    8.5375    7.3017  -12.2470 C   0  0  0  0  0  0  0  0  0  0  0  0
   13.3456    6.4897  -14.3741 H   0  0  0  0  0  0  0  0  0  0  0  0
   12.9047    4.8525  -13.9631 H   0  0  0  0  0  0  0  0  0  0  0  0
   12.0869    7.6011  -16.7607 H   0  0  0  0  0  0  0  0  0  0  0  0
   11.1472    7.3112  -19.1708 H   0  0  0  0  0  0  0  0  0  0  0  0
   10.9085    5.6596  -19.7094 H   0  0  0  0  0  0  0  0  0  0  0  0
    8.5441    5.7029  -18.7774 H   0  0  0  0  0  0  0  0  0  0  0  0
    8.7979    7.3709  -18.2470 H   0  0  0  0  0  0  0  0  0  0  0  0
   12.8859    6.8346  -11.8468 H   0  0  0  0  0  0  0  0  0  0  0  0
   12.3210    8.1723  -12.7946 H   0  0  0  0  0  0  0  0  0  0  0  0
    8.9022    8.2215   -9.6097 H   0  0  0  0  0  0  0  0  0  0  0  0
    9.2175    8.9651   -7.3292 H   0  0  0  0  0  0  0  0  0  0  0  0
   11.5114    9.1932   -6.3780 H   0  0  0  0  0  0  0  0  0  0  0  0
   13.4861    8.7140   -7.8255 H   0  0  0  0  0  0  0  0  0  0  0  0
   13.2115    7.9869  -10.1067 H   0  0  0  0  0  0  0  0  0  0  0  0
   10.0860    4.9128  -10.2948 H   0  0  0  0  0  0  0  0  0  0  0  0
    8.8909    6.0641   -9.8044 H   0  0  0  0  0  0  0  0  0  0  0  0
    7.6858    4.1663  -10.2432 H   0  0  0  0  0  0  0  0  0  0  0  0
    8.5112    3.7788  -11.7130 H   0  0  0  0  0  0  0  0  0  0  0  0
    5.2836    4.9936  -13.0155 H   0  0  0  0  0  0  0  0  0  0  0  0
    5.4918    3.9142  -11.6738 H   0  0  0  0  0  0  0  0  0  0  0  0
    8.2989    4.1442  -14.6455 H   0  0  0  0  0  0  0  0  0  0  0  0
    7.2629   -0.4097  -15.7836 H   0  0  0  0  0  0  0  0  0  0  0  0
    5.1974   -1.5883  -15.0183 H   0  0  0  0  0  0  0  0  0  0  0  0
    3.6427   -0.4402  -13.4466 H   0  0  0  0  0  0  0  0  0  0  0  0
    4.2001    1.8186  -12.5593 H   0  0  0  0  0  0  0  0  0  0  0  0
    7.7849    5.9760  -13.7507 H   0  0  0  0  0  0  0  0  0  0  0  0
    6.5736    7.0027  -13.0459 H   0  0  0  0  0  0  0  0  0  0  0  0
    8.7971    8.0681  -12.9693 H   0  0  0  0  0  0  0  0  0  0  0  0
    8.0886    7.8747  -11.4471 H   0  0  0  0  0  0  0  0  0  0  0  0
    6.5286    5.8426  -11.1454 H   0  0  0  0  0  0  0  0  0  0  0  0
  2  1  2  0
  3  2  1  0
  4  3  1  0
  5  4  1  0
  6  5  2  0
  7  6  1  0
  8  7  1  0
  9  8  1  0
 10  9  1  0
 11  7  1  0
 12  5  1  0
 12 11  2  0
 13  3  1  0
 14 13  1  0
 15 14  1  0
 16 15  2  0
 17 16  1  0
 18 17  2  0
 19 18  1  0
 20 15  1  0
 20 19  2  0
 21  2  1  0
 21 14  1  1
 22 21  1  0
 23 22  1  0
 24 23  1  0
 25 24  1  0
 26 25  1  0
 27 26  2  0
 28 27  1  0
 29 28  1  0
 30 29  2  0
 31 30  1  0
 32 31  2  0
 33 32  1  0
 34 26  1  0
 34 29  1  0
 34 33  2  0
 35 24  1  0
 36 21  1  0
 36 35  1  0
 37  4  1  0
 38  4  1  0
 39  6  1  0
 40  8  1  0
 41  8  1  0
 42  9  1  0
 43  9  1  0
 44 13  1  0
 45 13  1  0
 46 16  1  0
 47 17  1  0
 48 18  1  0
 49 19  1  0
 50 20  1  0
 51 22  1  0
 52 22  1  0
 53 23  1  0
 54 23  1  0
 55 25  1  0
 56 25  1  0
 57 27  1  0
 58 30  1  0
 59 31  1  0
 60 32  1  0
 61 33  1  0
 62 35  1  0
 63 35  1  0
 64 36  1  0
 65 36  1  0
 24 66  1  1
M  CHG  1  24   1
M  END
>  <b_m_subgroup_collapsed>  (843) 
0

>  <r_i_docking_score>  (843) 
-7.2570230903192998

>  <s_m_subgroup_title>  (843) 
glide-dock_SP_D22_pv

>  <s_m_subgroupid>  (843) 
glide-dock_SP_D22_pv

>  <Molecule ChEMBL ID>  (843) 
CHEMBL1171630

>  <Standard Type>  (843) 
Ki

>  <Standard Value>  (843) 
2.0

>  <label>  (843) 
1

$$$$
CHEMBL270406
     RDKit          3D

 59 61  0  0  1  0  0  0  0  0999 V2000
    5.6266    4.5502  -12.5324 C   0  0  0  0  0  0  0  0  0  0  0  0
    6.8562    3.9995  -12.9739 O   0  0  0  0  0  0  0  0  0  0  0  0
    7.9984    4.7500  -12.7994 C   0  0  0  0  0  0  0  0  0  0  0  0
    8.0757    5.8714  -11.9390 C   0  0  0  0  0  0  0  0  0  0  0  0
    9.2611    6.6243  -11.8259 C   0  0  0  0  0  0  0  0  0  0  0  0
    9.3149    7.8115  -10.8615 C   0  0  0  0  0  0  0  0  0  0  0  0
    9.2861    7.4057   -9.4315 N   0  0  0  0  0  0  0  0  0  0  0  0
    9.1192    8.5721   -8.5230 C   0  0  0  0  0  0  0  0  0  0  0  0
    8.9891    8.1130   -7.0611 C   0  0  0  0  0  0  0  0  0  0  0  0
   10.1290    7.2800   -6.7023 N   0  0  0  0  0  0  0  0  0  0  0  0
   10.9255    7.5805   -5.5791 C   0  0  0  0  0  0  0  0  0  0  0  0
   11.2513    6.5730   -4.6462 C   0  0  0  0  0  0  0  0  0  0  0  0
   11.9578    6.8595   -3.4636 C   0  0  0  0  0  0  0  0  0  0  0  0
   12.3652    8.1741   -3.2030 C   0  0  0  0  0  0  0  0  0  0  0  0
   12.0904    9.1810   -4.1422 C   0  0  0  0  0  0  0  0  0  0  0  0
   11.3954    8.8946   -5.3491 C   0  0  0  0  0  0  0  0  0  0  0  0
   11.1766    9.8289   -6.3396 O   0  0  0  0  0  0  0  0  0  0  0  0
   11.7781   11.0884   -6.1665 C   0  0  0  0  0  0  0  0  0  0  0  0
   10.3970    6.1297   -7.5511 C   0  0  0  0  0  0  0  0  0  0  0  0
   10.4440    6.5507   -9.0363 C   0  0  0  0  0  0  0  0  0  0  0  0
   10.3796    6.2845  -12.6167 C   0  0  0  0  0  0  0  0  0  0  0  0
   11.4736    7.1173  -12.5289 O   0  0  0  0  0  0  0  0  0  0  0  0
   12.5510    6.9629  -13.4372 C   0  0  0  0  0  0  0  0  0  0  0  0
   12.2457    7.4959  -14.8403 C   0  0  0  0  0  0  0  0  0  0  0  0
   13.2859    7.2814  -15.6435 F   0  0  0  0  0  0  0  0  0  0  0  0
   10.3185    5.1350  -13.4432 C   0  0  0  0  0  0  0  0  0  0  0  0
    9.1411    4.3537  -13.5229 C   0  0  0  0  0  0  0  0  0  0  0  0
    9.0281    3.2201  -14.3009 O   0  0  0  0  0  0  0  0  0  0  0  0
   10.2150    2.6428  -14.8262 C   0  0  0  0  0  0  0  0  0  0  0  0
    4.8103    3.9078  -12.8616 H   0  0  0  0  0  0  0  0  0  0  0  0
    5.5792    4.6073  -11.4471 H   0  0  0  0  0  0  0  0  0  0  0  0
    5.4569    5.5418  -12.9551 H   0  0  0  0  0  0  0  0  0  0  0  0
    7.2225    6.1719  -11.3522 H   0  0  0  0  0  0  0  0  0  0  0  0
    8.4806    8.4704  -11.0832 H   0  0  0  0  0  0  0  0  0  0  0  0
   10.1985    8.4255  -11.0314 H   0  0  0  0  0  0  0  0  0  0  0  0
    8.2444    9.1554   -8.8068 H   0  0  0  0  0  0  0  0  0  0  0  0
    9.9760    9.2385   -8.6300 H   0  0  0  0  0  0  0  0  0  0  0  0
    8.0859    7.5166   -6.9421 H   0  0  0  0  0  0  0  0  0  0  0  0
    8.8813    8.9643   -6.3893 H   0  0  0  0  0  0  0  0  0  0  0  0
   10.8912    5.5769   -4.7943 H   0  0  0  0  0  0  0  0  0  0  0  0
   12.1600    6.0730   -2.7500 H   0  0  0  0  0  0  0  0  0  0  0  0
   12.8918    8.4146   -2.2915 H   0  0  0  0  0  0  0  0  0  0  0  0
   12.4388   10.1710   -3.9025 H   0  0  0  0  0  0  0  0  0  0  0  0
   11.6857   11.7182   -7.0467 H   0  0  0  0  0  0  0  0  0  0  0  0
   11.2860   11.5862   -5.3288 H   0  0  0  0  0  0  0  0  0  0  0  0
   12.8461   10.9723   -5.9786 H   0  0  0  0  0  0  0  0  0  0  0  0
   11.3381    5.6559   -7.2701 H   0  0  0  0  0  0  0  0  0  0  0  0
    9.6105    5.3878   -7.4041 H   0  0  0  0  0  0  0  0  0  0  0  0
   10.4860    5.6528   -9.6522 H   0  0  0  0  0  0  0  0  0  0  0  0
   11.3660    7.1032   -9.2256 H   0  0  0  0  0  0  0  0  0  0  0  0
   13.3703    7.5495  -13.0269 H   0  0  0  0  0  0  0  0  0  0  0  0
   12.8860    5.9271  -13.4625 H   0  0  0  0  0  0  0  0  0  0  0  0
   11.3840    7.0102  -15.2959 H   0  0  0  0  0  0  0  0  0  0  0  0
   12.0861    8.5720  -14.8122 H   0  0  0  0  0  0  0  0  0  0  0  0
   11.1705    4.8522  -14.0368 H   0  0  0  0  0  0  0  0  0  0  0  0
    9.9740    1.6836  -15.2864 H   0  0  0  0  0  0  0  0  0  0  0  0
   10.6603    3.2748  -15.5947 H   0  0  0  0  0  0  0  0  0  0  0  0
   10.9498    2.4558  -14.0417 H   0  0  0  0  0  0  0  0  0  0  0  0
    8.4372    6.8626   -9.3181 H   0  0  0  0  0  0  0  0  0  0  0  0
  2  1  1  0
  3  2  1  0
  4  3  2  0
  5  4  1  0
  6  5  1  0
  7  6  1  0
  8  7  1  0
  9  8  1  0
 10  9  1  0
 11 10  1  0
 12 11  2  0
 13 12  1  0
 14 13  2  0
 15 14  1  0
 16 11  1  0
 16 15  2  0
 17 16  1  0
 18 17  1  0
 19 10  1  0
 20  7  1  0
 20 19  1  0
 21  5  2  0
 22 21  1  0
 23 22  1  0
 24 23  1  0
 25 24  1  0
 26 21  1  0
 27  3  1  0
 27 26  2  0
 28 27  1  0
 29 28  1  0
 30  1  1  0
 31  1  1  0
 32  1  1  0
 33  4  1  0
 34  6  1  0
 35  6  1  0
 36  8  1  0
 37  8  1  0
 38  9  1  0
 39  9  1  0
 40 12  1  0
 41 13  1  0
 42 14  1  0
 43 15  1  0
 44 18  1  0
 45 18  1  0
 46 18  1  0
 47 19  1  0
 48 19  1  0
 49 20  1  0
 50 20  1  0
 51 23  1  0
 52 23  1  0
 53 24  1  0
 54 24  1  0
 55 26  1  0
 56 29  1  0
 57 29  1  0
 58 29  1  0
 59  7  1  0
M  CHG  1   7   1
M  END
>  <b_m_subgroup_collapsed>  (844) 
0

>  <r_i_docking_score>  (844) 
-7.2551763074514897

>  <s_m_subgroup_title>  (844) 
glide-dock_SP_D22_pv

>  <s_m_subgroupid>  (844) 
glide-dock_SP_D22_pv

>  <Molecule ChEMBL ID>  (844) 
CHEMBL270406

>  <Standard Type>  (844) 
Ki

>  <Standard Value>  (844) 
94.0

>  <label>  (844) 
1

$$$$
CHEMBL4534961
     RDKit          3D

 73 77  0  0  1  0  0  0  0  0999 V2000
    4.8531    1.0561  -18.9875 C   0  0  0  0  0  0  0  0  0  0  0  0
    6.2659    0.9742  -18.8814 O   0  0  0  0  0  0  0  0  0  0  0  0
    6.9278    0.0179  -19.6286 C   0  0  0  0  0  0  0  0  0  0  0  0
    6.2979   -0.6973  -20.6801 C   0  0  0  0  0  0  0  0  0  0  0  0
    7.0196   -1.6287  -21.4476 C   0  0  0  0  0  0  0  0  0  0  0  0
    8.3790   -1.8530  -21.1847 C   0  0  0  0  0  0  0  0  0  0  0  0
    9.0156   -1.1515  -20.1456 C   0  0  0  0  0  0  0  0  0  0  0  0
    8.3025   -0.2224  -19.3523 C   0  0  0  0  0  0  0  0  0  0  0  0
    8.9769    0.4326  -18.3024 N   0  0  0  0  0  0  0  0  0  0  0  0
   10.3095    0.9875  -18.4876 C   0  0  0  0  0  0  0  0  0  0  0  0
   10.3260    2.4649  -18.0479 C   0  0  0  0  0  0  0  0  0  0  0  0
    9.7524    2.6972  -16.6234 C   0  0  0  0  0  0  0  0  0  0  0  0
   10.7298    2.1598  -15.5496 C   0  0  0  0  0  0  0  0  0  0  0  0
   10.2938    2.5146  -14.1165 C   0  0  0  0  0  0  0  0  0  0  0  0
   10.0917    3.9760  -13.9246 N   0  0  0  0  0  0  0  0  0  0  0  0
    9.6671    4.3061  -12.5371 C   0  0  0  0  0  0  0  0  0  0  0  0
    9.9182    5.7827  -12.1809 C   0  0  0  0  0  0  0  0  0  0  0  0
    9.6808    6.0870  -10.6954 C   0  0  0  0  0  0  0  0  0  0  0  0
   10.4900    7.6396  -10.2151 S   0  0  0  0  0  0  0  0  0  0  0  0
   10.3333    7.4939   -8.4641 C   0  0  0  0  0  0  0  0  0  0  0  0
    9.3371    6.8583   -7.8534 N   0  0  0  0  0  0  0  0  0  0  0  0
    9.6009    6.9714   -6.5122 N   0  0  0  0  0  0  0  0  0  0  0  0
   10.7374    7.6637   -6.4097 C   0  0  0  0  0  0  0  0  0  0  0  0
   11.3193    7.9512   -5.1050 C   0  0  0  0  0  0  0  0  0  0  0  0
   11.6860    6.8803   -4.2656 C   0  0  0  0  0  0  0  0  0  0  0  0
   12.1906    7.1220   -2.9717 C   0  0  0  0  0  0  0  0  0  0  0  0
   12.3369    8.4448   -2.5156 C   0  0  0  0  0  0  0  0  0  0  0  0
   11.9780    9.5178   -3.3531 C   0  0  0  0  0  0  0  0  0  0  0  0
   11.4675    9.2792   -4.6442 C   0  0  0  0  0  0  0  0  0  0  0  0
   11.0975   10.3246   -5.4215 F   0  0  0  0  0  0  0  0  0  0  0  0
   11.2487    8.0040   -7.6156 N   0  0  0  0  0  0  0  0  0  0  0  0
   12.4761    8.7044   -7.9486 C   0  0  0  0  0  0  0  0  0  0  0  0
    9.1812    4.5558  -14.9428 C   0  0  0  0  0  0  0  0  0  0  0  0
    9.6335    4.2184  -16.3749 C   0  0  0  0  0  0  0  0  0  0  0  0
    8.3536    2.0161  -16.5448 C   0  0  0  0  0  0  0  0  0  0  0  0
    8.3854    0.5395  -16.9748 C   0  0  0  0  0  0  0  0  0  0  0  0
    4.4859    1.7683  -18.2482 H   0  0  0  0  0  0  0  0  0  0  0  0
    4.5473    1.4179  -19.9687 H   0  0  0  0  0  0  0  0  0  0  0  0
    4.3771    0.0956  -18.7890 H   0  0  0  0  0  0  0  0  0  0  0  0
    5.2576   -0.5431  -20.9268 H   0  0  0  0  0  0  0  0  0  0  0  0
    6.5249   -2.1658  -22.2431 H   0  0  0  0  0  0  0  0  0  0  0  0
    8.9340   -2.5683  -21.7728 H   0  0  0  0  0  0  0  0  0  0  0  0
   10.0563   -1.3490  -19.9428 H   0  0  0  0  0  0  0  0  0  0  0  0
   10.6219    0.9205  -19.5297 H   0  0  0  0  0  0  0  0  0  0  0  0
   11.0189    0.4030  -17.9028 H   0  0  0  0  0  0  0  0  0  0  0  0
    9.7332    3.0371  -18.7644 H   0  0  0  0  0  0  0  0  0  0  0  0
   11.3421    2.8556  -18.1207 H   0  0  0  0  0  0  0  0  0  0  0  0
   11.7268    2.5703  -15.7239 H   0  0  0  0  0  0  0  0  0  0  0  0
   10.8477    1.0789  -15.6310 H   0  0  0  0  0  0  0  0  0  0  0  0
   11.0776    2.1687  -13.4468 H   0  0  0  0  0  0  0  0  0  0  0  0
    9.3874    1.9712  -13.8427 H   0  0  0  0  0  0  0  0  0  0  0  0
   10.2290    3.6870  -11.8402 H   0  0  0  0  0  0  0  0  0  0  0  0
    8.6187    4.0456  -12.3873 H   0  0  0  0  0  0  0  0  0  0  0  0
    9.2807    6.4440  -12.7661 H   0  0  0  0  0  0  0  0  0  0  0  0
   10.9447    6.0422  -12.4406 H   0  0  0  0  0  0  0  0  0  0  0  0
   10.0862    5.2879  -10.0761 H   0  0  0  0  0  0  0  0  0  0  0  0
    8.6121    6.1510  -10.4797 H   0  0  0  0  0  0  0  0  0  0  0  0
   11.5631    5.8618   -4.6056 H   0  0  0  0  0  0  0  0  0  0  0  0
   12.4521    6.2912   -2.3317 H   0  0  0  0  0  0  0  0  0  0  0  0
   12.7120    8.6391   -1.5211 H   0  0  0  0  0  0  0  0  0  0  0  0
   12.0793   10.5309   -2.9911 H   0  0  0  0  0  0  0  0  0  0  0  0
   12.2968    9.3685   -8.7922 H   0  0  0  0  0  0  0  0  0  0  0  0
   12.8334    9.2984   -7.1064 H   0  0  0  0  0  0  0  0  0  0  0  0
   13.2400    7.9867   -8.2465 H   0  0  0  0  0  0  0  0  0  0  0  0
    8.1684    4.2035  -14.7477 H   0  0  0  0  0  0  0  0  0  0  0  0
    9.1513    5.6390  -14.8389 H   0  0  0  0  0  0  0  0  0  0  0  0
   10.5960    4.6961  -16.5633 H   0  0  0  0  0  0  0  0  0  0  0  0
    8.9417    4.6624  -17.0918 H   0  0  0  0  0  0  0  0  0  0  0  0
    7.9198    2.0776  -15.5479 H   0  0  0  0  0  0  0  0  0  0  0  0
    7.6616    2.5502  -17.1967 H   0  0  0  0  0  0  0  0  0  0  0  0
    7.3895    0.1014  -16.9387 H   0  0  0  0  0  0  0  0  0  0  0  0
    8.9873   -0.0482  -16.2822 H   0  0  0  0  0  0  0  0  0  0  0  0
   10.9957    4.4045  -14.0638 H   0  0  0  0  0  0  0  0  0  0  0  0
  2  1  1  0
  3  2  1  0
  4  3  2  0
  5  4  1  0
  6  5  2  0
  7  6  1  0
  8  3  1  0
  8  7  2  0
  9  8  1  0
 10  9  1  0
 11 10  1  0
 12 11  1  0
 13 12  1  0
 14 13  1  0
 15 14  1  0
 16 15  1  0
 17 16  1  0
 18 17  1  0
 19 18  1  0
 20 19  1  0
 21 20  2  0
 22 21  1  0
 23 22  2  0
 24 23  1  0
 25 24  2  0
 26 25  1  0
 27 26  2  0
 28 27  1  0
 29 24  1  0
 29 28  2  0
 30 29  1  0
 31 20  1  0
 31 23  1  0
 32 31  1  0
 33 15  1  0
 34 12  1  0
 34 33  1  0
 35 12  1  0
 36  9  1  0
 36 35  1  0
 37  1  1  0
 38  1  1  0
 39  1  1  0
 40  4  1  0
 41  5  1  0
 42  6  1  0
 43  7  1  0
 44 10  1  0
 45 10  1  0
 46 11  1  0
 47 11  1  0
 48 13  1  0
 49 13  1  0
 50 14  1  0
 51 14  1  0
 52 16  1  0
 53 16  1  0
 54 17  1  0
 55 17  1  0
 56 18  1  0
 57 18  1  0
 58 25  1  0
 59 26  1  0
 60 27  1  0
 61 28  1  0
 62 32  1  0
 63 32  1  0
 64 32  1  0
 65 33  1  0
 66 33  1  0
 67 34  1  0
 68 34  1  0
 69 35  1  0
 70 35  1  0
 71 36  1  0
 72 36  1  0
 73 15  1  0
M  CHG  1  15   1
M  END
>  <b_m_subgroup_collapsed>  (845) 
0

>  <r_i_docking_score>  (845) 
-7.2500778770172003

>  <s_m_subgroup_title>  (845) 
glide-dock_SP_D22_pv

>  <s_m_subgroupid>  (845) 
glide-dock_SP_D22_pv

>  <Molecule ChEMBL ID>  (845) 
CHEMBL4534961

>  <Standard Type>  (845) 
Ki

>  <Standard Value>  (845) 
19655.0

>  <label>  (845) 
0

$$$$
CHEMBL5413237
     RDKit          3D

 65 67  0  0  1  0  0  0  0  0999 V2000
   13.0641    7.4282  -15.8798 C   0  0  0  0  0  0  0  0  0  0  0  0
   12.1105    6.3988  -16.5209 C   0  0  0  0  0  0  0  0  0  0  0  0
   12.5800    4.9082  -16.5485 C   0  0  0  0  0  0  0  0  0  0  0  0
   13.5746    4.6207  -17.7077 C   0  0  0  0  0  0  0  0  0  0  0  0
   14.8833    5.4212  -17.7301 C   0  0  0  0  0  0  0  0  0  0  0  0
   11.3912    3.9076  -16.7419 C   0  0  0  0  0  0  0  0  0  0  0  0
   10.4917    3.6328  -15.5080 C   0  0  1  0  0  0  0  0  0  0  0  0
    9.7110    4.8120  -15.3038 O   0  0  0  0  0  0  0  0  0  0  0  0
    8.8424    4.8814  -14.1768 C   0  0  0  0  0  0  0  0  0  0  0  0
    9.4906    5.7330  -13.0716 C   0  0  0  0  0  0  0  0  0  0  0  0
    8.5401    6.6866  -12.3212 C   0  0  0  0  0  0  0  0  0  0  0  0
    8.0861    6.1723  -11.0165 N   0  0  0  0  0  0  0  0  0  0  0  0
    9.1070    5.7883  -10.0095 C   0  0  0  0  0  0  0  0  0  0  0  0
   10.1155    6.8662   -9.6159 C   0  0  0  0  0  0  0  0  0  0  0  0
   11.1096    7.3478  -10.5014 C   0  0  0  0  0  0  0  0  0  0  0  0
   12.1141    8.1933  -10.0039 C   0  0  0  0  0  0  0  0  0  0  0  0
   12.0858    8.5496   -8.6463 C   0  0  0  0  0  0  0  0  0  0  0  0
   11.0379    8.0568   -7.8463 C   0  0  0  0  0  0  0  0  0  0  0  0
   10.8984    8.4533   -6.3896 C   0  0  0  0  0  0  0  0  0  0  0  0
   11.7986    9.3692   -6.0254 F   0  0  0  0  0  0  0  0  0  0  0  0
    9.6860    8.9720   -6.2469 F   0  0  0  0  0  0  0  0  0  0  0  0
   11.0197    7.3887   -5.5963 F   0  0  0  0  0  0  0  0  0  0  0  0
   10.0833    7.2256   -8.3182 N   0  0  0  0  0  0  0  0  0  0  0  0
    9.5678    2.4300  -15.7931 C   0  0  0  0  0  0  0  0  0  0  0  0
    9.5438    1.2709  -14.9794 C   0  0  0  0  0  0  0  0  0  0  0  0
    8.6143    0.2560  -15.2652 C   0  0  0  0  0  0  0  0  0  0  0  0
    7.7486    0.4148  -16.3585 C   0  0  0  0  0  0  0  0  0  0  0  0
    7.8469    1.5922  -17.1188 C   0  0  0  0  0  0  0  0  0  0  0  0
    8.7248    2.5766  -16.8425 N   0  0  0  0  0  0  0  0  0  0  0  0
   11.4447    3.3799  -14.3200 C   0  0  0  0  0  0  0  0  0  0  0  0
   12.5185    4.4624  -14.1659 C   0  0  0  0  0  0  0  0  0  0  0  0
   13.2860    4.5721  -15.3542 O   0  0  0  0  0  0  0  0  0  0  0  0
   12.5804    8.4041  -15.8293 H   0  0  0  0  0  0  0  0  0  0  0  0
   13.3366    7.1526  -14.8610 H   0  0  0  0  0  0  0  0  0  0  0  0
   13.9889    7.5699  -16.4313 H   0  0  0  0  0  0  0  0  0  0  0  0
   11.8612    6.7173  -17.5332 H   0  0  0  0  0  0  0  0  0  0  0  0
   11.1828    6.4881  -15.9659 H   0  0  0  0  0  0  0  0  0  0  0  0
   13.8556    3.5666  -17.6675 H   0  0  0  0  0  0  0  0  0  0  0  0
   13.0690    4.7531  -18.6651 H   0  0  0  0  0  0  0  0  0  0  0  0
   15.5926    4.9677  -18.4222 H   0  0  0  0  0  0  0  0  0  0  0  0
   14.7179    6.4390  -18.0814 H   0  0  0  0  0  0  0  0  0  0  0  0
   15.3538    5.4552  -16.7463 H   0  0  0  0  0  0  0  0  0  0  0  0
   11.8056    2.9419  -17.0350 H   0  0  0  0  0  0  0  0  0  0  0  0
   10.7792    4.2273  -17.5865 H   0  0  0  0  0  0  0  0  0  0  0  0
    7.9414    5.3720  -14.5345 H   0  0  0  0  0  0  0  0  0  0  0  0
    8.5293    3.9054  -13.8036 H   0  0  0  0  0  0  0  0  0  0  0  0
   10.0635    5.0937  -12.4073 H   0  0  0  0  0  0  0  0  0  0  0  0
   10.2471    6.3663  -13.5217 H   0  0  0  0  0  0  0  0  0  0  0  0
    9.0226    7.6507  -12.1609 H   0  0  0  0  0  0  0  0  0  0  0  0
    7.6615    6.9169  -12.9233 H   0  0  0  0  0  0  0  0  0  0  0  0
    7.4723    6.8960  -10.6096 H   0  0  0  0  0  0  0  0  0  0  0  0
    8.5559    5.4839   -9.1180 H   0  0  0  0  0  0  0  0  0  0  0  0
    9.6477    4.8948  -10.3189 H   0  0  0  0  0  0  0  0  0  0  0  0
   11.1669    7.0326  -11.5283 H   0  0  0  0  0  0  0  0  0  0  0  0
   12.8997    8.5588  -10.6481 H   0  0  0  0  0  0  0  0  0  0  0  0
   12.8507    9.1924   -8.2369 H   0  0  0  0  0  0  0  0  0  0  0  0
   10.1957    1.1451  -14.1292 H   0  0  0  0  0  0  0  0  0  0  0  0
    8.5578   -0.6261  -14.6475 H   0  0  0  0  0  0  0  0  0  0  0  0
    7.0263   -0.3492  -16.6052 H   0  0  0  0  0  0  0  0  0  0  0  0
    7.1965    1.7531  -17.9658 H   0  0  0  0  0  0  0  0  0  0  0  0
   10.8872    3.2456  -13.3943 H   0  0  0  0  0  0  0  0  0  0  0  0
   11.9715    2.4437  -14.4923 H   0  0  0  0  0  0  0  0  0  0  0  0
   12.1057    5.4288  -13.8991 H   0  0  0  0  0  0  0  0  0  0  0  0
   13.1924    4.1824  -13.3563 H   0  0  0  0  0  0  0  0  0  0  0  0
    7.4987    5.3671  -11.1730 H   0  0  0  0  0  0  0  0  0  0  0  0
  2  1  1  0
  3  2  1  0
  4  3  1  0
  5  4  1  0
  6  3  1  0
  7  6  1  0
  7  8  1  1
  9  8  1  0
 10  9  1  0
 11 10  1  0
 12 11  1  0
 13 12  1  0
 14 13  1  0
 15 14  2  0
 16 15  1  0
 17 16  2  0
 18 17  1  0
 19 18  1  0
 20 19  1  0
 21 19  1  0
 22 19  1  0
 23 14  1  0
 23 18  2  0
 24  7  1  0
 25 24  2  0
 26 25  1  0
 27 26  2  0
 28 27  1  0
 29 24  1  0
 29 28  2  0
 30  7  1  0
 31 30  1  0
 32  3  1  0
 32 31  1  0
 33  1  1  0
 34  1  1  0
 35  1  1  0
 36  2  1  0
 37  2  1  0
 38  4  1  0
 39  4  1  0
 40  5  1  0
 41  5  1  0
 42  5  1  0
 43  6  1  0
 44  6  1  0
 45  9  1  0
 46  9  1  0
 47 10  1  0
 48 10  1  0
 49 11  1  0
 50 11  1  0
 51 12  1  0
 52 13  1  0
 53 13  1  0
 54 15  1  0
 55 16  1  0
 56 17  1  0
 57 25  1  0
 58 26  1  0
 59 27  1  0
 60 28  1  0
 61 30  1  0
 62 30  1  0
 63 31  1  0
 64 31  1  0
 65 12  1  0
M  CHG  1  12   1
M  END
>  <b_m_subgroup_collapsed>  (846) 
0

>  <r_i_docking_score>  (846) 
-7.2489635092171802

>  <s_m_subgroup_title>  (846) 
glide-dock_SP_D22_pv

>  <s_m_subgroupid>  (846) 
glide-dock_SP_D22_pv

>  <Molecule ChEMBL ID>  (846) 
CHEMBL5413237

>  <Standard Type>  (846) 
Ki

>  <Standard Value>  (846) 
100000.0

>  <label>  (846) 
0

$$$$
CHEMBL5722980
     RDKit          3D

 42 44  0  0  1  0  0  0  0  0999 V2000
   12.7892    8.7765   -1.5605 C   0  0  0  0  0  0  0  0  0  0  0  0
   12.2357    8.2979   -2.8837 C   0  0  0  0  0  0  0  0  0  0  0  0
   11.8104    6.9720   -3.0434 C   0  0  0  0  0  0  0  0  0  0  0  0
   11.2866    6.5689   -4.2819 C   0  0  0  0  0  0  0  0  0  0  0  0
   11.1697    7.4467   -5.3646 C   0  0  0  0  0  0  0  0  0  0  0  0
   10.6494    7.0089   -6.5886 N   0  0  0  0  0  0  0  0  0  0  0  0
   10.5954    7.8317   -7.7009 C   0  0  0  0  0  0  0  0  0  0  0  0
   10.1160    7.1903   -9.0004 C   0  0  0  0  0  0  0  0  0  0  0  0
    9.2871    5.9984   -8.8105 N   0  0  0  0  0  0  0  0  0  0  0  0
    9.1190    5.2512  -10.0600 C   0  0  0  0  0  0  0  0  0  0  0  0
    8.1168    5.9146  -11.0225 C   0  0  0  0  0  0  0  0  0  0  0  0
    8.2920    5.3699  -12.7532 S   0  0  0  0  0  0  0  0  0  0  0  0
    7.1000    4.0743  -12.8794 C   0  0  0  0  0  0  0  0  0  0  0  0
    7.1195    3.1605  -13.8469 N   0  0  0  0  0  0  0  0  0  0  0  0
    6.0824    2.3629  -13.4554 C   0  0  0  0  0  0  0  0  0  0  0  0
    5.7408    1.0824  -14.1380 C   0  0  0  0  0  0  0  0  0  0  0  0
    5.4030    2.7690  -12.3871 N   0  0  0  0  0  0  0  0  0  0  0  0
    6.0863    3.8786  -12.0291 N   0  0  0  0  0  0  0  0  0  0  0  0
   10.9673    9.1276   -7.6232 C   0  0  0  0  0  0  0  0  0  0  0  0
   11.4428    9.7220   -6.3494 C   0  0  0  0  0  0  0  0  0  0  0  0
   11.6862   10.9231   -6.2469 O   0  0  0  0  0  0  0  0  0  0  0  0
   11.5864    8.7826   -5.2062 C   0  0  0  0  0  0  0  0  0  0  0  0
   12.1354    9.1852   -3.9692 C   0  0  0  0  0  0  0  0  0  0  0  0
   12.0579    9.3978   -1.0471 H   0  0  0  0  0  0  0  0  0  0  0  0
   13.0434    7.9410   -0.9120 H   0  0  0  0  0  0  0  0  0  0  0  0
   13.6860    9.3708   -1.7174 H   0  0  0  0  0  0  0  0  0  0  0  0
   11.8736    6.2642   -2.2297 H   0  0  0  0  0  0  0  0  0  0  0  0
   10.9480    5.5584   -4.4011 H   0  0  0  0  0  0  0  0  0  0  0  0
   10.3427    6.0503   -6.6951 H   0  0  0  0  0  0  0  0  0  0  0  0
    9.5532    7.9350   -9.5628 H   0  0  0  0  0  0  0  0  0  0  0  0
   10.9999    6.9419   -9.5892 H   0  0  0  0  0  0  0  0  0  0  0  0
    8.3757    6.2864   -8.4669 H   0  0  0  0  0  0  0  0  0  0  0  0
   10.0859    5.1226  -10.5442 H   0  0  0  0  0  0  0  0  0  0  0  0
    8.7628    4.2505   -9.8151 H   0  0  0  0  0  0  0  0  0  0  0  0
    7.1023    5.7723  -10.6582 H   0  0  0  0  0  0  0  0  0  0  0  0
    8.2921    6.9861  -11.0562 H   0  0  0  0  0  0  0  0  0  0  0  0
    4.6598    0.9714  -14.2280 H   0  0  0  0  0  0  0  0  0  0  0  0
    6.1768    1.0505  -15.1363 H   0  0  0  0  0  0  0  0  0  0  0  0
    6.1302    0.2401  -13.5657 H   0  0  0  0  0  0  0  0  0  0  0  0
    5.8620    4.4225  -11.2025 H   0  0  0  0  0  0  0  0  0  0  0  0
   10.9265    9.7671   -8.4930 H   0  0  0  0  0  0  0  0  0  0  0  0
   12.5072   10.1723   -3.8326 H   0  0  0  0  0  0  0  0  0  0  0  0
  2  1  1  0
  3  2  2  0
  4  3  1  0
  5  4  2  0
  6  5  1  0
  7  6  1  0
  8  7  1  0
  9  8  1  0
 10  9  1  0
 11 10  1  0
 12 11  1  0
 13 12  1  0
 14 13  2  0
 15 14  1  0
 16 15  1  0
 17 15  2  0
 18 13  1  0
 18 17  1  0
 19  7  2  0
 20 19  1  0
 21 20  2  0
 22  5  1  0
 22 20  1  0
 23  2  1  0
 23 22  2  0
 24  1  1  0
 25  1  1  0
 26  1  1  0
 27  3  1  0
 28  4  1  0
 29  6  1  0
 30  8  1  0
 31  8  1  0
 32  9  1  0
 33 10  1  0
 34 10  1  0
 35 11  1  0
 36 11  1  0
 37 16  1  0
 38 16  1  0
 39 16  1  0
 40 18  1  0
 41 19  1  0
 42 23  1  0
M  END
>  <b_m_subgroup_collapsed>  (847) 
0

>  <r_i_docking_score>  (847) 
-7.2483254734214304

>  <s_m_subgroup_title>  (847) 
glide-dock_SP_D22_pv

>  <s_m_subgroupid>  (847) 
glide-dock_SP_D22_pv

>  <Molecule ChEMBL ID>  (847) 
CHEMBL5722980

>  <Standard Type>  (847) 
Ki

>  <Standard Value>  (847) 
10000.0

>  <label>  (847) 
0

$$$$
CHEMBL3084505
     RDKit          3D

 50 54  0  0  1  0  0  0  0  0999 V2000
    9.9008    6.5723   -6.1864 O   0  0  0  0  0  0  0  0  0  0  0  0
   10.6046    7.7148   -6.5686 C   0  0  1  0  0  0  0  0  0  0  0  0
   11.2530    8.2209   -5.2709 C   0  0  0  0  0  0  0  0  0  0  0  0
   11.2527    9.5768   -4.8777 C   0  0  0  0  0  0  0  0  0  0  0  0
   11.6854    9.9268   -3.5814 C   0  0  0  0  0  0  0  0  0  0  0  0
   12.1342    8.9523   -2.6802 C   0  0  0  0  0  0  0  0  0  0  0  0
   12.4872    9.3041   -1.4268 F   0  0  0  0  0  0  0  0  0  0  0  0
   12.2018    7.6110   -3.0794 C   0  0  0  0  0  0  0  0  0  0  0  0
   11.7705    7.2553   -4.3661 C   0  0  0  0  0  0  0  0  0  0  0  0
   11.6521    7.3722   -7.6654 C   0  0  0  0  0  0  0  0  0  0  0  0
   11.0532    7.0309   -9.0732 C   0  0  1  0  0  0  0  0  0  0  0  0
   10.0687    5.8506   -9.0068 C   0  0  0  0  0  0  0  0  0  0  0  0
    8.7341    6.5516   -8.7366 C   0  0  0  0  0  0  0  0  0  0  0  0
    9.0866    8.0661   -8.6364 C   0  0  1  0  0  0  0  0  0  0  0  0
    9.4962    8.5765   -7.2180 C   0  0  0  0  0  0  0  0  0  0  0  0
   10.2359    8.1647   -9.5487 N   0  0  2  0  0  0  0  0  0  0  0  0
    9.8124    8.1733  -10.9926 C   0  0  0  0  0  0  0  0  0  0  0  0
   10.5363    7.2539  -11.9426 C   0  0  0  0  0  0  0  0  0  0  0  0
   11.8277    7.3720  -12.3939 C   0  0  0  0  0  0  0  0  0  0  0  0
   12.0868    6.3581  -13.2991 N   0  0  0  0  0  0  0  0  0  0  0  0
   10.9847    5.5445  -13.4540 C   0  0  0  0  0  0  0  0  0  0  0  0
   10.7587    4.3939  -14.2307 C   0  0  0  0  0  0  0  0  0  0  0  0
    9.4993    3.7683  -14.1868 C   0  0  0  0  0  0  0  0  0  0  0  0
    8.4808    4.3041  -13.3749 C   0  0  0  0  0  0  0  0  0  0  0  0
    8.7177    5.4581  -12.6000 C   0  0  0  0  0  0  0  0  0  0  0  0
    9.9789    6.1028  -12.6118 C   0  0  0  0  0  0  0  0  0  0  0  0
    9.2019    6.8184   -5.5978 H   0  0  0  0  0  0  0  0  0  0  0  0
   10.8749   10.3494   -5.5286 H   0  0  0  0  0  0  0  0  0  0  0  0
   11.6542   10.9566   -3.2484 H   0  0  0  0  0  0  0  0  0  0  0  0
   12.5521    6.8528   -2.3954 H   0  0  0  0  0  0  0  0  0  0  0  0
   11.7969    6.2092   -4.6380 H   0  0  0  0  0  0  0  0  0  0  0  0
   12.3166    8.2293   -7.7875 H   0  0  0  0  0  0  0  0  0  0  0  0
   12.2835    6.5644   -7.3093 H   0  0  0  0  0  0  0  0  0  0  0  0
   11.8718    6.8502   -9.7651 H   0  0  0  0  0  0  0  0  0  0  0  0
   10.3378    5.1187   -8.2461 H   0  0  0  0  0  0  0  0  0  0  0  0
   10.0264    5.3095   -9.9510 H   0  0  0  0  0  0  0  0  0  0  0  0
    8.1805    6.1693   -7.8795 H   0  0  0  0  0  0  0  0  0  0  0  0
    8.0852    6.3667   -9.5903 H   0  0  0  0  0  0  0  0  0  0  0  0
    8.2810    8.7091   -8.9842 H   0  0  0  0  0  0  0  0  0  0  0  0
    8.6158    8.6361   -6.5746 H   0  0  0  0  0  0  0  0  0  0  0  0
    9.8502    9.5985   -7.3350 H   0  0  0  0  0  0  0  0  0  0  0  0
    8.7433    7.9740  -11.0778 H   0  0  0  0  0  0  0  0  0  0  0  0
    9.8966    9.1925  -11.3494 H   0  0  0  0  0  0  0  0  0  0  0  0
   12.5901    8.0991  -12.1523 H   0  0  0  0  0  0  0  0  0  0  0  0
   12.9914    6.2279  -13.7383 H   0  0  0  0  0  0  0  0  0  0  0  0
   11.5434    3.9936  -14.8558 H   0  0  0  0  0  0  0  0  0  0  0  0
    9.3126    2.8815  -14.7752 H   0  0  0  0  0  0  0  0  0  0  0  0
    7.5121    3.8270  -13.3406 H   0  0  0  0  0  0  0  0  0  0  0  0
    7.9213    5.8470  -11.9806 H   0  0  0  0  0  0  0  0  0  0  0  0
   10.7388    9.0232   -9.3781 H   0  0  0  0  0  0  0  0  0  0  0  0
  2  1  1  1
  3  2  1  0
  4  3  1  0
  5  4  2  0
  6  5  1  0
  7  6  1  0
  8  6  2  0
  9  3  2  0
  9  8  1  0
 10  2  1  0
 11 10  1  0
 12 11  1  0
 13 12  1  0
 14 13  1  0
 15  2  1  0
 15 14  1  0
 16 11  1  0
 16 14  1  0
 17 16  1  0
 18 17  1  0
 19 18  2  0
 20 19  1  0
 21 20  1  0
 22 21  2  0
 23 22  1  0
 24 23  2  0
 25 24  1  0
 26 18  1  0
 26 21  1  0
 26 25  2  0
 27  1  1  0
 28  4  1  0
 29  5  1  0
 30  8  1  0
 31  9  1  0
 32 10  1  0
 33 10  1  0
 11 34  1  6
 35 12  1  0
 36 12  1  0
 37 13  1  0
 38 13  1  0
 14 39  1  6
 40 15  1  0
 41 15  1  0
 42 17  1  0
 43 17  1  0
 44 19  1  0
 45 20  1  0
 46 22  1  0
 47 23  1  0
 48 24  1  0
 49 25  1  0
 16 50  1  1
M  CHG  1  16   1
M  END
>  <b_m_subgroup_collapsed>  (848) 
0

>  <r_i_docking_score>  (848) 
-7.2479088139940204

>  <s_m_subgroup_title>  (848) 
glide-dock_SP_D22_pv

>  <s_m_subgroupid>  (848) 
glide-dock_SP_D22_pv

>  <Molecule ChEMBL ID>  (848) 
CHEMBL3084505

>  <Standard Type>  (848) 
Ki

>  <Standard Value>  (848) 
41.4

>  <label>  (848) 
1

$$$$
CHEMBL554914
     RDKit          3D

 48 51  0  0  1  0  0  0  0  0999 V2000
   10.3731    6.1698  -12.2766 O   0  0  0  0  0  0  0  0  0  0  0  0
    9.2860    5.5928  -12.3208 C   0  0  0  0  0  0  0  0  0  0  0  0
    8.4500    5.4047  -11.2873 N   0  0  0  0  0  0  0  0  0  0  0  0
    8.6528    5.7301   -9.8748 C   0  0  0  0  0  0  0  0  0  0  0  0
    9.3549    7.0762   -9.6140 C   0  0  0  0  0  0  0  0  0  0  0  0
    9.2859    7.4491   -8.1838 N   0  0  0  0  0  0  0  0  0  0  0  0
    9.9730    6.4998   -7.2593 C   0  0  0  0  0  0  0  0  0  0  0  0
   10.6181    7.3911   -6.2392 C   0  0  0  0  0  0  0  0  0  0  0  0
   11.2860    7.0106   -5.0613 C   0  0  0  0  0  0  0  0  0  0  0  0
   11.8165    8.0306   -4.2416 C   0  0  0  0  0  0  0  0  0  0  0  0
   11.6770    9.3906   -4.6071 C   0  0  0  0  0  0  0  0  0  0  0  0
   11.0091    9.7515   -5.7996 C   0  0  0  0  0  0  0  0  0  0  0  0
   10.4850    8.7210   -6.6012 C   0  0  0  0  0  0  0  0  0  0  0  0
    9.7436    8.8412   -7.9055 C   0  0  0  0  0  0  0  0  0  0  0  0
    7.2365    4.7050  -11.6724 C   0  0  0  0  0  0  0  0  0  0  0  0
    7.4275    4.4650  -13.1654 C   0  0  0  0  0  0  0  0  0  0  0  0
    8.7375    5.0414  -13.4136 N   0  0  0  0  0  0  0  0  0  0  0  0
    9.3112    5.0346  -14.7575 C   0  0  0  0  0  0  0  0  0  0  0  0
    9.8535    3.6960  -15.2464 C   0  0  0  0  0  0  0  0  0  0  0  0
    9.9866    2.5721  -14.3981 C   0  0  0  0  0  0  0  0  0  0  0  0
   10.4856    1.3562  -14.9032 C   0  0  0  0  0  0  0  0  0  0  0  0
   10.8774    1.2556  -16.2510 C   0  0  0  0  0  0  0  0  0  0  0  0
   10.7565    2.3721  -17.0989 C   0  0  0  0  0  0  0  0  0  0  0  0
   10.2450    3.5851  -16.5978 C   0  0  0  0  0  0  0  0  0  0  0  0
    7.6859    5.7520   -9.3796 H   0  0  0  0  0  0  0  0  0  0  0  0
    9.2108    4.9106   -9.4213 H   0  0  0  0  0  0  0  0  0  0  0  0
   10.4024    7.0380   -9.9145 H   0  0  0  0  0  0  0  0  0  0  0  0
    8.8846    7.8618  -10.2063 H   0  0  0  0  0  0  0  0  0  0  0  0
    9.2530    5.8220   -6.8030 H   0  0  0  0  0  0  0  0  0  0  0  0
   10.7448    5.9168   -7.7643 H   0  0  0  0  0  0  0  0  0  0  0  0
   11.3844    5.9708   -4.7851 H   0  0  0  0  0  0  0  0  0  0  0  0
   12.3302    7.7706   -3.3276 H   0  0  0  0  0  0  0  0  0  0  0  0
   12.0841   10.1588   -3.9661 H   0  0  0  0  0  0  0  0  0  0  0  0
   10.9055   10.7887   -6.0835 H   0  0  0  0  0  0  0  0  0  0  0  0
   10.4279    9.2050   -8.6740 H   0  0  0  0  0  0  0  0  0  0  0  0
    8.8906    9.5171   -7.8464 H   0  0  0  0  0  0  0  0  0  0  0  0
    7.1275    3.7727  -11.1174 H   0  0  0  0  0  0  0  0  0  0  0  0
    6.3625    5.3284  -11.4756 H   0  0  0  0  0  0  0  0  0  0  0  0
    6.6618    4.9704  -13.7543 H   0  0  0  0  0  0  0  0  0  0  0  0
    7.4064    3.4022  -13.4098 H   0  0  0  0  0  0  0  0  0  0  0  0
   10.1141    5.7698  -14.8318 H   0  0  0  0  0  0  0  0  0  0  0  0
    8.5360    5.3722  -15.4438 H   0  0  0  0  0  0  0  0  0  0  0  0
    9.7119    2.6202  -13.3545 H   0  0  0  0  0  0  0  0  0  0  0  0
   10.5832    0.5042  -14.2466 H   0  0  0  0  0  0  0  0  0  0  0  0
   11.2715    0.3251  -16.6324 H   0  0  0  0  0  0  0  0  0  0  0  0
   11.0558    2.2989  -18.1333 H   0  0  0  0  0  0  0  0  0  0  0  0
   10.1564    4.4370  -17.2564 H   0  0  0  0  0  0  0  0  0  0  0  0
    8.3024    7.4253   -7.9332 H   0  0  0  0  0  0  0  0  0  0  0  0
  2  1  2  0
  3  2  1  0
  4  3  1  0
  5  4  1  0
  6  5  1  0
  7  6  1  0
  8  7  1  0
  9  8  2  0
 10  9  1  0
 11 10  2  0
 12 11  1  0
 13  8  1  0
 13 12  2  0
 14  6  1  0
 14 13  1  0
 15  3  1  0
 16 15  1  0
 17  2  1  0
 17 16  1  0
 18 17  1  0
 19 18  1  0
 20 19  2  0
 21 20  1  0
 22 21  2  0
 23 22  1  0
 24 19  1  0
 24 23  2  0
 25  4  1  0
 26  4  1  0
 27  5  1  0
 28  5  1  0
 29  7  1  0
 30  7  1  0
 31  9  1  0
 32 10  1  0
 33 11  1  0
 34 12  1  0
 35 14  1  0
 36 14  1  0
 37 15  1  0
 38 15  1  0
 39 16  1  0
 40 16  1  0
 41 18  1  0
 42 18  1  0
 43 20  1  0
 44 21  1  0
 45 22  1  0
 46 23  1  0
 47 24  1  0
 48  6  1  0
M  CHG  1   6   1
M  END
>  <b_m_subgroup_collapsed>  (849) 
0

>  <r_i_docking_score>  (849) 
-7.2456262218100997

>  <s_m_subgroup_title>  (849) 
glide-dock_SP_D22_pv

>  <s_m_subgroupid>  (849) 
glide-dock_SP_D22_pv

>  <Molecule ChEMBL ID>  (849) 
CHEMBL554914

>  <Standard Type>  (849) 
Ki

>  <Standard Value>  (849) 
10000.0

>  <label>  (849) 
0

$$$$
CHEMBL553238
     RDKit          3D

 48 51  0  0  1  0  0  0  0  0999 V2000
    9.0605    4.6400  -10.3467 O   0  0  0  0  0  0  0  0  0  0  0  0
    8.7777    5.6199  -11.0338 C   0  0  0  0  0  0  0  0  0  0  0  0
    9.2859    6.8514  -10.8697 N   0  0  0  0  0  0  0  0  0  0  0  0
   10.2213    7.2660   -9.8297 C   0  0  0  0  0  0  0  0  0  0  0  0
    9.5926    7.1833   -8.4280 C   0  0  0  0  0  0  0  0  0  0  0  0
   10.5934    7.5443   -7.3966 N   0  0  0  0  0  0  0  0  0  0  0  0
   10.7120    6.5747   -6.2737 C   0  0  0  0  0  0  0  0  0  0  0  0
   11.2069    7.4250   -5.1449 C   0  0  0  0  0  0  0  0  0  0  0  0
   11.7149    7.0055   -3.9035 C   0  0  0  0  0  0  0  0  0  0  0  0
   12.0879    8.0021   -2.9749 C   0  0  0  0  0  0  0  0  0  0  0  0
   11.9440    9.3730   -3.2975 C   0  0  0  0  0  0  0  0  0  0  0  0
   11.4184    9.7716   -4.5478 C   0  0  0  0  0  0  0  0  0  0  0  0
   11.0632    8.7661   -5.4602 C   0  0  0  0  0  0  0  0  0  0  0  0
   10.4896    8.9239   -6.8430 C   0  0  0  0  0  0  0  0  0  0  0  0
    8.8217    7.7927  -11.8703 C   0  0  0  0  0  0  0  0  0  0  0  0
    7.8274    6.9554  -12.6740 C   0  0  0  0  0  0  0  0  0  0  0  0
    7.9473    5.6388  -12.0856 N   0  0  0  0  0  0  0  0  0  0  0  0
    7.1852    4.5186  -12.6357 C   0  0  0  0  0  0  0  0  0  0  0  0
    7.9392    3.5926  -13.5899 C   0  0  0  0  0  0  0  0  0  0  0  0
    7.2132    2.5744  -14.2469 C   0  0  0  0  0  0  0  0  0  0  0  0
    7.8758    1.6188  -15.0415 C   0  0  0  0  0  0  0  0  0  0  0  0
    9.2726    1.6812  -15.1988 C   0  0  0  0  0  0  0  0  0  0  0  0
   10.0930    0.4772  -16.1244 Cl  0  0  0  0  0  0  0  0  0  0  0  0
   10.0013    2.7178  -14.5854 C   0  0  0  0  0  0  0  0  0  0  0  0
    9.3393    3.6704  -13.7857 C   0  0  0  0  0  0  0  0  0  0  0  0
   10.5581    8.2839  -10.0308 H   0  0  0  0  0  0  0  0  0  0  0  0
   11.1039    6.6288   -9.8855 H   0  0  0  0  0  0  0  0  0  0  0  0
    9.2412    6.1667   -8.2475 H   0  0  0  0  0  0  0  0  0  0  0  0
    8.7082    7.8192   -8.3637 H   0  0  0  0  0  0  0  0  0  0  0  0
   11.4052    5.7726   -6.5161 H   0  0  0  0  0  0  0  0  0  0  0  0
    9.7379    6.1722   -5.9962 H   0  0  0  0  0  0  0  0  0  0  0  0
   11.8103    5.9565   -3.6633 H   0  0  0  0  0  0  0  0  0  0  0  0
   12.4784    7.7159   -2.0089 H   0  0  0  0  0  0  0  0  0  0  0  0
   12.2248   10.1249   -2.5742 H   0  0  0  0  0  0  0  0  0  0  0  0
   11.2854   10.8151   -4.7931 H   0  0  0  0  0  0  0  0  0  0  0  0
    9.4521    9.2470   -6.7648 H   0  0  0  0  0  0  0  0  0  0  0  0
   11.0494    9.6423   -7.4440 H   0  0  0  0  0  0  0  0  0  0  0  0
    8.3435    8.6603  -11.4138 H   0  0  0  0  0  0  0  0  0  0  0  0
    9.6536    8.1373  -12.4839 H   0  0  0  0  0  0  0  0  0  0  0  0
    8.0857    6.8906  -13.7262 H   0  0  0  0  0  0  0  0  0  0  0  0
    6.8077    7.3319  -12.5820 H   0  0  0  0  0  0  0  0  0  0  0  0
    6.7981    3.9206  -11.8089 H   0  0  0  0  0  0  0  0  0  0  0  0
    6.3101    4.9103  -13.1559 H   0  0  0  0  0  0  0  0  0  0  0  0
    6.1443    2.5004  -14.1091 H   0  0  0  0  0  0  0  0  0  0  0  0
    7.3133    0.8261  -15.5125 H   0  0  0  0  0  0  0  0  0  0  0  0
   11.0730    2.7691  -14.7099 H   0  0  0  0  0  0  0  0  0  0  0  0
    9.9305    4.4345  -13.3068 H   0  0  0  0  0  0  0  0  0  0  0  0
   11.4951    7.5083   -7.8478 H   0  0  0  0  0  0  0  0  0  0  0  0
  2  1  2  0
  3  2  1  0
  4  3  1  0
  5  4  1  0
  6  5  1  0
  7  6  1  0
  8  7  1  0
  9  8  2  0
 10  9  1  0
 11 10  2  0
 12 11  1  0
 13  8  1  0
 13 12  2  0
 14  6  1  0
 14 13  1  0
 15  3  1  0
 16 15  1  0
 17  2  1  0
 17 16  1  0
 18 17  1  0
 19 18  1  0
 20 19  1  0
 21 20  2  0
 22 21  1  0
 23 22  1  0
 24 22  2  0
 25 19  2  0
 25 24  1  0
 26  4  1  0
 27  4  1  0
 28  5  1  0
 29  5  1  0
 30  7  1  0
 31  7  1  0
 32  9  1  0
 33 10  1  0
 34 11  1  0
 35 12  1  0
 36 14  1  0
 37 14  1  0
 38 15  1  0
 39 15  1  0
 40 16  1  0
 41 16  1  0
 42 18  1  0
 43 18  1  0
 44 20  1  0
 45 21  1  0
 46 24  1  0
 47 25  1  0
 48  6  1  0
M  CHG  1   6   1
M  END
>  <b_m_subgroup_collapsed>  (850) 
0

>  <r_i_docking_score>  (850) 
-7.2451953242641602

>  <s_m_subgroup_title>  (850) 
glide-dock_SP_D22_pv

>  <s_m_subgroupid>  (850) 
glide-dock_SP_D22_pv

>  <Molecule ChEMBL ID>  (850) 
CHEMBL553238

>  <Standard Type>  (850) 
Ki

>  <Standard Value>  (850) 
10000.0

>  <label>  (850) 
0

$$$$
CHEMBL3745815
     RDKit          3D

 63 66  0  0  1  0  0  0  0  0999 V2000
    8.8246    8.7154   -6.8310 C   0  0  0  0  0  0  0  0  0  0  0  0
   10.0615    8.5411   -7.5773 N   0  0  0  0  0  0  0  0  0  0  0  0
   10.0488    7.6977   -8.7882 C   0  0  1  0  0  0  0  0  0  0  0  0
    9.1120    6.4766   -8.6820 C   0  0  0  0  0  0  0  0  0  0  0  0
    9.0933    5.6890   -9.9978 C   0  0  0  0  0  0  0  0  0  0  0  0
    8.6870    6.5555  -11.1395 N   0  0  2  0  0  0  0  0  0  0  0  0
    8.6053    5.8170  -12.4255 C   0  0  0  0  0  0  0  0  0  0  0  0
    7.4492    4.8106  -12.5164 C   0  0  0  0  0  0  0  0  0  0  0  0
    7.6806    4.0988  -13.7223 O   0  0  0  0  0  0  0  0  0  0  0  0
    7.0687    2.8791  -13.8905 C   0  0  0  0  0  0  0  0  0  0  0  0
    5.8153    2.6016  -13.2894 C   0  0  0  0  0  0  0  0  0  0  0  0
    5.2087    1.3444  -13.4468 C   0  0  0  0  0  0  0  0  0  0  0  0
    5.8371    0.3577  -14.2184 C   0  0  0  0  0  0  0  0  0  0  0  0
    7.0675    0.6349  -14.8342 C   0  0  0  0  0  0  0  0  0  0  0  0
    7.7165    1.8876  -14.6871 C   0  0  0  0  0  0  0  0  0  0  0  0
    9.0357    2.0890  -15.3536 C   0  0  0  0  0  0  0  0  0  0  0  0
    9.9004    0.9839  -15.5602 C   0  0  0  0  0  0  0  0  0  0  0  0
   11.1206    1.1192  -16.2463 C   0  0  0  0  0  0  0  0  0  0  0  0
   11.5376    2.3777  -16.7092 C   0  0  0  0  0  0  0  0  0  0  0  0
   10.7152    3.4955  -16.4966 C   0  0  0  0  0  0  0  0  0  0  0  0
    9.4810    3.3480  -15.8359 C   0  0  0  0  0  0  0  0  0  0  0  0
    9.5838    7.7333  -11.2774 C   0  0  0  0  0  0  0  0  0  0  0  0
    9.6392    8.5593   -9.9877 C   0  0  0  0  0  0  0  0  0  0  0  0
   11.5160    9.2455   -6.9668 S   0  0  0  0  0  0  0  0  0  0  0  0
   12.6227    8.8353   -7.8466 O   0  0  0  0  0  0  0  0  0  0  0  0
   11.2860   10.6570   -6.6469 O   0  0  0  0  0  0  0  0  0  0  0  0
   11.6860    8.4467   -5.4061 C   0  0  0  0  0  0  0  0  0  0  0  0
   12.2649    9.1655   -4.3444 C   0  0  0  0  0  0  0  0  0  0  0  0
   12.4860    8.5437   -3.1052 C   0  0  0  0  0  0  0  0  0  0  0  0
   12.1607    7.1881   -2.9667 C   0  0  0  0  0  0  0  0  0  0  0  0
   12.4861    6.5198   -1.8468 F   0  0  0  0  0  0  0  0  0  0  0  0
   11.5427    6.5043   -4.0218 C   0  0  0  0  0  0  0  0  0  0  0  0
   11.2863    7.1158   -5.2495 C   0  0  0  0  0  0  0  0  0  0  0  0
    8.0861    9.1695   -7.4805 H   0  0  0  0  0  0  0  0  0  0  0  0
    8.4474    7.7692   -6.4445 H   0  0  0  0  0  0  0  0  0  0  0  0
    9.0101    9.3671   -5.9790 H   0  0  0  0  0  0  0  0  0  0  0  0
   11.0552    7.3180   -8.9599 H   0  0  0  0  0  0  0  0  0  0  0  0
    9.4248    5.8238   -7.8664 H   0  0  0  0  0  0  0  0  0  0  0  0
    8.0862    6.7741   -8.4676 H   0  0  0  0  0  0  0  0  0  0  0  0
    8.4037    4.8552   -9.8806 H   0  0  0  0  0  0  0  0  0  0  0  0
   10.0787    5.2601  -10.1920 H   0  0  0  0  0  0  0  0  0  0  0  0
    9.5540    5.3049  -12.5979 H   0  0  0  0  0  0  0  0  0  0  0  0
    8.4846    6.5265  -13.2455 H   0  0  0  0  0  0  0  0  0  0  0  0
    6.4881    5.3275  -12.5405 H   0  0  0  0  0  0  0  0  0  0  0  0
    7.4497    4.1196  -11.6754 H   0  0  0  0  0  0  0  0  0  0  0  0
    5.2925    3.3487  -12.7113 H   0  0  0  0  0  0  0  0  0  0  0  0
    4.2278    1.1534  -13.0460 H   0  0  0  0  0  0  0  0  0  0  0  0
    5.3656   -0.6033  -14.3647 H   0  0  0  0  0  0  0  0  0  0  0  0
    7.5008   -0.1442  -15.4439 H   0  0  0  0  0  0  0  0  0  0  0  0
    9.6350    0.0002  -15.2009 H   0  0  0  0  0  0  0  0  0  0  0  0
   11.7434    0.2533  -16.4062 H   0  0  0  0  0  0  0  0  0  0  0  0
   12.4819    2.4834  -17.2239 H   0  0  0  0  0  0  0  0  0  0  0  0
   11.0254    4.4680  -16.8511 H   0  0  0  0  0  0  0  0  0  0  0  0
    8.8858    4.2367  -15.7235 H   0  0  0  0  0  0  0  0  0  0  0  0
   10.5878    7.4005  -11.5470 H   0  0  0  0  0  0  0  0  0  0  0  0
    9.2332    8.3722  -12.0895 H   0  0  0  0  0  0  0  0  0  0  0  0
   10.3539    9.3721  -10.1081 H   0  0  0  0  0  0  0  0  0  0  0  0
    8.6653    9.0188   -9.8111 H   0  0  0  0  0  0  0  0  0  0  0  0
   12.5919   10.1723   -4.4991 H   0  0  0  0  0  0  0  0  0  0  0  0
   12.9603    9.0808   -2.2973 H   0  0  0  0  0  0  0  0  0  0  0  0
   11.2872    5.4749   -3.9088 H   0  0  0  0  0  0  0  0  0  0  0  0
   10.8503    6.5511   -6.0592 H   0  0  0  0  0  0  0  0  0  0  0  0
    7.7654    6.9348  -10.9108 H   0  0  0  0  0  0  0  0  0  0  0  0
  2  1  1  0
  3  2  1  0
  4  3  1  0
  5  4  1  0
  6  5  1  0
  7  6  1  0
  8  7  1  0
  9  8  1  0
 10  9  1  0
 11 10  2  0
 12 11  1  0
 13 12  2  0
 14 13  1  0
 15 10  1  0
 15 14  2  0
 16 15  1  0
 17 16  2  0
 18 17  1  0
 19 18  2  0
 20 19  1  0
 21 16  1  0
 21 20  2  0
 22  6  1  0
 23  3  1  0
 23 22  1  0
 24  2  1  0
 25 24  2  0
 26 24  2  0
 27 24  1  0
 28 27  1  0
 29 28  2  0
 30 29  1  0
 31 30  1  0
 32 30  2  0
 33 27  2  0
 33 32  1  0
 34  1  1  0
 35  1  1  0
 36  1  1  0
  3 37  1  6
 38  4  1  0
 39  4  1  0
 40  5  1  0
 41  5  1  0
 42  7  1  0
 43  7  1  0
 44  8  1  0
 45  8  1  0
 46 11  1  0
 47 12  1  0
 48 13  1  0
 49 14  1  0
 50 17  1  0
 51 18  1  0
 52 19  1  0
 53 20  1  0
 54 21  1  0
 55 22  1  0
 56 22  1  0
 57 23  1  0
 58 23  1  0
 59 28  1  0
 60 29  1  0
 61 32  1  0
 62 33  1  0
  6 63  1  1
M  CHG  1   6   1
M  END
>  <b_m_subgroup_collapsed>  (851) 
0

>  <r_i_docking_score>  (851) 
-7.2450958396911798

>  <s_m_subgroup_title>  (851) 
glide-dock_SP_D22_pv

>  <s_m_subgroupid>  (851) 
glide-dock_SP_D22_pv

>  <Molecule ChEMBL ID>  (851) 
CHEMBL3745815

>  <Standard Type>  (851) 
Ki

>  <Standard Value>  (851) 
54.0

>  <label>  (851) 
1

$$$$
CHEMBL456233
     RDKit          3D

 67 70  0  0  1  0  0  0  0  0999 V2000
    9.5920    7.1522  -11.8487 O   0  0  0  0  0  0  0  0  0  0  0  0
   10.6771    7.3912  -11.3232 C   0  0  0  0  0  0  0  0  0  0  0  0
   11.8449    7.3720  -11.9876 N   0  0  0  0  0  0  0  0  0  0  0  0
   12.0502    7.0416  -13.3942 C   0  0  0  0  0  0  0  0  0  0  0  0
   12.1262    5.5250  -13.6871 C   0  0  0  0  0  0  0  0  0  0  0  0
   10.7849    4.7690  -13.5840 C   0  0  0  0  0  0  0  0  0  0  0  0
   10.8269    3.3819  -14.2626 C   0  0  0  0  0  0  0  0  0  0  0  0
    9.5858    2.5721  -14.1009 N   0  0  0  0  0  0  0  0  0  0  0  0
    8.3583    3.2460  -14.6107 C   0  0  0  0  0  0  0  0  0  0  0  0
    7.0970    2.3768  -14.4473 C   0  0  0  0  0  0  0  0  0  0  0  0
    7.3050    1.0486  -15.0074 N   0  0  0  0  0  0  0  0  0  0  0  0
    6.1779    0.2242  -15.2021 C   0  0  0  0  0  0  0  0  0  0  0  0
    5.1327    0.1730  -14.2479 C   0  0  0  0  0  0  0  0  0  0  0  0
    3.9959   -0.6268  -14.4732 C   0  0  0  0  0  0  0  0  0  0  0  0
    3.9044   -1.3984  -15.6435 C   0  0  0  0  0  0  0  0  0  0  0  0
    4.9425   -1.3672  -16.5914 C   0  0  0  0  0  0  0  0  0  0  0  0
    6.0858   -0.5536  -16.3846 C   0  0  0  0  0  0  0  0  0  0  0  0
    7.1242   -0.4555  -17.2902 O   0  0  0  0  0  0  0  0  0  0  0  0
    7.1177   -1.3017  -18.4291 C   0  0  0  0  0  0  0  0  0  0  0  0
    8.4313   -1.0833  -19.1842 C   0  0  0  0  0  0  0  0  0  0  0  0
    8.4644   -1.8273  -20.2896 F   0  0  0  0  0  0  0  0  0  0  0  0
    8.4852    0.3511  -14.5177 C   0  0  0  0  0  0  0  0  0  0  0  0
    9.7470    1.2158  -14.6944 C   0  0  0  0  0  0  0  0  0  0  0  0
   10.7979    7.6392   -9.8444 C   0  0  0  0  0  0  0  0  0  0  0  0
    9.8314    7.1269   -8.9456 C   0  0  0  0  0  0  0  0  0  0  0  0
    9.9751    7.3161   -7.5536 C   0  0  0  0  0  0  0  0  0  0  0  0
   11.0801    8.0343   -7.0536 C   0  0  0  0  0  0  0  0  0  0  0  0
   11.2859    8.1846   -5.6685 N   0  0  0  0  0  0  0  0  0  0  0  0
   11.4243    7.2589   -4.6473 C   0  0  0  0  0  0  0  0  0  0  0  0
   11.6887    8.0051   -3.5187 C   0  0  0  0  0  0  0  0  0  0  0  0
   11.6857    9.3670   -3.8331 N   0  0  0  0  0  0  0  0  0  0  0  0
   11.4415    9.4028   -5.1360 C   0  0  0  0  0  0  0  0  0  0  0  0
   12.0269    8.5722   -7.9453 C   0  0  0  0  0  0  0  0  0  0  0  0
   11.8803    8.3885   -9.3298 C   0  0  0  0  0  0  0  0  0  0  0  0
   12.6745    7.5890  -11.4575 H   0  0  0  0  0  0  0  0  0  0  0  0
   11.2896    7.5183  -14.0078 H   0  0  0  0  0  0  0  0  0  0  0  0
   12.9954    7.4990  -13.6891 H   0  0  0  0  0  0  0  0  0  0  0  0
   12.5008    5.4180  -14.7060 H   0  0  0  0  0  0  0  0  0  0  0  0
   12.8798    5.0539  -13.0516 H   0  0  0  0  0  0  0  0  0  0  0  0
   10.4921    4.6633  -12.5388 H   0  0  0  0  0  0  0  0  0  0  0  0
   10.0234    5.3860  -14.0597 H   0  0  0  0  0  0  0  0  0  0  0  0
   11.0361    3.5047  -15.3269 H   0  0  0  0  0  0  0  0  0  0  0  0
   11.6627    2.8150  -13.8512 H   0  0  0  0  0  0  0  0  0  0  0  0
    8.1874    4.1904  -14.0954 H   0  0  0  0  0  0  0  0  0  0  0  0
    8.5064    3.4742  -15.6658 H   0  0  0  0  0  0  0  0  0  0  0  0
    6.8360    2.2948  -13.3952 H   0  0  0  0  0  0  0  0  0  0  0  0
    6.2537    2.8593  -14.9424 H   0  0  0  0  0  0  0  0  0  0  0  0
    5.1866    0.7531  -13.3400 H   0  0  0  0  0  0  0  0  0  0  0  0
    3.1895   -0.6462  -13.7549 H   0  0  0  0  0  0  0  0  0  0  0  0
    3.0380   -2.0202  -15.8202 H   0  0  0  0  0  0  0  0  0  0  0  0
    4.8287   -1.9743  -17.4760 H   0  0  0  0  0  0  0  0  0  0  0  0
    7.0356   -2.3485  -18.1330 H   0  0  0  0  0  0  0  0  0  0  0  0
    6.2723   -1.0578  -19.0747 H   0  0  0  0  0  0  0  0  0  0  0  0
    8.5459   -0.0425  -19.4886 H   0  0  0  0  0  0  0  0  0  0  0  0
    9.2915   -1.3607  -18.5740 H   0  0  0  0  0  0  0  0  0  0  0  0
    8.3382    0.1203  -13.4632 H   0  0  0  0  0  0  0  0  0  0  0  0
    8.6112   -0.5975  -15.0426 H   0  0  0  0  0  0  0  0  0  0  0  0
    9.9672    1.3136  -15.7586 H   0  0  0  0  0  0  0  0  0  0  0  0
   10.6018    0.7094  -14.2449 H   0  0  0  0  0  0  0  0  0  0  0  0
    8.9787    6.5745   -9.3176 H   0  0  0  0  0  0  0  0  0  0  0  0
    9.2414    6.9064   -6.8738 H   0  0  0  0  0  0  0  0  0  0  0  0
   11.3454    6.1909   -4.7991 H   0  0  0  0  0  0  0  0  0  0  0  0
   11.8679    7.6703   -2.5072 H   0  0  0  0  0  0  0  0  0  0  0  0
   11.3879   10.3243   -5.6991 H   0  0  0  0  0  0  0  0  0  0  0  0
   12.8802    9.1161   -7.5659 H   0  0  0  0  0  0  0  0  0  0  0  0
   12.6216    8.8224   -9.9840 H   0  0  0  0  0  0  0  0  0  0  0  0
    9.4545    2.4228  -13.1089 H   0  0  0  0  0  0  0  0  0  0  0  0
  2  1  2  0
  3  2  1  0
  4  3  1  0
  5  4  1  0
  6  5  1  0
  7  6  1  0
  8  7  1  0
  9  8  1  0
 10  9  1  0
 11 10  1  0
 12 11  1  0
 13 12  2  0
 14 13  1  0
 15 14  2  0
 16 15  1  0
 17 12  1  0
 17 16  2  0
 18 17  1  0
 19 18  1  0
 20 19  1  0
 21 20  1  0
 22 11  1  0
 23  8  1  0
 23 22  1  0
 24  2  1  0
 25 24  1  0
 26 25  2  0
 27 26  1  0
 28 27  1  0
 29 28  1  0
 30 29  2  0
 31 30  1  0
 32 28  1  0
 32 31  2  0
 33 27  2  0
 34 24  2  0
 34 33  1  0
 35  3  1  0
 36  4  1  0
 37  4  1  0
 38  5  1  0
 39  5  1  0
 40  6  1  0
 41  6  1  0
 42  7  1  0
 43  7  1  0
 44  9  1  0
 45  9  1  0
 46 10  1  0
 47 10  1  0
 48 13  1  0
 49 14  1  0
 50 15  1  0
 51 16  1  0
 52 19  1  0
 53 19  1  0
 54 20  1  0
 55 20  1  0
 56 22  1  0
 57 22  1  0
 58 23  1  0
 59 23  1  0
 60 25  1  0
 61 26  1  0
 62 29  1  0
 63 30  1  0
 64 32  1  0
 65 33  1  0
 66 34  1  0
 67  8  1  0
M  CHG  1   8   1
M  END
>  <b_m_subgroup_collapsed>  (852) 
0

>  <r_i_docking_score>  (852) 
-7.2445258853875698

>  <s_m_subgroup_title>  (852) 
glide-dock_SP_D22_pv

>  <s_m_subgroupid>  (852) 
glide-dock_SP_D22_pv

>  <Molecule ChEMBL ID>  (852) 
CHEMBL456233

>  <Standard Type>  (852) 
Ki

>  <Standard Value>  (852) 
5.92

>  <label>  (852) 
1

$$$$
CHEMBL2420774
     RDKit          3D

 38 40  0  0  1  0  0  0  0  0999 V2000
   10.8859   10.5721   -4.6478 O   0  0  0  0  0  0  0  0  0  0  0  0
   11.3947    9.3828   -4.2081 C   0  0  0  0  0  0  0  0  0  0  0  0
   11.9926    9.3724   -2.9322 C   0  0  0  0  0  0  0  0  0  0  0  0
   12.4208    8.1668   -2.3546 C   0  0  0  0  0  0  0  0  0  0  0  0
   12.2447    6.9625   -3.0555 C   0  0  0  0  0  0  0  0  0  0  0  0
   11.6869    6.9724   -4.3484 C   0  0  0  0  0  0  0  0  0  0  0  0
   11.2860    8.1796   -4.9615 C   0  0  0  0  0  0  0  0  0  0  0  0
   10.7972    8.1387   -6.2852 N   0  0  0  0  0  0  0  0  0  0  0  0
   11.0136    9.2555   -7.1834 C   0  0  0  0  0  0  0  0  0  0  0  0
   11.2914    8.7552   -8.6031 C   0  0  0  0  0  0  0  0  0  0  0  0
   10.2705    7.7889   -9.0891 N   0  0  0  0  0  0  0  0  0  0  0  0
   10.6538    7.2987  -10.4367 C   0  0  0  0  0  0  0  0  0  0  0  0
    9.5364    6.6940  -11.2126 C   0  0  0  0  0  0  0  0  0  0  0  0
    8.6214    7.3437  -11.9969 C   0  0  0  0  0  0  0  0  0  0  0  0
    7.6857    6.4642  -12.6121 C   0  0  0  0  0  0  0  0  0  0  0  0
    7.9135    5.1488  -12.3117 C   0  0  0  0  0  0  0  0  0  0  0  0
    9.2814    4.9701  -11.2507 S   0  0  0  0  0  0  0  0  0  0  0  0
   10.0059    6.6862   -8.1169 C   0  0  0  0  0  0  0  0  0  0  0  0
    9.7538    7.2004   -6.6833 C   0  0  0  0  0  0  0  0  0  0  0  0
   11.1644   11.2882   -4.0951 H   0  0  0  0  0  0  0  0  0  0  0  0
   12.0867   10.2872   -2.3657 H   0  0  0  0  0  0  0  0  0  0  0  0
   12.8568    8.1658   -1.3666 H   0  0  0  0  0  0  0  0  0  0  0  0
   12.5525    6.0279   -2.6090 H   0  0  0  0  0  0  0  0  0  0  0  0
   11.6027    6.0366   -4.8809 H   0  0  0  0  0  0  0  0  0  0  0  0
   10.1174    9.8707   -7.1583 H   0  0  0  0  0  0  0  0  0  0  0  0
   11.8528    9.8698   -6.8561 H   0  0  0  0  0  0  0  0  0  0  0  0
   11.3443    9.6081   -9.2814 H   0  0  0  0  0  0  0  0  0  0  0  0
   12.2730    8.2781   -8.6217 H   0  0  0  0  0  0  0  0  0  0  0  0
   11.0638    8.1209  -11.0256 H   0  0  0  0  0  0  0  0  0  0  0  0
   11.4591    6.5736  -10.3285 H   0  0  0  0  0  0  0  0  0  0  0  0
    8.5676    8.4142  -12.1279 H   0  0  0  0  0  0  0  0  0  0  0  0
    6.8679    6.8376  -13.2021 H   0  0  0  0  0  0  0  0  0  0  0  0
    7.3495    4.2820  -12.6229 H   0  0  0  0  0  0  0  0  0  0  0  0
    9.1463    6.1015   -8.4457 H   0  0  0  0  0  0  0  0  0  0  0  0
   10.8612    6.0088   -8.1014 H   0  0  0  0  0  0  0  0  0  0  0  0
    9.6780    6.3627   -5.9909 H   0  0  0  0  0  0  0  0  0  0  0  0
    8.7929    7.7167   -6.6420 H   0  0  0  0  0  0  0  0  0  0  0  0
    9.4016    8.2966   -9.1893 H   0  0  0  0  0  0  0  0  0  0  0  0
  2  1  1  0
  3  2  2  0
  4  3  1  0
  5  4  2  0
  6  5  1  0
  7  2  1  0
  7  6  2  0
  8  7  1  0
  9  8  1  0
 10  9  1  0
 11 10  1  0
 12 11  1  0
 13 12  1  0
 14 13  2  0
 15 14  1  0
 16 15  2  0
 17 13  1  0
 17 16  1  0
 18 11  1  0
 19  8  1  0
 19 18  1  0
 20  1  1  0
 21  3  1  0
 22  4  1  0
 23  5  1  0
 24  6  1  0
 25  9  1  0
 26  9  1  0
 27 10  1  0
 28 10  1  0
 29 12  1  0
 30 12  1  0
 31 14  1  0
 32 15  1  0
 33 16  1  0
 34 18  1  0
 35 18  1  0
 36 19  1  0
 37 19  1  0
 38 11  1  0
M  CHG  1  11   1
M  END
>  <b_m_subgroup_collapsed>  (853) 
0

>  <r_i_docking_score>  (853) 
-7.24417778775911

>  <s_m_subgroup_title>  (853) 
glide-dock_SP_D22_pv

>  <s_m_subgroupid>  (853) 
glide-dock_SP_D22_pv

>  <Molecule ChEMBL ID>  (853) 
CHEMBL2420774

>  <Standard Type>  (853) 
Ki

>  <Standard Value>  (853) 
10000.0

>  <label>  (853) 
0

$$$$
CHEMBL564108
     RDKit          3D

 53 55  0  0  1  0  0  0  0  0999 V2000
   12.0763    6.5757   -2.5224 C   0  0  0  0  0  0  0  0  0  0  0  0
   12.4889    7.7597   -3.4107 C   0  0  0  0  0  0  0  0  0  0  0  0
   12.6941    8.9915   -2.5128 C   0  0  0  0  0  0  0  0  0  0  0  0
   11.5175    8.0270   -4.5182 N   0  0  0  0  0  0  0  0  0  0  0  0
   11.1970    6.8455   -5.3675 C   0  0  0  0  0  0  0  0  0  0  0  0
   10.0770    7.1701   -6.3736 C   0  0  0  0  0  0  0  0  0  0  0  0
   10.4153    8.3158   -7.2111 N   0  0  0  0  0  0  0  0  0  0  0  0
   11.3762    8.0190   -8.2711 C   0  0  0  0  0  0  0  0  0  0  0  0
   11.0252    8.8501   -9.5239 C   0  0  0  0  0  0  0  0  0  0  0  0
   10.5414    7.9789  -10.5931 N   0  0  0  0  0  0  0  0  0  0  0  0
    9.1397    7.6323  -10.6634 C   0  0  0  0  0  0  0  0  0  0  0  0
    9.1227    6.5550  -11.7391 C   0  0  0  0  0  0  0  0  0  0  0  0
   10.4835    6.5695  -12.2656 N   0  0  0  0  0  0  0  0  0  0  0  0
   10.8958    5.7224  -13.3469 C   0  0  0  0  0  0  0  0  0  0  0  0
   11.9658    6.0812  -14.2065 C   0  0  0  0  0  0  0  0  0  0  0  0
   12.3602    5.2312  -15.2544 C   0  0  0  0  0  0  0  0  0  0  0  0
   11.6987    4.0073  -15.4644 C   0  0  0  0  0  0  0  0  0  0  0  0
   12.0953    3.1986  -16.4788 F   0  0  0  0  0  0  0  0  0  0  0  0
   10.6300    3.6376  -14.6257 C   0  0  0  0  0  0  0  0  0  0  0  0
    9.9492    2.3682  -14.8312 C   0  0  0  0  0  0  0  0  0  0  0  0
    9.4071    1.3590  -14.9968 N   0  0  0  0  0  0  0  0  0  0  0  0
   10.2267    4.4968  -13.5806 C   0  0  0  0  0  0  0  0  0  0  0  0
   11.2767    7.3822  -11.5361 C   0  0  0  0  0  0  0  0  0  0  0  0
   12.4853    7.5646  -11.6877 O   0  0  0  0  0  0  0  0  0  0  0  0
   10.7481    9.4771   -6.3897 C   0  0  0  0  0  0  0  0  0  0  0  0
   11.8730    9.1851   -5.3842 C   0  0  0  0  0  0  0  0  0  0  0  0
   12.7572    6.4578   -1.6780 H   0  0  0  0  0  0  0  0  0  0  0  0
   11.0673    6.6884   -2.1235 H   0  0  0  0  0  0  0  0  0  0  0  0
   12.1325    5.6442   -3.0697 H   0  0  0  0  0  0  0  0  0  0  0  0
   13.4488    7.4989   -3.8509 H   0  0  0  0  0  0  0  0  0  0  0  0
   13.2863    8.7509   -1.6295 H   0  0  0  0  0  0  0  0  0  0  0  0
   13.2412    9.7722   -3.0373 H   0  0  0  0  0  0  0  0  0  0  0  0
   11.7459    9.4009   -2.1642 H   0  0  0  0  0  0  0  0  0  0  0  0
   10.8387    6.0194   -4.7558 H   0  0  0  0  0  0  0  0  0  0  0  0
   12.0854    6.4849   -5.8854 H   0  0  0  0  0  0  0  0  0  0  0  0
    9.1506    7.3975   -5.8465 H   0  0  0  0  0  0  0  0  0  0  0  0
    9.8566    6.3004   -6.9957 H   0  0  0  0  0  0  0  0  0  0  0  0
   11.3422    6.9558   -8.5184 H   0  0  0  0  0  0  0  0  0  0  0  0
   12.3986    8.2177   -7.9485 H   0  0  0  0  0  0  0  0  0  0  0  0
   11.9140    9.3807   -9.8696 H   0  0  0  0  0  0  0  0  0  0  0  0
   10.2771    9.6160   -9.3204 H   0  0  0  0  0  0  0  0  0  0  0  0
    8.7673    7.2619   -9.7070 H   0  0  0  0  0  0  0  0  0  0  0  0
    8.5530    8.5021  -10.9622 H   0  0  0  0  0  0  0  0  0  0  0  0
    8.3880    6.7705  -12.5169 H   0  0  0  0  0  0  0  0  0  0  0  0
    8.8908    5.5850  -11.2948 H   0  0  0  0  0  0  0  0  0  0  0  0
   12.4943    7.0143  -14.0835 H   0  0  0  0  0  0  0  0  0  0  0  0
   13.1783    5.5167  -15.9005 H   0  0  0  0  0  0  0  0  0  0  0  0
    9.4082    4.1903  -12.9459 H   0  0  0  0  0  0  0  0  0  0  0  0
   11.0145   10.3197   -7.0273 H   0  0  0  0  0  0  0  0  0  0  0  0
    9.8573    9.7716   -5.8387 H   0  0  0  0  0  0  0  0  0  0  0  0
   11.9958   10.0900   -4.7923 H   0  0  0  0  0  0  0  0  0  0  0  0
   12.8232    9.0209   -5.8918 H   0  0  0  0  0  0  0  0  0  0  0  0
   10.6502    8.2800   -4.0706 H   0  0  0  0  0  0  0  0  0  0  0  0
  2  1  1  0
  3  2  1  0
  4  2  1  0
  5  4  1  0
  6  5  1  0
  7  6  1  0
  8  7  1  0
  9  8  1  0
 10  9  1  0
 11 10  1  0
 12 11  1  0
 13 12  1  0
 14 13  1  0
 15 14  1  0
 16 15  2  0
 17 16  1  0
 18 17  1  0
 19 17  2  0
 20 19  1  0
 21 20  3  0
 22 14  2  0
 22 19  1  0
 23 10  1  0
 23 13  1  0
 24 23  2  0
 25  7  1  0
 26  4  1  0
 26 25  1  0
 27  1  1  0
 28  1  1  0
 29  1  1  0
 30  2  1  0
 31  3  1  0
 32  3  1  0
 33  3  1  0
 34  5  1  0
 35  5  1  0
 36  6  1  0
 37  6  1  0
 38  8  1  0
 39  8  1  0
 40  9  1  0
 41  9  1  0
 42 11  1  0
 43 11  1  0
 44 12  1  0
 45 12  1  0
 46 15  1  0
 47 16  1  0
 48 22  1  0
 49 25  1  0
 50 25  1  0
 51 26  1  0
 52 26  1  0
 53  4  1  0
M  CHG  1   4   1
M  END
>  <b_m_subgroup_collapsed>  (854) 
0

>  <r_i_docking_score>  (854) 
-7.2440825448918904

>  <s_m_subgroup_title>  (854) 
glide-dock_SP_D22_pv

>  <s_m_subgroupid>  (854) 
glide-dock_SP_D22_pv

>  <Molecule ChEMBL ID>  (854) 
CHEMBL564108

>  <Standard Type>  (854) 
Ki

>  <Standard Value>  (854) 
10000.0

>  <label>  (854) 
0

$$$$
CHEMBL4470847
     RDKit          3D

 44 46  0  0  1  0  0  0  0  0999 V2000
   11.8256   10.9723   -6.0552 C   0  0  0  0  0  0  0  0  0  0  0  0
   11.3985    9.6415   -6.1701 O   0  0  0  0  0  0  0  0  0  0  0  0
   11.6326    8.8067   -5.1009 C   0  0  0  0  0  0  0  0  0  0  0  0
   12.2850    9.1888   -3.8992 C   0  0  0  0  0  0  0  0  0  0  0  0
   12.4860    8.2796   -2.8475 C   0  0  0  0  0  0  0  0  0  0  0  0
   12.0553    6.9557   -2.9918 C   0  0  0  0  0  0  0  0  0  0  0  0
   11.4153    6.5723   -4.1816 C   0  0  0  0  0  0  0  0  0  0  0  0
   11.1961    7.4766   -5.2305 C   0  0  0  0  0  0  0  0  0  0  0  0
   10.5236    7.0370   -6.3767 N   0  0  0  0  0  0  0  0  0  0  0  0
    9.1710    7.5112   -6.6267 C   0  0  0  0  0  0  0  0  0  0  0  0
    9.1046    8.2976   -7.9283 C   0  0  0  0  0  0  0  0  0  0  0  0
    9.6198    7.4723   -9.1174 C   0  0  0  0  0  0  0  0  0  0  0  0
    8.7700    6.1687   -9.2765 C   0  0  0  0  0  0  0  0  0  0  0  0
    8.8217    5.5452  -10.6730 C   0  0  0  0  0  0  0  0  0  0  0  0
    8.4860    6.5723  -11.6715 N   0  0  0  0  0  0  0  0  0  0  0  0
    9.4955    7.6450  -11.7028 C   0  0  0  0  0  0  0  0  0  0  0  0
    9.4861    8.3897  -10.3644 C   0  0  0  0  0  0  0  0  0  0  0  0
   11.1028    7.1489   -8.7991 C   0  0  0  0  0  0  0  0  0  0  0  0
   11.2860    6.4103   -7.4469 C   0  0  0  0  0  0  0  0  0  0  0  0
   11.6860   11.5228   -6.9829 H   0  0  0  0  0  0  0  0  0  0  0  0
   11.2860   11.4685   -5.2502 H   0  0  0  0  0  0  0  0  0  0  0  0
   12.8861   10.9723   -5.8470 H   0  0  0  0  0  0  0  0  0  0  0  0
   12.6666   10.1723   -3.7430 H   0  0  0  0  0  0  0  0  0  0  0  0
   12.9800    8.5993   -1.9412 H   0  0  0  0  0  0  0  0  0  0  0  0
   12.2012    6.2376   -2.1977 H   0  0  0  0  0  0  0  0  0  0  0  0
   11.0594    5.5663   -4.2883 H   0  0  0  0  0  0  0  0  0  0  0  0
    8.4816    6.6667   -6.6380 H   0  0  0  0  0  0  0  0  0  0  0  0
    8.8335    8.1768   -5.8469 H   0  0  0  0  0  0  0  0  0  0  0  0
    8.0860    8.6273   -8.0877 H   0  0  0  0  0  0  0  0  0  0  0  0
    9.6783    9.2189   -7.8407 H   0  0  0  0  0  0  0  0  0  0  0  0
    9.0519    5.4113   -8.5474 H   0  0  0  0  0  0  0  0  0  0  0  0
    7.7267    6.3679   -9.0469 H   0  0  0  0  0  0  0  0  0  0  0  0
    9.8057    5.1225  -10.8789 H   0  0  0  0  0  0  0  0  0  0  0  0
    8.1012    4.7290  -10.7406 H   0  0  0  0  0  0  0  0  0  0  0  0
    8.3870    6.1521  -12.5835 H   0  0  0  0  0  0  0  0  0  0  0  0
   10.4817    7.2296  -11.9150 H   0  0  0  0  0  0  0  0  0  0  0  0
    9.2570    8.3390  -12.5092 H   0  0  0  0  0  0  0  0  0  0  0  0
    8.5464    8.9439  -10.3128 H   0  0  0  0  0  0  0  0  0  0  0  0
   10.2692    9.1480  -10.3551 H   0  0  0  0  0  0  0  0  0  0  0  0
   11.5393    6.5723   -9.6124 H   0  0  0  0  0  0  0  0  0  0  0  0
   11.6728    8.0784   -8.7545 H   0  0  0  0  0  0  0  0  0  0  0  0
   12.3378    6.3905   -7.1641 H   0  0  0  0  0  0  0  0  0  0  0  0
   10.9737    5.3723   -7.5314 H   0  0  0  0  0  0  0  0  0  0  0  0
    7.5993    6.9855  -11.3779 H   0  0  0  0  0  0  0  0  0  0  0  0
  2  1  1  0
  3  2  1  0
  4  3  2  0
  5  4  1  0
  6  5  2  0
  7  6  1  0
  8  3  1  0
  8  7  2  0
  9  8  1  0
 10  9  1  0
 11 10  1  0
 12 11  1  0
 13 12  1  0
 14 13  1  0
 15 14  1  0
 16 15  1  0
 17 12  1  0
 17 16  1  0
 18 12  1  0
 19  9  1  0
 19 18  1  0
 20  1  1  0
 21  1  1  0
 22  1  1  0
 23  4  1  0
 24  5  1  0
 25  6  1  0
 26  7  1  0
 27 10  1  0
 28 10  1  0
 29 11  1  0
 30 11  1  0
 31 13  1  0
 32 13  1  0
 33 14  1  0
 34 14  1  0
 35 15  1  0
 36 16  1  0
 37 16  1  0
 38 17  1  0
 39 17  1  0
 40 18  1  0
 41 18  1  0
 42 19  1  0
 43 19  1  0
 44 15  1  0
M  CHG  1  15   1
M  END
>  <b_m_subgroup_collapsed>  (855) 
0

>  <r_i_docking_score>  (855) 
-7.2412272034822296

>  <s_m_subgroup_title>  (855) 
glide-dock_SP_D22_pv

>  <s_m_subgroupid>  (855) 
glide-dock_SP_D22_pv

>  <Molecule ChEMBL ID>  (855) 
CHEMBL4470847

>  <Standard Type>  (855) 
Ki

>  <Standard Value>  (855) 
99379.0

>  <label>  (855) 
0

$$$$
CHEMBL458792
     RDKit          3D

 66 69  0  0  1  0  0  0  0  0999 V2000
   17.9472    7.0673  -19.2073 C   0  0  0  0  0  0  0  0  0  0  0  0
   17.1541    6.1746  -18.4387 O   0  0  0  0  0  0  0  0  0  0  0  0
   15.9115    6.6103  -18.0244 C   0  0  0  0  0  0  0  0  0  0  0  0
   15.3642    7.8837  -18.3234 C   0  0  0  0  0  0  0  0  0  0  0  0
   14.0857    8.2378  -17.8480 C   0  0  0  0  0  0  0  0  0  0  0  0
   13.3367    7.3304  -17.0762 C   0  0  0  0  0  0  0  0  0  0  0  0
   13.8659    6.0566  -16.7834 C   0  0  0  0  0  0  0  0  0  0  0  0
   13.0623    5.0477  -15.9829 C   0  0  0  0  0  0  0  0  0  0  0  0
   11.7676    4.6236  -16.6961 C   0  0  0  0  0  0  0  0  0  0  0  0
   11.1666    3.3601  -16.1000 C   0  0  0  0  0  0  0  0  0  0  0  0
   11.3182    2.1408  -16.7963 C   0  0  0  0  0  0  0  0  0  0  0  0
   10.7863    0.9478  -16.2769 C   0  0  0  0  0  0  0  0  0  0  0  0
   10.1009    0.9658  -15.0519 C   0  0  0  0  0  0  0  0  0  0  0  0
    9.9547    2.1752  -14.3472 C   0  0  0  0  0  0  0  0  0  0  0  0
   10.4772    3.3898  -14.8621 C   0  0  0  0  0  0  0  0  0  0  0  0
   10.3455    4.6067  -14.2207 O   0  0  0  0  0  0  0  0  0  0  0  0
    9.7601    4.6209  -12.9266 C   0  0  0  0  0  0  0  0  0  0  0  0
    9.5154    6.0649  -12.4884 C   0  0  0  0  0  0  0  0  0  0  0  0
    8.7984    6.1494  -11.1303 C   0  0  0  0  0  0  0  0  0  0  0  0
    9.7265    6.3348  -10.0163 N   0  0  0  0  0  0  0  0  0  0  0  0
   10.1162    7.7509   -9.9397 C   0  0  0  0  0  0  0  0  0  0  0  0
   11.0795    7.9817   -8.7628 C   0  0  0  0  0  0  0  0  0  0  0  0
   10.4436    7.5591   -7.5214 N   0  0  0  0  0  0  0  0  0  0  0  0
   10.8848    8.1313   -6.3155 C   0  0  0  0  0  0  0  0  0  0  0  0
   10.8959    9.5378   -6.1900 C   0  0  0  0  0  0  0  0  0  0  0  0
   11.2866   10.1498   -4.9893 C   0  0  0  0  0  0  0  0  0  0  0  0
   11.6894    9.3627   -3.8944 C   0  0  0  0  0  0  0  0  0  0  0  0
   11.6861    7.9579   -4.0059 C   0  0  0  0  0  0  0  0  0  0  0  0
   12.1006    6.9827   -2.6474 Cl  0  0  0  0  0  0  0  0  0  0  0  0
   11.2848    7.3455   -5.2097 C   0  0  0  0  0  0  0  0  0  0  0  0
    9.9423    6.1914   -7.5512 C   0  0  0  0  0  0  0  0  0  0  0  0
    9.0219    5.9916   -8.7731 C   0  0  0  0  0  0  0  0  0  0  0  0
   15.1481    5.7099  -17.2573 C   0  0  0  0  0  0  0  0  0  0  0  0
   18.8974    6.5901  -19.4467 H   0  0  0  0  0  0  0  0  0  0  0  0
   17.4583    7.3218  -20.1487 H   0  0  0  0  0  0  0  0  0  0  0  0
   18.1665    7.9803  -18.6534 H   0  0  0  0  0  0  0  0  0  0  0  0
   15.9053    8.6064  -18.9130 H   0  0  0  0  0  0  0  0  0  0  0  0
   13.6840    9.2150  -18.0756 H   0  0  0  0  0  0  0  0  0  0  0  0
   12.3561    7.6104  -16.7204 H   0  0  0  0  0  0  0  0  0  0  0  0
   12.8423    5.4542  -14.9934 H   0  0  0  0  0  0  0  0  0  0  0  0
   13.6832    4.1688  -15.8217 H   0  0  0  0  0  0  0  0  0  0  0  0
   11.9805    4.4399  -17.7502 H   0  0  0  0  0  0  0  0  0  0  0  0
   11.0328    5.4279  -16.6727 H   0  0  0  0  0  0  0  0  0  0  0  0
   11.8521    2.1140  -17.7350 H   0  0  0  0  0  0  0  0  0  0  0  0
   10.9055    0.0217  -16.8192 H   0  0  0  0  0  0  0  0  0  0  0  0
    9.6930    0.0523  -14.6465 H   0  0  0  0  0  0  0  0  0  0  0  0
    9.4302    2.1368  -13.4072 H   0  0  0  0  0  0  0  0  0  0  0  0
    8.7973    4.1091  -12.9289 H   0  0  0  0  0  0  0  0  0  0  0  0
   10.4264    4.1148  -12.2255 H   0  0  0  0  0  0  0  0  0  0  0  0
   10.4495    6.6273  -12.5038 H   0  0  0  0  0  0  0  0  0  0  0  0
    8.8634    6.5365  -13.2234 H   0  0  0  0  0  0  0  0  0  0  0  0
    8.0863    6.9730  -11.1492 H   0  0  0  0  0  0  0  0  0  0  0  0
    8.2021    5.2471  -10.9835 H   0  0  0  0  0  0  0  0  0  0  0  0
   10.6068    8.0609  -10.8626 H   0  0  0  0  0  0  0  0  0  0  0  0
    9.2329    8.3819   -9.8236 H   0  0  0  0  0  0  0  0  0  0  0  0
   11.9962    7.4120   -8.9085 H   0  0  0  0  0  0  0  0  0  0  0  0
   11.3698    9.0309   -8.7328 H   0  0  0  0  0  0  0  0  0  0  0  0
   10.5774   10.1620   -7.0096 H   0  0  0  0  0  0  0  0  0  0  0  0
   11.2849   11.2260   -4.9177 H   0  0  0  0  0  0  0  0  0  0  0  0
   11.9863    9.8334   -2.9693 H   0  0  0  0  0  0  0  0  0  0  0  0
   11.2804    6.2658   -5.2668 H   0  0  0  0  0  0  0  0  0  0  0  0
   10.7812    5.4955   -7.5894 H   0  0  0  0  0  0  0  0  0  0  0  0
    9.3755    5.9804   -6.6438 H   0  0  0  0  0  0  0  0  0  0  0  0
    8.1192    6.5946   -8.6675 H   0  0  0  0  0  0  0  0  0  0  0  0
    8.6974    4.9511   -8.8117 H   0  0  0  0  0  0  0  0  0  0  0  0
   15.5567    4.7345  -17.0349 H   0  0  0  0  0  0  0  0  0  0  0  0
  2  1  1  0
  3  2  1  0
  4  3  1  0
  5  4  2  0
  6  5  1  0
  7  6  2  0
  8  7  1  0
  9  8  1  0
 10  9  1  0
 11 10  2  0
 12 11  1  0
 13 12  2  0
 14 13  1  0
 15 10  1  0
 15 14  2  0
 16 15  1  0
 17 16  1  0
 18 17  1  0
 19 18  1  0
 20 19  1  0
 21 20  1  0
 22 21  1  0
 23 22  1  0
 24 23  1  0
 25 24  2  0
 26 25  1  0
 27 26  2  0
 28 27  1  0
 29 28  1  0
 30 24  1  0
 30 28  2  0
 31 23  1  0
 32 20  1  0
 32 31  1  0
 33  3  2  0
 33  7  1  0
 34  1  1  0
 35  1  1  0
 36  1  1  0
 37  4  1  0
 38  5  1  0
 39  6  1  0
 40  8  1  0
 41  8  1  0
 42  9  1  0
 43  9  1  0
 44 11  1  0
 45 12  1  0
 46 13  1  0
 47 14  1  0
 48 17  1  0
 49 17  1  0
 50 18  1  0
 51 18  1  0
 52 19  1  0
 53 19  1  0
 54 21  1  0
 55 21  1  0
 56 22  1  0
 57 22  1  0
 58 25  1  0
 59 26  1  0
 60 27  1  0
 61 30  1  0
 62 31  1  0
 63 31  1  0
 64 32  1  0
 65 32  1  0
 66 33  1  0
M  END
>  <b_m_subgroup_collapsed>  (856) 
0

>  <r_i_docking_score>  (856) 
-7.23898987420346

>  <s_m_subgroup_title>  (856) 
glide-dock_SP_D22_pv

>  <s_m_subgroupid>  (856) 
glide-dock_SP_D22_pv

>  <Molecule ChEMBL ID>  (856) 
CHEMBL458792

>  <Standard Type>  (856) 
Ki

>  <Standard Value>  (856) 
298000.0

>  <label>  (856) 
0

$$$$
CHEMBL26751
     RDKit          3D

 38 42  0  0  1  0  0  0  0  0999 V2000
    6.9226    5.5437  -11.8748 C   0  0  0  0  0  0  0  0  0  0  0  0
    7.9962    4.5962  -11.4744 N   0  0  1  0  0  0  0  0  0  0  0  0
    8.6655    3.9746  -12.6471 C   0  0  0  0  0  0  0  0  0  0  0  0
    9.4353    5.0159  -13.4872 C   0  0  0  0  0  0  0  0  0  0  0  0
   10.3252    5.9528  -12.6779 C   0  0  0  0  0  0  0  0  0  0  0  0
   11.4623    6.6815  -13.1125 C   0  0  0  0  0  0  0  0  0  0  0  0
   12.1751    7.5297  -12.2212 C   0  0  0  0  0  0  0  0  0  0  0  0
   11.7154    7.7085  -10.8957 C   0  0  0  0  0  0  0  0  0  0  0  0
   10.6202    6.9723  -10.4719 C   0  0  0  0  0  0  0  0  0  0  0  0
    9.9548    6.1041  -11.3291 C   0  0  0  0  0  0  0  0  0  0  0  0
    9.0275    5.1599  -10.5623 C   0  0  1  0  0  0  0  0  0  0  0  0
    8.4878    5.6369   -9.1851 C   0  0  0  0  0  0  0  0  0  0  0  0
    9.4366    6.4523   -8.3207 C   0  0  0  0  0  0  0  0  0  0  0  0
    9.3981    6.7205   -6.9361 C   0  0  0  0  0  0  0  0  0  0  0  0
   10.3461    7.6018   -6.3520 C   0  0  0  0  0  0  0  0  0  0  0  0
   11.3324    8.2452   -7.1410 C   0  0  0  0  0  0  0  0  0  0  0  0
   11.3602    7.9855   -8.5236 C   0  0  0  0  0  0  0  0  0  0  0  0
   10.4157    7.1174   -9.0539 C   0  0  0  0  0  0  0  0  0  0  0  0
   12.2435    8.4423   -9.6753 C   0  0  1  0  0  0  0  0  0  0  0  0
   13.6059    8.1723   -9.4469 O   0  0  0  0  0  0  0  0  0  0  0  0
    7.3236    6.4874  -12.2469 H   0  0  0  0  0  0  0  0  0  0  0  0
    6.2588    5.7723  -11.0469 H   0  0  0  0  0  0  0  0  0  0  0  0
    6.2982    5.1119  -12.6574 H   0  0  0  0  0  0  0  0  0  0  0  0
    9.3665    3.2165  -12.2944 H   0  0  0  0  0  0  0  0  0  0  0  0
    7.9371    3.4502  -13.2670 H   0  0  0  0  0  0  0  0  0  0  0  0
   10.0510    4.5026  -14.2265 H   0  0  0  0  0  0  0  0  0  0  0  0
    8.7353    5.6302  -14.0545 H   0  0  0  0  0  0  0  0  0  0  0  0
   11.8043    6.5800  -14.1323 H   0  0  0  0  0  0  0  0  0  0  0  0
   13.0610    8.0477  -12.5590 H   0  0  0  0  0  0  0  0  0  0  0  0
    9.6860    4.3270  -10.3071 H   0  0  0  0  0  0  0  0  0  0  0  0
    7.6860    6.3219   -9.3603 H   0  0  0  0  0  0  0  0  0  0  0  0
    8.0860    4.8029   -8.6099 H   0  0  0  0  0  0  0  0  0  0  0  0
    8.6361    6.2643   -6.3211 H   0  0  0  0  0  0  0  0  0  0  0  0
   10.3099    7.7913   -5.2902 H   0  0  0  0  0  0  0  0  0  0  0  0
   12.0529    8.9138   -6.6933 H   0  0  0  0  0  0  0  0  0  0  0  0
   12.0860    9.5097   -9.8243 H   0  0  0  0  0  0  0  0  0  0  0  0
   14.0577    8.9974   -9.6230 H   0  0  0  0  0  0  0  0  0  0  0  0
    7.5334    3.8576  -10.9630 H   0  0  0  0  0  0  0  0  0  0  0  0
  2  1  1  0
  3  2  1  0
  4  3  1  0
  5  4  1  0
  6  5  1  0
  7  6  2  0
  8  7  1  0
  9  8  2  0
 10  5  2  0
 10  9  1  0
 11  2  1  0
 11 10  1  0
 12 11  1  0
 13 12  1  0
 14 13  1  0
 15 14  2  0
 16 15  1  0
 17 16  2  0
 18  9  1  0
 18 13  2  0
 18 17  1  0
 19  8  1  0
 19 17  1  0
 20 19  1  0
 21  1  1  0
 22  1  1  0
 23  1  1  0
 24  3  1  0
 25  3  1  0
 26  4  1  0
 27  4  1  0
 28  6  1  0
 29  7  1  0
 11 30  1  1
 31 12  1  0
 32 12  1  0
 33 14  1  0
 34 15  1  0
 35 16  1  0
 19 36  1  6
 37 20  1  0
  2 38  1  1
M  CHG  1   2   1
M  END
>  <b_m_subgroup_collapsed>  (857) 
0

>  <r_i_docking_score>  (857) 
-7.2363020197654802

>  <s_m_subgroup_title>  (857) 
glide-dock_SP_D22_pv

>  <s_m_subgroupid>  (857) 
glide-dock_SP_D22_pv

>  <Molecule ChEMBL ID>  (857) 
CHEMBL26751

>  <Standard Type>  (857) 
Ki

>  <Standard Value>  (857) 
23.8

>  <label>  (857) 
1

$$$$
CHEMBL184770
     RDKit          3D

 50 53  0  0  1  0  0  0  0  0999 V2000
    7.3640    2.4353  -14.4730 C   0  0  0  0  0  0  0  0  0  0  0  0
    8.5866    3.2788  -14.1453 C   0  0  0  0  0  0  0  0  0  0  0  0
    9.8376    2.8607  -14.6393 C   0  0  0  0  0  0  0  0  0  0  0  0
   11.0002    3.5768  -14.3202 C   0  0  0  0  0  0  0  0  0  0  0  0
   10.9213    4.6987  -13.4794 C   0  0  0  0  0  0  0  0  0  0  0  0
    9.6830    5.1354  -12.9561 C   0  0  0  0  0  0  0  0  0  0  0  0
    9.6895    6.2207  -12.0529 N   0  0  0  0  0  0  0  0  0  0  0  0
   10.5144    7.4139  -12.2378 C   0  0  0  0  0  0  0  0  0  0  0  0
   11.3101    7.7422  -10.9506 C   0  0  0  0  0  0  0  0  0  0  0  0
   10.4089    7.8694   -9.8002 N   0  0  0  0  0  0  0  0  0  0  0  0
   11.1793    8.1927   -8.5999 C   0  0  0  0  0  0  0  0  0  0  0  0
   10.2854    8.6970   -7.4448 C   0  0  0  0  0  0  0  0  0  0  0  0
   10.8984    8.4093   -6.0881 C   0  0  0  0  0  0  0  0  0  0  0  0
   11.1361    7.0671   -5.7152 C   0  0  0  0  0  0  0  0  0  0  0  0
   11.6854    6.7549   -4.4597 C   0  0  0  0  0  0  0  0  0  0  0  0
   11.9781    7.7745   -3.5390 C   0  0  0  0  0  0  0  0  0  0  0  0
   12.4712    7.7301   -2.2479 N   0  0  0  0  0  0  0  0  0  0  0  0
   12.5152    8.9436   -1.7957 N   0  0  0  0  0  0  0  0  0  0  0  0
   12.0861    9.7745   -2.7780 N   0  0  0  0  0  0  0  0  0  0  0  0
   11.7161    9.1069   -3.9207 C   0  0  0  0  0  0  0  0  0  0  0  0
   11.2013    9.4508   -5.1835 C   0  0  0  0  0  0  0  0  0  0  0  0
    9.7392    6.5708   -9.6181 C   0  0  0  0  0  0  0  0  0  0  0  0
    8.8816    6.2168  -10.8442 C   0  0  0  0  0  0  0  0  0  0  0  0
    8.4921    4.4436  -13.3370 C   0  0  0  0  0  0  0  0  0  0  0  0
    7.1058    4.9356  -12.9179 C   0  0  0  0  0  0  0  0  0  0  0  0
    7.6432    1.5138  -14.9842 H   0  0  0  0  0  0  0  0  0  0  0  0
    6.8441    2.1548  -13.5569 H   0  0  0  0  0  0  0  0  0  0  0  0
    6.6671    2.9728  -15.1121 H   0  0  0  0  0  0  0  0  0  0  0  0
    9.9130    1.9788  -15.2591 H   0  0  0  0  0  0  0  0  0  0  0  0
   11.9561    3.2498  -14.6973 H   0  0  0  0  0  0  0  0  0  0  0  0
   11.8368    5.2028  -13.2111 H   0  0  0  0  0  0  0  0  0  0  0  0
   11.1931    7.3095  -13.0826 H   0  0  0  0  0  0  0  0  0  0  0  0
    9.8493    8.2447  -12.4735 H   0  0  0  0  0  0  0  0  0  0  0  0
   12.0593    6.9726  -10.7628 H   0  0  0  0  0  0  0  0  0  0  0  0
   11.8537    8.6774  -11.0800 H   0  0  0  0  0  0  0  0  0  0  0  0
   11.7442    7.3081   -8.3022 H   0  0  0  0  0  0  0  0  0  0  0  0
   11.9227    8.9629   -8.8182 H   0  0  0  0  0  0  0  0  0  0  0  0
   10.1095    9.7708   -7.5475 H   0  0  0  0  0  0  0  0  0  0  0  0
    9.2976    8.2380   -7.4536 H   0  0  0  0  0  0  0  0  0  0  0  0
   10.8931    6.2636   -6.3965 H   0  0  0  0  0  0  0  0  0  0  0  0
   11.8709    5.7331   -4.1835 H   0  0  0  0  0  0  0  0  0  0  0  0
   11.0150   10.4832   -5.4405 H   0  0  0  0  0  0  0  0  0  0  0  0
   10.4767    5.7852   -9.4436 H   0  0  0  0  0  0  0  0  0  0  0  0
    9.0878    6.5870   -8.7448 H   0  0  0  0  0  0  0  0  0  0  0  0
    8.0875    6.9456  -10.9741 H   0  0  0  0  0  0  0  0  0  0  0  0
    8.4155    5.2446  -10.6812 H   0  0  0  0  0  0  0  0  0  0  0  0
    6.3632    4.7432  -13.6907 H   0  0  0  0  0  0  0  0  0  0  0  0
    6.7761    4.4402  -12.0057 H   0  0  0  0  0  0  0  0  0  0  0  0
    7.0892    6.0132  -12.7576 H   0  0  0  0  0  0  0  0  0  0  0  0
   12.0698   10.7734   -2.6270 H   0  0  0  0  0  0  0  0  0  0  0  0
  2  1  1  0
  3  2  2  0
  4  3  1  0
  5  4  2  0
  6  5  1  0
  7  6  1  0
  8  7  1  0
  9  8  1  0
 10  9  1  0
 11 10  1  0
 12 11  1  0
 13 12  1  0
 14 13  2  0
 15 14  1  0
 16 15  2  0
 17 16  1  0
 18 17  2  0
 19 18  1  0
 20 16  1  0
 20 19  1  0
 21 13  1  0
 21 20  2  0
 22 10  1  0
 23  7  1  0
 23 22  1  0
 24  2  1  0
 24  6  2  0
 25 24  1  0
 26  1  1  0
 27  1  1  0
 28  1  1  0
 29  3  1  0
 30  4  1  0
 31  5  1  0
 32  8  1  0
 33  8  1  0
 34  9  1  0
 35  9  1  0
 36 11  1  0
 37 11  1  0
 38 12  1  0
 39 12  1  0
 40 14  1  0
 41 15  1  0
 42 21  1  0
 43 22  1  0
 44 22  1  0
 45 23  1  0
 46 23  1  0
 47 25  1  0
 48 25  1  0
 49 25  1  0
 50 19  1  0
M  END
>  <b_m_subgroup_collapsed>  (858) 
0

>  <r_i_docking_score>  (858) 
-7.2353953219650604

>  <s_m_subgroup_title>  (858) 
glide-dock_SP_D22_pv

>  <s_m_subgroupid>  (858) 
glide-dock_SP_D22_pv

>  <Molecule ChEMBL ID>  (858) 
CHEMBL184770

>  <Standard Type>  (858) 
Ki

>  <Standard Value>  (858) 
51.29

>  <label>  (858) 
1

$$$$
CHEMBL2031876
     RDKit          3D

 66 70  0  0  1  0  0  0  0  0999 V2000
   12.9588    9.6893   -4.6983 C   0  0  0  0  0  0  0  0  0  0  0  0
   11.7118    8.8390   -4.4083 C   0  0  2  0  0  0  0  0  0  0  0  0
   11.9889    7.8839   -3.2411 C   0  0  0  0  0  0  0  0  0  0  0  0
   11.5791    6.5008   -3.7073 C   0  0  0  0  0  0  0  0  0  0  0  0
   11.2840    6.6072   -5.2045 C   0  0  0  0  0  0  0  0  0  0  0  0
   11.2858    8.0231   -5.5571 N   0  0  0  0  0  0  0  0  0  0  0  0
   10.8857    8.5600   -6.7392 C   0  0  0  0  0  0  0  0  0  0  0  0
   10.8859    9.7724   -6.9277 O   0  0  0  0  0  0  0  0  0  0  0  0
   10.4503    7.6797   -7.8828 C   0  0  0  0  0  0  0  0  0  0  0  0
    9.3550    6.7995   -7.7625 C   0  0  0  0  0  0  0  0  0  0  0  0
    8.8994    6.0729   -8.8787 C   0  0  0  0  0  0  0  0  0  0  0  0
    9.4799    6.2356  -10.1577 C   0  0  0  0  0  0  0  0  0  0  0  0
    8.9357    5.4891  -11.3159 C   0  0  0  0  0  0  0  0  0  0  0  0
    7.5437    5.3182  -11.4460 C   0  0  0  0  0  0  0  0  0  0  0  0
    6.9830    4.4957  -12.4317 C   0  0  0  0  0  0  0  0  0  0  0  0
    7.8208    3.8064  -13.3255 C   0  0  0  0  0  0  0  0  0  0  0  0
    9.2138    4.0235  -13.2727 C   0  0  0  0  0  0  0  0  0  0  0  0
    9.7573    4.8790  -12.2896 C   0  0  0  0  0  0  0  0  0  0  0  0
   10.1138    3.2811  -14.2401 C   0  0  0  0  0  0  0  0  0  0  0  0
    9.3659    2.8933  -15.5309 C   0  0  0  0  0  0  0  0  0  0  0  0
    8.0055    2.3829  -15.2900 N   0  0  0  0  0  0  0  0  0  0  0  0
    7.4359    1.5305  -16.3400 C   0  0  0  0  0  0  0  0  0  0  0  0
    7.2684    0.0693  -15.8599 C   0  0  0  0  0  0  0  0  0  0  0  0
    6.4859   -0.8068  -16.7675 N   0  0  0  0  0  0  0  0  0  0  0  0
    5.0364   -0.5401  -16.8434 C   0  0  0  0  0  0  0  0  0  0  0  0
    4.5441   -1.3408  -18.0536 C   0  0  0  0  0  0  0  0  0  0  0  0
    5.8015   -1.6446  -18.8863 C   0  0  0  0  0  0  0  0  0  0  0  0
    6.9596   -0.9541  -18.1558 C   0  0  0  0  0  0  0  0  0  0  0  0
    7.2367    2.7799  -14.2472 C   0  0  0  0  0  0  0  0  0  0  0  0
    6.0946    2.3580  -14.0491 O   0  0  0  0  0  0  0  0  0  0  0  0
   10.5651    7.1325  -10.2772 C   0  0  0  0  0  0  0  0  0  0  0  0
   11.0436    7.8452   -9.1559 C   0  0  0  0  0  0  0  0  0  0  0  0
   13.2885   10.1723   -3.7812 H   0  0  0  0  0  0  0  0  0  0  0  0
   13.7879    9.0801   -5.0469 H   0  0  0  0  0  0  0  0  0  0  0  0
   12.7828   10.4628   -5.4456 H   0  0  0  0  0  0  0  0  0  0  0  0
   10.8863    9.4976   -4.1333 H   0  0  0  0  0  0  0  0  0  0  0  0
   11.4432    8.1813   -2.3428 H   0  0  0  0  0  0  0  0  0  0  0  0
   13.0476    7.8767   -2.9783 H   0  0  0  0  0  0  0  0  0  0  0  0
   10.6908    6.1724   -3.1676 H   0  0  0  0  0  0  0  0  0  0  0  0
   12.3606    5.7723   -3.4961 H   0  0  0  0  0  0  0  0  0  0  0  0
   10.3074    6.1721   -5.3899 H   0  0  0  0  0  0  0  0  0  0  0  0
   12.0264    6.0700   -5.7968 H   0  0  0  0  0  0  0  0  0  0  0  0
    8.8176    6.7043   -6.8307 H   0  0  0  0  0  0  0  0  0  0  0  0
    8.0583    5.4091   -8.7494 H   0  0  0  0  0  0  0  0  0  0  0  0
    6.8841    5.7722  -10.7273 H   0  0  0  0  0  0  0  0  0  0  0  0
    5.9124    4.3510  -12.4440 H   0  0  0  0  0  0  0  0  0  0  0  0
   10.8252    5.0143  -12.2477 H   0  0  0  0  0  0  0  0  0  0  0  0
   10.9908    3.8857  -14.4789 H   0  0  0  0  0  0  0  0  0  0  0  0
   10.4748    2.3818  -13.7396 H   0  0  0  0  0  0  0  0  0  0  0  0
    9.2726    3.7747  -16.1666 H   0  0  0  0  0  0  0  0  0  0  0  0
    9.9637    2.1707  -16.0871 H   0  0  0  0  0  0  0  0  0  0  0  0
    6.4861    1.9627  -16.6514 H   0  0  0  0  0  0  0  0  0  0  0  0
    8.0721    1.5616  -17.2235 H   0  0  0  0  0  0  0  0  0  0  0  0
    8.2580   -0.3693  -15.7248 H   0  0  0  0  0  0  0  0  0  0  0  0
    6.7891    0.0226  -14.8809 H   0  0  0  0  0  0  0  0  0  0  0  0
    4.5218   -0.8147  -15.9212 H   0  0  0  0  0  0  0  0  0  0  0  0
    4.8669    0.5214  -17.0250 H   0  0  0  0  0  0  0  0  0  0  0  0
    4.0708   -2.2710  -17.7302 H   0  0  0  0  0  0  0  0  0  0  0  0
    3.7994   -0.7806  -18.6225 H   0  0  0  0  0  0  0  0  0  0  0  0
    5.9663   -2.7224  -18.9168 H   0  0  0  0  0  0  0  0  0  0  0  0
    5.7063   -1.2984  -19.9165 H   0  0  0  0  0  0  0  0  0  0  0  0
    7.1323    0.0225  -18.6079 H   0  0  0  0  0  0  0  0  0  0  0  0
    7.8882   -1.5239  -18.2073 H   0  0  0  0  0  0  0  0  0  0  0  0
   11.0259    7.2928  -11.2406 H   0  0  0  0  0  0  0  0  0  0  0  0
   11.8565    8.5479   -9.2839 H   0  0  0  0  0  0  0  0  0  0  0  0
    6.5822   -1.7335  -16.3641 H   0  0  0  0  0  0  0  0  0  0  0  0
  2  1  1  0
  3  2  1  0
  4  3  1  0
  5  4  1  0
  6  2  1  0
  6  5  1  0
  7  6  1  0
  8  7  2  0
  9  7  1  0
 10  9  1  0
 11 10  2  0
 12 11  1  0
 13 12  1  0
 14 13  1  0
 15 14  2  0
 16 15  1  0
 17 16  2  0
 18 13  2  0
 18 17  1  0
 19 17  1  0
 20 19  1  0
 21 20  1  0
 22 21  1  0
 23 22  1  0
 24 23  1  0
 25 24  1  0
 26 25  1  0
 27 26  1  0
 28 24  1  0
 28 27  1  0
 29 16  1  0
 29 21  1  0
 30 29  2  0
 31 12  2  0
 32  9  2  0
 32 31  1  0
 33  1  1  0
 34  1  1  0
 35  1  1  0
  2 36  1  1
 37  3  1  0
 38  3  1  0
 39  4  1  0
 40  4  1  0
 41  5  1  0
 42  5  1  0
 43 10  1  0
 44 11  1  0
 45 14  1  0
 46 15  1  0
 47 18  1  0
 48 19  1  0
 49 19  1  0
 50 20  1  0
 51 20  1  0
 52 22  1  0
 53 22  1  0
 54 23  1  0
 55 23  1  0
 56 25  1  0
 57 25  1  0
 58 26  1  0
 59 26  1  0
 60 27  1  0
 61 27  1  0
 62 28  1  0
 63 28  1  0
 64 31  1  0
 65 32  1  0
 66 24  1  0
M  CHG  1  24   1
M  END
>  <b_m_subgroup_collapsed>  (859) 
0

>  <r_i_docking_score>  (859) 
-7.2353455740963701

>  <s_m_subgroup_title>  (859) 
glide-dock_SP_D22_pv

>  <s_m_subgroupid>  (859) 
glide-dock_SP_D22_pv

>  <Molecule ChEMBL ID>  (859) 
CHEMBL2031876

>  <Standard Type>  (859) 
Ki

>  <Standard Value>  (859) 
10000.0

>  <label>  (859) 
0

$$$$
CHEMBL5976926
     RDKit          3D

 41 43  0  0  1  0  0  0  0  0999 V2000
    9.5223    5.5305  -12.8030 C   0  0  0  0  0  0  0  0  0  0  0  0
    8.5652    6.3067  -11.8803 C   0  0  1  0  0  0  0  0  0  0  0  0
    7.5108    6.8407  -12.6471 O   0  0  0  0  0  0  0  0  0  0  0  0
    7.9063    5.3590  -10.8650 C   0  0  0  0  0  0  0  0  0  0  0  0
    8.7905    5.0766   -9.6443 C   0  0  0  0  0  0  0  0  0  0  0  0
    9.2846    6.3301   -9.0183 N   0  0  1  0  0  0  0  0  0  0  0  0
    9.9779    6.0217   -7.7392 C   0  0  0  0  0  0  0  0  0  0  0  0
   10.6746    7.1916   -7.0251 C   0  0  1  0  0  0  0  0  0  0  0  0
    9.7445    8.3798   -6.7185 C   0  0  0  0  0  0  0  0  0  0  0  0
   10.4866    9.3723   -6.0225 O   0  0  0  0  0  0  0  0  0  0  0  0
   11.1721    8.8900   -4.9342 C   0  0  0  0  0  0  0  0  0  0  0  0
   11.5181    9.7722   -3.8972 C   0  0  0  0  0  0  0  0  0  0  0  0
   12.1294    9.2871   -2.7269 C   0  0  0  0  0  0  0  0  0  0  0  0
   12.4112    7.9159   -2.5945 C   0  0  0  0  0  0  0  0  0  0  0  0
   12.0859    7.0291   -3.6367 C   0  0  0  0  0  0  0  0  0  0  0  0
   11.4742    7.5123   -4.8105 C   0  0  0  0  0  0  0  0  0  0  0  0
   11.1478    6.6247   -5.8055 O   0  0  0  0  0  0  0  0  0  0  0  0
   10.0895    7.1246   -9.9850 C   0  0  0  0  0  0  0  0  0  0  0  0
    9.2420    7.5160  -11.2002 C   0  0  0  0  0  0  0  0  0  0  0  0
   10.3141    5.0444  -12.2331 H   0  0  0  0  0  0  0  0  0  0  0  0
    8.9935    4.7503  -13.3523 H   0  0  0  0  0  0  0  0  0  0  0  0
   10.0019    6.1720  -13.5382 H   0  0  0  0  0  0  0  0  0  0  0  0
    6.9125    7.2707  -12.0391 H   0  0  0  0  0  0  0  0  0  0  0  0
    6.9596    5.7722  -10.5353 H   0  0  0  0  0  0  0  0  0  0  0  0
    7.6349    4.4178  -11.3455 H   0  0  0  0  0  0  0  0  0  0  0  0
    8.2144    4.5014   -8.9176 H   0  0  0  0  0  0  0  0  0  0  0  0
    9.6392    4.4541   -9.9333 H   0  0  0  0  0  0  0  0  0  0  0  0
    9.2475    5.5960   -7.0485 H   0  0  0  0  0  0  0  0  0  0  0  0
   10.7276    5.2532   -7.9261 H   0  0  0  0  0  0  0  0  0  0  0  0
   11.5394    7.5295   -7.5985 H   0  0  0  0  0  0  0  0  0  0  0  0
    9.3502    8.8253   -7.6312 H   0  0  0  0  0  0  0  0  0  0  0  0
    8.8850    8.0600   -6.1308 H   0  0  0  0  0  0  0  0  0  0  0  0
   11.2767   10.8196   -3.9855 H   0  0  0  0  0  0  0  0  0  0  0  0
   12.3752    9.9652   -1.9234 H   0  0  0  0  0  0  0  0  0  0  0  0
   12.8714    7.5457   -1.6910 H   0  0  0  0  0  0  0  0  0  0  0  0
   12.2937    5.9747   -3.5300 H   0  0  0  0  0  0  0  0  0  0  0  0
   10.4511    8.0457   -9.5314 H   0  0  0  0  0  0  0  0  0  0  0  0
   10.9734    6.5708  -10.2955 H   0  0  0  0  0  0  0  0  0  0  0  0
    9.8501    8.0635  -11.9220 H   0  0  0  0  0  0  0  0  0  0  0  0
    8.4882    8.2281  -10.8617 H   0  0  0  0  0  0  0  0  0  0  0  0
    8.4581    6.8778   -8.7986 H   0  0  0  0  0  0  0  0  0  0  0  0
  2  1  1  0
  2  3  1  6
  4  2  1  0
  5  4  1  0
  6  5  1  0
  7  6  1  0
  8  7  1  0
  9  8  1  0
 10  9  1  0
 11 10  1  0
 12 11  2  0
 13 12  1  0
 14 13  2  0
 15 14  1  0
 16 11  1  0
 16 15  2  0
 17  8  1  0
 17 16  1  0
 18  6  1  0
 19  2  1  0
 19 18  1  0
 20  1  1  0
 21  1  1  0
 22  1  1  0
 23  3  1  0
 24  4  1  0
 25  4  1  0
 26  5  1  0
 27  5  1  0
 28  7  1  0
 29  7  1  0
  8 30  1  6
 31  9  1  0
 32  9  1  0
 33 12  1  0
 34 13  1  0
 35 14  1  0
 36 15  1  0
 37 18  1  0
 38 18  1  0
 39 19  1  0
 40 19  1  0
  6 41  1  1
M  CHG  1   6   1
M  END
>  <b_m_subgroup_collapsed>  (860) 
0

>  <r_i_docking_score>  (860) 
-7.2312122126637401

>  <s_m_subgroup_title>  (860) 
glide-dock_SP_D22_pv

>  <s_m_subgroupid>  (860) 
glide-dock_SP_D22_pv

>  <Molecule ChEMBL ID>  (860) 
CHEMBL5976926

>  <Standard Type>  (860) 
Ki

>  <Standard Value>  (860) 
20000.0

>  <label>  (860) 
0

$$$$
CHEMBL593626
     RDKit          3D

 37 40  0  0  1  0  0  0  0  0999 V2000
   13.3213    5.5891  -15.0907 O   0  0  0  0  0  0  0  0  0  0  0  0
   12.0354    5.2728  -14.7783 C   0  0  0  0  0  0  0  0  0  0  0  0
   11.2095    4.6720  -15.7438 C   0  0  0  0  0  0  0  0  0  0  0  0
    9.8812    4.3396  -15.4224 C   0  0  0  0  0  0  0  0  0  0  0  0
    9.3724    4.5583  -14.1205 C   0  0  0  0  0  0  0  0  0  0  0  0
   10.1963    5.2163  -13.1740 C   0  0  0  0  0  0  0  0  0  0  0  0
   11.5217    5.5669  -13.5021 C   0  0  0  0  0  0  0  0  0  0  0  0
    9.6303    5.6092  -11.8248 C   0  0  0  0  0  0  0  0  0  0  0  0
    8.1292    5.8788  -11.9334 C   0  0  0  0  0  0  0  0  0  0  0  0
    7.4524    4.6708  -12.4468 N   0  0  1  0  0  0  0  0  0  0  0  0
    5.9778    4.7754  -12.4264 C   0  0  0  0  0  0  0  0  0  0  0  0
    5.3356    3.3919  -12.6305 C   0  0  0  0  0  0  0  0  0  0  0  0
    6.1322    2.4299  -13.4996 C   0  0  0  0  0  0  0  0  0  0  0  0
    5.6406    1.1171  -13.6666 C   0  0  0  0  0  0  0  0  0  0  0  0
    6.4028    0.1507  -14.3435 C   0  0  0  0  0  0  0  0  0  0  0  0
    7.6763    0.4871  -14.8311 C   0  0  0  0  0  0  0  0  0  0  0  0
    8.1818    1.7890  -14.6558 C   0  0  0  0  0  0  0  0  0  0  0  0
    7.4092    2.7877  -14.0135 C   0  0  0  0  0  0  0  0  0  0  0  0
    7.9062    4.2249  -13.7937 C   0  0  2  0  0  0  0  0  0  0  0  0
   13.8402    5.8867  -14.3532 H   0  0  0  0  0  0  0  0  0  0  0  0
   11.5896    4.4733  -16.7359 H   0  0  0  0  0  0  0  0  0  0  0  0
    9.2553    3.9050  -16.1864 H   0  0  0  0  0  0  0  0  0  0  0  0
   12.1441    6.0792  -12.7821 H   0  0  0  0  0  0  0  0  0  0  0  0
    9.8228    4.8035  -11.1135 H   0  0  0  0  0  0  0  0  0  0  0  0
   10.1416    6.4965  -11.4482 H   0  0  0  0  0  0  0  0  0  0  0  0
    7.7331    6.1424  -10.9518 H   0  0  0  0  0  0  0  0  0  0  0  0
    7.9337    6.7221  -12.5971 H   0  0  0  0  0  0  0  0  0  0  0  0
    5.6328    5.2029  -11.4824 H   0  0  0  0  0  0  0  0  0  0  0  0
    5.6557    5.4624  -13.2088 H   0  0  0  0  0  0  0  0  0  0  0  0
    5.2377    2.9162  -11.6545 H   0  0  0  0  0  0  0  0  0  0  0  0
    4.3310    3.5004  -13.0416 H   0  0  0  0  0  0  0  0  0  0  0  0
    4.6784    0.8454  -13.2578 H   0  0  0  0  0  0  0  0  0  0  0  0
    6.0233   -0.8533  -14.4700 H   0  0  0  0  0  0  0  0  0  0  0  0
    8.2724   -0.2606  -15.3343 H   0  0  0  0  0  0  0  0  0  0  0  0
    9.1789    1.9765  -15.0144 H   0  0  0  0  0  0  0  0  0  0  0  0
    7.3683    4.8356  -14.5134 H   0  0  0  0  0  0  0  0  0  0  0  0
    7.7006    3.9310  -11.8032 H   0  0  0  0  0  0  0  0  0  0  0  0
  2  1  1  0
  3  2  1  0
  4  3  2  0
  5  4  1  0
  6  5  2  0
  7  2  2  0
  7  6  1  0
  8  6  1  0
  9  8  1  0
 10  9  1  0
 11 10  1  0
 12 11  1  0
 13 12  1  0
 14 13  2  0
 15 14  1  0
 16 15  2  0
 17 16  1  0
 18 13  1  0
 18 17  2  0
 19  5  1  0
 19 10  1  0
 19 18  1  0
 20  1  1  0
 21  3  1  0
 22  4  1  0
 23  7  1  0
 24  8  1  0
 25  8  1  0
 26  9  1  0
 27  9  1  0
 28 11  1  0
 29 11  1  0
 30 12  1  0
 31 12  1  0
 32 14  1  0
 33 15  1  0
 34 16  1  0
 35 17  1  0
 19 36  1  6
 10 37  1  1
M  CHG  1  10   1
M  END
>  <b_m_subgroup_collapsed>  (861) 
0

>  <r_i_docking_score>  (861) 
-7.2292973457978897

>  <s_m_subgroup_title>  (861) 
glide-dock_SP_D22_pv

>  <s_m_subgroupid>  (861) 
glide-dock_SP_D22_pv

>  <Molecule ChEMBL ID>  (861) 
CHEMBL593626

>  <Standard Type>  (861) 
Ki

>  <Standard Value>  (861) 
10000.0

>  <label>  (861) 
0

$$$$
CHEMBL3664887
     RDKit          3D

 65 68  0  0  1  0  0  0  0  0999 V2000
    6.5529    0.2924  -17.7123 C   0  0  0  0  0  0  0  0  0  0  0  0
    6.0892   -0.1368  -16.3861 N   0  0  0  0  0  0  0  0  0  0  0  0
    5.1578   -1.2697  -16.3807 C   0  0  0  0  0  0  0  0  0  0  0  0
    6.4826    0.4366  -15.2226 C   0  0  0  0  0  0  0  0  0  0  0  0
    6.1871   -0.0160  -14.1166 O   0  0  0  0  0  0  0  0  0  0  0  0
    7.1531    1.5948  -15.3678 N   0  0  0  0  0  0  0  0  0  0  0  0
    7.5331    2.4677  -14.2607 C   0  0  1  0  0  0  0  0  0  0  0  0
    8.7921    3.2881  -14.5739 C   0  0  0  0  0  0  0  0  0  0  0  0
    9.1784    4.1769  -13.3792 C   0  0  0  0  0  0  0  0  0  0  0  0
    8.0210    5.1182  -12.9821 C   0  0  2  0  0  0  0  0  0  0  0  0
    8.4111    6.1135  -11.8664 C   0  0  0  0  0  0  0  0  0  0  0  0
    8.4640    5.4840  -10.4622 C   0  0  0  0  0  0  0  0  0  0  0  0
    8.9284    6.4069   -9.3930 N   0  0  2  0  0  0  0  0  0  0  0  0
   10.3836    6.6823   -9.5032 C   0  0  0  0  0  0  0  0  0  0  0  0
   10.8985    7.6314   -8.4112 C   0  0  0  0  0  0  0  0  0  0  0  0
   10.5734    7.1001   -7.0024 C   0  0  1  0  0  0  0  0  0  0  0  0
   11.0167    8.0269   -5.8793 C   0  0  0  0  0  0  0  0  0  0  0  0
   10.8840    9.4313   -6.0026 C   0  0  0  0  0  0  0  0  0  0  0  0
   11.2101   10.2831   -4.9307 C   0  0  0  0  0  0  0  0  0  0  0  0
   11.6865    9.7629   -3.7073 C   0  0  0  0  0  0  0  0  0  0  0  0
   11.8280    8.3772   -3.6010 C   0  0  0  0  0  0  0  0  0  0  0  0
   11.5041    7.5338   -4.6460 C   0  0  0  0  0  0  0  0  0  0  0  0
   11.6873    6.2519   -4.2340 O   0  0  0  0  0  0  0  0  0  0  0  0
   12.0649    6.3213   -2.8753 C   0  0  0  0  0  0  0  0  0  0  0  0
   12.2248    7.6628   -2.5190 O   0  0  0  0  0  0  0  0  0  0  0  0
    9.0661    6.8388   -6.9197 C   0  0  0  0  0  0  0  0  0  0  0  0
    8.5902    5.8931   -8.0360 C   0  0  0  0  0  0  0  0  0  0  0  0
    6.7419    4.3066  -12.6707 C   0  0  0  0  0  0  0  0  0  0  0  0
    6.3560    3.3667  -13.8197 C   0  0  0  0  0  0  0  0  0  0  0  0
    7.6359    0.4157  -17.7333 H   0  0  0  0  0  0  0  0  0  0  0  0
    6.3067   -0.4335  -18.4878 H   0  0  0  0  0  0  0  0  0  0  0  0
    6.0932    1.2426  -17.9878 H   0  0  0  0  0  0  0  0  0  0  0  0
    4.3804   -1.1463  -15.6248 H   0  0  0  0  0  0  0  0  0  0  0  0
    4.6429   -1.3865  -17.3382 H   0  0  0  0  0  0  0  0  0  0  0  0
    5.6860   -2.2000  -16.1627 H   0  0  0  0  0  0  0  0  0  0  0  0
    7.3664    1.9006  -16.3036 H   0  0  0  0  0  0  0  0  0  0  0  0
    7.8112    1.8121  -13.4469 H   0  0  0  0  0  0  0  0  0  0  0  0
    8.6360    3.9110  -15.4487 H   0  0  0  0  0  0  0  0  0  0  0  0
    9.6201    2.6207  -14.8172 H   0  0  0  0  0  0  0  0  0  0  0  0
   10.0651    4.7590  -13.6357 H   0  0  0  0  0  0  0  0  0  0  0  0
    9.4614    3.5415  -12.5392 H   0  0  0  0  0  0  0  0  0  0  0  0
    7.8086    5.7421  -13.8469 H   0  0  0  0  0  0  0  0  0  0  0  0
    7.6891    6.9312  -11.8479 H   0  0  0  0  0  0  0  0  0  0  0  0
    9.3601    6.5732  -12.1414 H   0  0  0  0  0  0  0  0  0  0  0  0
    9.0615    4.5730  -10.4542 H   0  0  0  0  0  0  0  0  0  0  0  0
    7.4437    5.1908  -10.2470 H   0  0  0  0  0  0  0  0  0  0  0  0
   10.6378    7.1030  -10.4763 H   0  0  0  0  0  0  0  0  0  0  0  0
   10.8863    5.7231   -9.4275 H   0  0  0  0  0  0  0  0  0  0  0  0
   10.4361    8.6011   -8.5891 H   0  0  0  0  0  0  0  0  0  0  0  0
   11.9757    7.7731   -8.5160 H   0  0  0  0  0  0  0  0  0  0  0  0
   11.1046    6.1566   -6.8711 H   0  0  0  0  0  0  0  0  0  0  0  0
   10.4962    9.8792   -6.9030 H   0  0  0  0  0  0  0  0  0  0  0  0
   11.0890   11.3515   -5.0458 H   0  0  0  0  0  0  0  0  0  0  0  0
   11.9297   10.4119   -2.8765 H   0  0  0  0  0  0  0  0  0  0  0  0
   12.9855    5.7755   -2.6632 H   0  0  0  0  0  0  0  0  0  0  0  0
   11.2732    5.8947   -2.2585 H   0  0  0  0  0  0  0  0  0  0  0  0
    8.8396    6.4006   -5.9494 H   0  0  0  0  0  0  0  0  0  0  0  0
    8.5135    7.7778   -6.9768 H   0  0  0  0  0  0  0  0  0  0  0  0
    7.5155    5.7711   -7.9483 H   0  0  0  0  0  0  0  0  0  0  0  0
    9.0304    4.9052   -7.8823 H   0  0  0  0  0  0  0  0  0  0  0  0
    6.8854    3.7024  -11.7786 H   0  0  0  0  0  0  0  0  0  0  0  0
    5.9128    4.9838  -12.4572 H   0  0  0  0  0  0  0  0  0  0  0  0
    6.0045    3.9770  -14.6469 H   0  0  0  0  0  0  0  0  0  0  0  0
    5.5077    2.7525  -13.5173 H   0  0  0  0  0  0  0  0  0  0  0  0
    8.4058    7.2677   -9.5172 H   0  0  0  0  0  0  0  0  0  0  0  0
  2  1  1  0
  3  2  1  0
  4  2  1  0
  5  4  2  0
  6  4  1  0
  7  6  1  0
  8  7  1  0
  9  8  1  0
 10  9  1  0
 11 10  1  0
 12 11  1  0
 13 12  1  0
 14 13  1  0
 15 14  1  0
 16 15  1  0
 17 16  1  0
 18 17  2  0
 19 18  1  0
 20 19  2  0
 21 20  1  0
 22 17  1  0
 22 21  2  0
 23 22  1  0
 24 23  1  0
 25 21  1  0
 25 24  1  0
 26 16  1  0
 27 13  1  0
 27 26  1  0
 28 10  1  0
 29  7  1  0
 29 28  1  0
 30  1  1  0
 31  1  1  0
 32  1  1  0
 33  3  1  0
 34  3  1  0
 35  3  1  0
 36  6  1  0
  7 37  1  1
 38  8  1  0
 39  8  1  0
 40  9  1  0
 41  9  1  0
 10 42  1  6
 43 11  1  0
 44 11  1  0
 45 12  1  0
 46 12  1  0
 47 14  1  0
 48 14  1  0
 49 15  1  0
 50 15  1  0
 16 51  1  1
 52 18  1  0
 53 19  1  0
 54 20  1  0
 55 24  1  0
 56 24  1  0
 57 26  1  0
 58 26  1  0
 59 27  1  0
 60 27  1  0
 61 28  1  0
 62 28  1  0
 63 29  1  0
 64 29  1  0
 13 65  1  6
M  CHG  1  13   1
M  END
>  <b_m_subgroup_collapsed>  (862) 
0

>  <r_i_docking_score>  (862) 
-7.2277835955053904

>  <s_m_subgroup_title>  (862) 
glide-dock_SP_D22_pv

>  <s_m_subgroupid>  (862) 
glide-dock_SP_D22_pv

>  <Molecule ChEMBL ID>  (862) 
CHEMBL3664887

>  <Standard Type>  (862) 
Ki

>  <Standard Value>  (862) 
52.74

>  <label>  (862) 
1

$$$$
CHEMBL5191370
     RDKit          3D

 30 31  0  0  1  0  0  0  0  0999 V2000
    8.0860    6.5722  -11.8468 N   0  0  0  0  0  0  0  0  0  0  0  0
    8.9515    5.8521  -11.1380 C   0  0  0  0  0  0  0  0  0  0  0  0
    9.2871    4.7243  -11.4899 O   0  0  0  0  0  0  0  0  0  0  0  0
    9.2860    6.4142   -9.9597 N   0  0  0  0  0  0  0  0  0  0  0  0
    9.5286    5.5754   -8.7800 C   0  0  0  0  0  0  0  0  0  0  0  0
    9.5173    6.4198   -7.4959 C   0  0  0  0  0  0  0  0  0  0  0  0
   10.5440    7.4540   -7.5517 N   0  0  0  0  0  0  0  0  0  0  0  0
   10.9078    8.0904   -6.3496 C   0  0  0  0  0  0  0  0  0  0  0  0
   10.9056    9.4985   -6.2316 C   0  0  0  0  0  0  0  0  0  0  0  0
   11.2861   10.1218   -5.0310 C   0  0  0  0  0  0  0  0  0  0  0  0
   11.6863    9.3474   -3.9266 C   0  0  0  0  0  0  0  0  0  0  0  0
   11.6860    7.9431   -4.0244 C   0  0  0  0  0  0  0  0  0  0  0  0
   12.0991    6.9814   -2.6523 Cl  0  0  0  0  0  0  0  0  0  0  0  0
   11.2862    7.3203   -5.2245 C   0  0  0  0  0  0  0  0  0  0  0  0
   10.8375    8.0503   -8.8569 C   0  0  0  0  0  0  0  0  0  0  0  0
    9.6861    7.8338   -9.8616 C   0  0  0  0  0  0  0  0  0  0  0  0
    7.7248    6.1989  -12.7076 H   0  0  0  0  0  0  0  0  0  0  0  0
    7.5616    7.2914  -11.3308 H   0  0  0  0  0  0  0  0  0  0  0  0
   10.4835    5.0591   -8.8879 H   0  0  0  0  0  0  0  0  0  0  0  0
    8.7573    4.8059   -8.7100 H   0  0  0  0  0  0  0  0  0  0  0  0
    9.6653    5.7723   -6.6374 H   0  0  0  0  0  0  0  0  0  0  0  0
    8.5417    6.8928   -7.3667 H   0  0  0  0  0  0  0  0  0  0  0  0
   10.5905   10.1267   -7.0469 H   0  0  0  0  0  0  0  0  0  0  0  0
   11.2745   11.1988   -4.9662 H   0  0  0  0  0  0  0  0  0  0  0  0
   11.9747    9.8291   -3.0032 H   0  0  0  0  0  0  0  0  0  0  0  0
   11.2958    6.2413   -5.2775 H   0  0  0  0  0  0  0  0  0  0  0  0
   11.0725    9.1107   -8.7961 H   0  0  0  0  0  0  0  0  0  0  0  0
   11.7386    7.5706   -9.2405 H   0  0  0  0  0  0  0  0  0  0  0  0
    9.9887    8.2239  -10.8350 H   0  0  0  0  0  0  0  0  0  0  0  0
    8.8170    8.4151   -9.5516 H   0  0  0  0  0  0  0  0  0  0  0  0
  2  1  1  0
  3  2  2  0
  4  2  1  0
  5  4  1  0
  6  5  1  0
  7  6  1  0
  8  7  1  0
  9  8  2  0
 10  9  1  0
 11 10  2  0
 12 11  1  0
 13 12  1  0
 14  8  1  0
 14 12  2  0
 15  7  1  0
 16  4  1  0
 16 15  1  0
 17  1  1  0
 18  1  1  0
 19  5  1  0
 20  5  1  0
 21  6  1  0
 22  6  1  0
 23  9  1  0
 24 10  1  0
 25 11  1  0
 26 14  1  0
 27 15  1  0
 28 15  1  0
 29 16  1  0
 30 16  1  0
M  END
>  <b_m_subgroup_collapsed>  (863) 
0

>  <r_i_docking_score>  (863) 
-7.2273856454607097

>  <s_m_subgroup_title>  (863) 
glide-dock_SP_D22_pv

>  <s_m_subgroupid>  (863) 
glide-dock_SP_D22_pv

>  <Molecule ChEMBL ID>  (863) 
CHEMBL5191370

>  <Standard Type>  (863) 
Ki

>  <Standard Value>  (863) 
115900.0

>  <label>  (863) 
0

$$$$
CHEMBL5647307
     RDKit          3D

 78 81  0  0  1  0  0  0  0  0999 V2000
    5.9585    1.0017  -13.8531 C   0  0  0  0  0  0  0  0  0  0  0  0
    7.1653    1.0378  -14.4398 C   0  0  0  0  0  0  0  0  0  0  0  0
    7.7539    2.2412  -15.1498 C   0  0  0  0  0  0  0  0  0  0  0  0
    8.7974    2.8523  -14.2962 N   0  0  2  0  0  0  0  0  0  0  0  0
    8.3201    3.8229  -13.3029 C   0  0  0  0  0  0  0  0  0  0  0  0
    9.6215    4.2983  -12.6561 C   0  0  2  0  0  0  0  0  0  0  0  0
    9.5286    5.5989  -12.0928 O   0  0  0  0  0  0  0  0  0  0  0  0
    9.2903    5.7202  -10.7792 C   0  0  0  0  0  0  0  0  0  0  0  0
    8.9126    4.7956  -10.0595 O   0  0  0  0  0  0  0  0  0  0  0  0
    9.6191    7.0097  -10.3900 N   0  0  0  0  0  0  0  0  0  0  0  0
    9.9560    7.3805   -9.0653 C   0  0  0  0  0  0  0  0  0  0  0  0
   10.9969    8.3129   -8.8749 C   0  0  0  0  0  0  0  0  0  0  0  0
   11.4334    8.6311   -7.5735 C   0  0  0  0  0  0  0  0  0  0  0  0
   10.8327    8.0171   -6.4550 C   0  0  0  0  0  0  0  0  0  0  0  0
   11.3226    8.2842   -5.1082 C   0  0  0  0  0  0  0  0  0  0  0  0
   11.6857    7.2118   -4.2337 C   0  0  0  0  0  0  0  0  0  0  0  0
   12.1085    7.6374   -3.0045 C   0  0  0  0  0  0  0  0  0  0  0  0
   12.0861    9.3722   -2.8893 S   0  0  0  0  0  0  0  0  0  0  0  0
   11.5072    9.5103   -4.5247 C   0  0  0  0  0  0  0  0  0  0  0  0
    9.7526    7.1338   -6.6459 C   0  0  0  0  0  0  0  0  0  0  0  0
    9.2998    6.8308   -7.9407 C   0  0  0  0  0  0  0  0  0  0  0  0
   10.6565    4.2484  -13.7924 C   0  0  0  0  0  0  0  0  0  0  0  0
    9.9717    3.4806  -14.9459 C   0  0  2  0  0  0  0  0  0  0  0  0
    9.6042    4.4455  -16.1019 C   0  0  0  0  0  0  0  0  0  0  0  0
   10.8072    4.8712  -16.8106 N   0  0  0  0  0  0  0  0  0  0  0  0
   11.3168    4.2335  -17.8763 C   0  0  0  0  0  0  0  0  0  0  0  0
   10.7790    3.2376  -18.3614 O   0  0  0  0  0  0  0  0  0  0  0  0
   12.6142    4.7871  -18.4159 C   0  0  0  0  0  0  0  0  0  0  0  0
   12.8699    6.1757  -18.3222 C   0  0  0  0  0  0  0  0  0  0  0  0
   14.0555    6.7239  -18.8416 C   0  0  0  0  0  0  0  0  0  0  0  0
   14.3391    8.2086  -18.7089 C   0  0  0  0  0  0  0  0  0  0  0  0
   13.9319    8.9890  -19.9649 C   0  0  0  0  0  0  0  0  0  0  0  0
   14.4265   10.4388  -19.9475 C   0  0  0  0  0  0  0  0  0  0  0  0
   15.7579   10.4712  -19.9616 F   0  0  0  0  0  0  0  0  0  0  0  0
   14.9820    5.8929  -19.4957 C   0  0  0  0  0  0  0  0  0  0  0  0
   14.7482    4.5024  -19.6228 C   0  0  0  0  0  0  0  0  0  0  0  0
   15.6447    3.6540  -20.2434 O   0  0  0  0  0  0  0  0  0  0  0  0
   16.7495    4.2164  -20.9389 C   0  0  0  0  0  0  0  0  0  0  0  0
   13.5616    3.9474  -19.0685 C   0  0  0  0  0  0  0  0  0  0  0  0
   13.3282    2.5897  -19.1095 O   0  0  0  0  0  0  0  0  0  0  0  0
   13.3777    1.9704  -20.3880 C   0  0  0  0  0  0  0  0  0  0  0  0
    5.3044    1.8615  -13.8443 H   0  0  0  0  0  0  0  0  0  0  0  0
    5.6077    0.1033  -13.3657 H   0  0  0  0  0  0  0  0  0  0  0  0
    7.7839    0.1524  -14.4117 H   0  0  0  0  0  0  0  0  0  0  0  0
    8.1829    1.8920  -16.0905 H   0  0  0  0  0  0  0  0  0  0  0  0
    6.9779    2.9706  -15.3885 H   0  0  0  0  0  0  0  0  0  0  0  0
    7.8130    4.6498  -13.8020 H   0  0  0  0  0  0  0  0  0  0  0  0
    7.6120    3.3729  -12.6131 H   0  0  0  0  0  0  0  0  0  0  0  0
    9.9298    3.5652  -11.9083 H   0  0  0  0  0  0  0  0  0  0  0  0
    9.9068    7.6221  -11.1378 H   0  0  0  0  0  0  0  0  0  0  0  0
   11.4919    8.7607   -9.7237 H   0  0  0  0  0  0  0  0  0  0  0  0
   12.2558    9.3192   -7.4387 H   0  0  0  0  0  0  0  0  0  0  0  0
   11.6164    6.1754   -4.5321 H   0  0  0  0  0  0  0  0  0  0  0  0
   12.4290    7.0386   -2.1657 H   0  0  0  0  0  0  0  0  0  0  0  0
   11.3201   10.4848   -4.9504 H   0  0  0  0  0  0  0  0  0  0  0  0
    9.2684    6.6775   -5.7956 H   0  0  0  0  0  0  0  0  0  0  0  0
    8.4623    6.1576   -8.0528 H   0  0  0  0  0  0  0  0  0  0  0  0
   10.9634    5.2494  -14.0958 H   0  0  0  0  0  0  0  0  0  0  0  0
   11.5549    3.7381  -13.4491 H   0  0  0  0  0  0  0  0  0  0  0  0
   10.6154    2.6849  -15.3242 H   0  0  0  0  0  0  0  0  0  0  0  0
    8.8916    3.9984  -16.8001 H   0  0  0  0  0  0  0  0  0  0  0  0
    9.1170    5.3436  -15.7162 H   0  0  0  0  0  0  0  0  0  0  0  0
   11.3041    5.6776  -16.4623 H   0  0  0  0  0  0  0  0  0  0  0  0
   12.1584    6.8410  -17.8540 H   0  0  0  0  0  0  0  0  0  0  0  0
   13.8224    8.6106  -17.8368 H   0  0  0  0  0  0  0  0  0  0  0  0
   15.4048    8.3379  -18.5168 H   0  0  0  0  0  0  0  0  0  0  0  0
   14.3313    8.4981  -20.8524 H   0  0  0  0  0  0  0  0  0  0  0  0
   12.8464    8.9679  -20.0631 H   0  0  0  0  0  0  0  0  0  0  0  0
   14.0901   10.9723  -20.8345 H   0  0  0  0  0  0  0  0  0  0  0  0
   14.0873   10.9797  -19.0636 H   0  0  0  0  0  0  0  0  0  0  0  0
   15.8763    6.3508  -19.8903 H   0  0  0  0  0  0  0  0  0  0  0  0
   17.3036    3.4192  -21.4349 H   0  0  0  0  0  0  0  0  0  0  0  0
   16.4239    4.9190  -21.7077 H   0  0  0  0  0  0  0  0  0  0  0  0
   17.4373    4.7171  -20.2558 H   0  0  0  0  0  0  0  0  0  0  0  0
   12.6457    1.1647  -20.4199 H   0  0  0  0  0  0  0  0  0  0  0  0
   13.1445    2.6639  -21.1979 H   0  0  0  0  0  0  0  0  0  0  0  0
   14.3574    1.5285  -20.5717 H   0  0  0  0  0  0  0  0  0  0  0  0
    9.1855    2.0858  -13.7593 H   0  0  0  0  0  0  0  0  0  0  0  0
  2  1  2  0
  3  2  1  0
  4  3  1  0
  5  4  1  0
  6  5  1  0
  7  6  1  0
  8  7  1  0
  9  8  2  0
 10  8  1  0
 11 10  1  0
 12 11  1  0
 13 12  2  0
 14 13  1  0
 15 14  1  0
 16 15  1  0
 17 16  2  0
 18 17  1  0
 19 15  2  0
 19 18  1  0
 20 14  2  0
 21 11  2  0
 21 20  1  0
 22  6  1  0
 23  4  1  0
 23 22  1  0
 24 23  1  0
 25 24  1  0
 26 25  1  0
 27 26  2  0
 28 26  1  0
 29 28  1  0
 30 29  2  0
 31 30  1  0
 32 31  1  0
 33 32  1  0
 34 33  1  0
 35 30  1  0
 36 35  2  0
 37 36  1  0
 38 37  1  0
 39 28  2  0
 39 36  1  0
 40 39  1  0
 41 40  1  0
 42  1  1  0
 43  1  1  0
 44  2  1  0
 45  3  1  0
 46  3  1  0
 47  5  1  0
 48  5  1  0
  6 49  1  1
 50 10  1  0
 51 12  1  0
 52 13  1  0
 53 16  1  0
 54 17  1  0
 55 19  1  0
 56 20  1  0
 57 21  1  0
 58 22  1  0
 59 22  1  0
 23 60  1  6
 61 24  1  0
 62 24  1  0
 63 25  1  0
 64 29  1  0
 65 31  1  0
 66 31  1  0
 67 32  1  0
 68 32  1  0
 69 33  1  0
 70 33  1  0
 71 35  1  0
 72 38  1  0
 73 38  1  0
 74 38  1  0
 75 41  1  0
 76 41  1  0
 77 41  1  0
  4 78  1  1
M  CHG  1   4   1
M  END
>  <b_m_subgroup_collapsed>  (864) 
0

>  <r_i_docking_score>  (864) 
-7.2253842953858696

>  <s_m_subgroup_title>  (864) 
glide-dock_SP_D22_pv

>  <s_m_subgroupid>  (864) 
glide-dock_SP_D22_pv

>  <Molecule ChEMBL ID>  (864) 
CHEMBL5647307

>  <Standard Type>  (864) 
Ki

>  <Standard Value>  (864) 
41000.0

>  <label>  (864) 
0

$$$$
CHEMBL5722994
     RDKit          3D

 40 42  0  0  1  0  0  0  0  0999 V2000
   10.8993    4.4373  -14.0739 O   0  0  0  0  0  0  0  0  0  0  0  0
   10.0646    5.0141  -13.3752 C   0  0  0  0  0  0  0  0  0  0  0  0
   10.4288    6.1735  -12.5402 C   0  0  0  0  0  0  0  0  0  0  0  0
    9.5013    6.8234  -11.8039 C   0  0  0  0  0  0  0  0  0  0  0  0
    9.8707    7.9427  -10.8433 C   0  0  0  0  0  0  0  0  0  0  0  0
   10.7594    7.4550   -9.7785 N   0  0  0  0  0  0  0  0  0  0  0  0
   10.1200    6.5502   -8.8108 C   0  0  0  0  0  0  0  0  0  0  0  0
    9.4105    7.3115   -7.6705 C   0  0  1  0  0  0  0  0  0  0  0  0
    8.4859    6.4515   -7.0473 O   0  0  0  0  0  0  0  0  0  0  0  0
   10.3928    7.9179   -6.6715 C   0  0  0  0  0  0  0  0  0  0  0  0
   10.8352    7.1902   -5.5425 C   0  0  0  0  0  0  0  0  0  0  0  0
   11.6860    7.7954   -4.5941 C   0  0  0  0  0  0  0  0  0  0  0  0
   12.1014    9.1298   -4.7701 C   0  0  0  0  0  0  0  0  0  0  0  0
   11.6948    9.8453   -5.9115 C   0  0  0  0  0  0  0  0  0  0  0  0
   10.8518    9.2347   -6.8595 C   0  0  0  0  0  0  0  0  0  0  0  0
    8.1603    6.4733  -11.8462 N   0  0  0  0  0  0  0  0  0  0  0  0
    7.7170    5.3341  -12.5247 C   0  0  0  0  0  0  0  0  0  0  0  0
    6.3769    4.9145  -12.4223 C   0  0  0  0  0  0  0  0  0  0  0  0
    5.9559    3.7411  -13.0803 C   0  0  0  0  0  0  0  0  0  0  0  0
    6.8723    2.9942  -13.8471 C   0  0  0  0  0  0  0  0  0  0  0  0
    6.4842    1.8519  -14.4584 F   0  0  0  0  0  0  0  0  0  0  0  0
    8.2078    3.4181  -13.9650 C   0  0  0  0  0  0  0  0  0  0  0  0
    8.6387    4.5853  -13.3001 C   0  0  0  0  0  0  0  0  0  0  0  0
   11.4690    6.4639  -12.4972 H   0  0  0  0  0  0  0  0  0  0  0  0
    8.9693    8.3912  -10.4234 H   0  0  0  0  0  0  0  0  0  0  0  0
   10.3702    8.7223  -11.4153 H   0  0  0  0  0  0  0  0  0  0  0  0
   11.1591    8.2416   -9.2777 H   0  0  0  0  0  0  0  0  0  0  0  0
   10.8733    5.8886   -8.3776 H   0  0  0  0  0  0  0  0  0  0  0  0
    9.4115    5.8990   -9.3239 H   0  0  0  0  0  0  0  0  0  0  0  0
    8.8114    8.1221   -8.0882 H   0  0  0  0  0  0  0  0  0  0  0  0
    7.6176    6.6459   -7.4033 H   0  0  0  0  0  0  0  0  0  0  0  0
   10.5052    6.1745   -5.3881 H   0  0  0  0  0  0  0  0  0  0  0  0
   12.0082    7.2359   -3.7283 H   0  0  0  0  0  0  0  0  0  0  0  0
   12.7495    9.5938   -4.0412 H   0  0  0  0  0  0  0  0  0  0  0  0
   12.0290   10.8619   -6.0607 H   0  0  0  0  0  0  0  0  0  0  0  0
   10.5349    9.7723   -7.7360 H   0  0  0  0  0  0  0  0  0  0  0  0
    7.4946    6.9690  -11.2386 H   0  0  0  0  0  0  0  0  0  0  0  0
    5.6818    5.4810  -11.8198 H   0  0  0  0  0  0  0  0  0  0  0  0
    4.9329    3.4078  -12.9897 H   0  0  0  0  0  0  0  0  0  0  0  0
    8.9009    2.8282  -14.5466 H   0  0  0  0  0  0  0  0  0  0  0  0
  2  1  2  0
  3  2  1  0
  4  3  2  0
  5  4  1  0
  6  5  1  0
  7  6  1  0
  8  7  1  0
  9  8  1  0
 10  8  1  0
 11 10  2  0
 12 11  1  0
 13 12  2  0
 14 13  1  0
 15 10  1  0
 15 14  2  0
 16  4  1  0
 17 16  1  0
 18 17  2  0
 19 18  1  0
 20 19  2  0
 21 20  1  0
 22 20  1  0
 23  2  1  0
 23 17  1  0
 23 22  2  0
 24  3  1  0
 25  5  1  0
 26  5  1  0
 27  6  1  0
 28  7  1  0
 29  7  1  0
  8 30  1  6
 31  9  1  0
 32 11  1  0
 33 12  1  0
 34 13  1  0
 35 14  1  0
 36 15  1  0
 37 16  1  0
 38 18  1  0
 39 19  1  0
 40 22  1  0
M  END
>  <b_m_subgroup_collapsed>  (865) 
0

>  <r_i_docking_score>  (865) 
-7.2203659974751204

>  <s_m_subgroup_title>  (865) 
glide-dock_SP_D22_pv

>  <s_m_subgroupid>  (865) 
glide-dock_SP_D22_pv

>  <Molecule ChEMBL ID>  (865) 
CHEMBL5722994

>  <Standard Type>  (865) 
Ki

>  <Standard Value>  (865) 
10000.0

>  <label>  (865) 
0

$$$$
CHEMBL520821
     RDKit          3D

 59 63  0  0  1  0  0  0  0  0999 V2000
    6.9980    0.5249  -17.4535 C   0  0  0  0  0  0  0  0  0  0  0  0
    8.1622    0.9418  -16.5781 C   0  0  0  0  0  0  0  0  0  0  0  0
    9.4078    0.3005  -16.7219 C   0  0  0  0  0  0  0  0  0  0  0  0
   10.4849    0.6686  -15.8973 C   0  0  0  0  0  0  0  0  0  0  0  0
   10.3186    1.6742  -14.9272 C   0  0  0  0  0  0  0  0  0  0  0  0
    9.0782    2.3350  -14.7740 C   0  0  0  0  0  0  0  0  0  0  0  0
    8.9366    3.3884  -13.6665 C   0  0  2  0  0  0  0  0  0  0  0  0
    7.4751    3.8319  -13.3709 C   0  0  0  0  0  0  0  0  0  0  0  0
    7.3056    4.9585  -12.4078 N   0  0  1  0  0  0  0  0  0  0  0  0
    5.8741    5.2797  -12.2008 C   0  0  0  0  0  0  0  0  0  0  0  0
    8.0426    4.8782  -11.1204 C   0  0  0  0  0  0  0  0  0  0  0  0
    9.5764    4.8062  -11.2738 C   0  0  0  0  0  0  0  0  0  0  0  0
   10.1263    5.3732  -12.5985 C   0  0  0  0  0  0  0  0  0  0  0  0
    9.8846    4.5939  -13.7622 C   0  0  0  0  0  0  0  0  0  0  0  0
   10.5347    4.9231  -14.9666 C   0  0  0  0  0  0  0  0  0  0  0  0
   11.4597    5.9756  -14.9984 C   0  0  0  0  0  0  0  0  0  0  0  0
   12.1064    6.2616  -16.1654 O   0  0  0  0  0  0  0  0  0  0  0  0
   11.6860    6.7694  -13.8551 C   0  0  0  0  0  0  0  0  0  0  0  0
   12.6040    7.7723  -13.9754 O   0  0  0  0  0  0  0  0  0  0  0  0
   10.9604    6.5408  -12.6469 C   0  0  0  0  0  0  0  0  0  0  0  0
   11.1621    7.3727  -11.4197 C   0  0  0  0  0  0  0  0  0  0  0  0
   12.4526    7.7724  -11.0097 C   0  0  0  0  0  0  0  0  0  0  0  0
   12.7145    8.1726   -9.6901 C   0  0  0  0  0  0  0  0  0  0  0  0
   11.6616    8.3408   -8.7798 C   0  0  0  0  0  0  0  0  0  0  0  0
   11.9120    8.7516   -7.4541 C   0  0  0  0  0  0  0  0  0  0  0  0
   10.8495    8.8599   -6.5373 C   0  0  0  0  0  0  0  0  0  0  0  0
    9.5366    8.5725   -6.9545 C   0  0  0  0  0  0  0  0  0  0  0  0
    9.2859    8.2184   -8.2924 C   0  0  0  0  0  0  0  0  0  0  0  0
   10.3413    8.1017   -9.2142 C   0  0  0  0  0  0  0  0  0  0  0  0
   10.0951    7.6877  -10.5413 C   0  0  0  0  0  0  0  0  0  0  0  0
    7.9995    1.9547  -15.6102 C   0  0  0  0  0  0  0  0  0  0  0  0
    6.1652    1.2247  -17.3741 H   0  0  0  0  0  0  0  0  0  0  0  0
    6.6426   -0.4625  -17.1568 H   0  0  0  0  0  0  0  0  0  0  0  0
    7.3052    0.4792  -18.4987 H   0  0  0  0  0  0  0  0  0  0  0  0
    9.5356   -0.4799  -17.4580 H   0  0  0  0  0  0  0  0  0  0  0  0
   11.4390    0.1755  -16.0046 H   0  0  0  0  0  0  0  0  0  0  0  0
   11.1524    1.9358  -14.2914 H   0  0  0  0  0  0  0  0  0  0  0  0
    9.2855    2.7918  -12.8289 H   0  0  0  0  0  0  0  0  0  0  0  0
    7.0241    4.1948  -14.2911 H   0  0  0  0  0  0  0  0  0  0  0  0
    6.8842    2.9745  -13.0472 H   0  0  0  0  0  0  0  0  0  0  0  0
    5.3575    4.4582  -11.7026 H   0  0  0  0  0  0  0  0  0  0  0  0
    5.3742    5.4667  -13.1519 H   0  0  0  0  0  0  0  0  0  0  0  0
    5.7498    6.1724  -11.5886 H   0  0  0  0  0  0  0  0  0  0  0  0
    7.7930    5.7716  -10.5474 H   0  0  0  0  0  0  0  0  0  0  0  0
    7.6845    4.0464  -10.5180 H   0  0  0  0  0  0  0  0  0  0  0  0
   10.0538    5.2298  -10.3948 H   0  0  0  0  0  0  0  0  0  0  0  0
    9.9100    3.7763  -11.1686 H   0  0  0  0  0  0  0  0  0  0  0  0
   10.3629    4.3516  -15.8670 H   0  0  0  0  0  0  0  0  0  0  0  0
   12.5204    7.1113  -16.1351 H   0  0  0  0  0  0  0  0  0  0  0  0
   13.4674    7.4342  -14.1675 H   0  0  0  0  0  0  0  0  0  0  0  0
   13.2856    7.6994  -11.6851 H   0  0  0  0  0  0  0  0  0  0  0  0
   13.7282    8.3990   -9.3936 H   0  0  0  0  0  0  0  0  0  0  0  0
   12.9198    8.9728   -7.1336 H   0  0  0  0  0  0  0  0  0  0  0  0
   11.0425    9.1541   -5.5162 H   0  0  0  0  0  0  0  0  0  0  0  0
    8.7150    8.6344   -6.2546 H   0  0  0  0  0  0  0  0  0  0  0  0
    8.2769    8.0009   -8.6000 H   0  0  0  0  0  0  0  0  0  0  0  0
    9.0786    7.4924  -10.8437 H   0  0  0  0  0  0  0  0  0  0  0  0
    7.0277    2.4129  -15.5185 H   0  0  0  0  0  0  0  0  0  0  0  0
    7.7046    5.7663  -12.8657 H   0  0  0  0  0  0  0  0  0  0  0  0
  2  1  1  0
  3  2  1  0
  4  3  2  0
  5  4  1  0
  6  5  2  0
  7  6  1  0
  8  7  1  0
  9  8  1  0
 10  9  1  0
 11  9  1  0
 12 11  1  0
 13 12  1  0
 14  7  1  0
 14 13  2  0
 15 14  1  0
 16 15  2  0
 17 16  1  0
 18 16  1  0
 19 18  1  0
 20 13  1  0
 20 18  2  0
 21 20  1  0
 22 21  1  0
 23 22  2  0
 24 23  1  0
 25 24  2  0
 26 25  1  0
 27 26  2  0
 28 27  1  0
 29 24  1  0
 29 28  2  0
 30 21  2  0
 30 29  1  0
 31  2  2  0
 31  6  1  0
 32  1  1  0
 33  1  1  0
 34  1  1  0
 35  3  1  0
 36  4  1  0
 37  5  1  0
  7 38  1  1
 39  8  1  0
 40  8  1  0
 41 10  1  0
 42 10  1  0
 43 10  1  0
 44 11  1  0
 45 11  1  0
 46 12  1  0
 47 12  1  0
 48 15  1  0
 49 17  1  0
 50 19  1  0
 51 22  1  0
 52 23  1  0
 53 25  1  0
 54 26  1  0
 55 27  1  0
 56 28  1  0
 57 30  1  0
 58 31  1  0
  9 59  1  6
M  CHG  1   9   1
M  END
>  <b_m_subgroup_collapsed>  (866) 
0

>  <r_i_docking_score>  (866) 
-7.2200762350734404

>  <s_m_subgroup_title>  (866) 
glide-dock_SP_D22_pv

>  <s_m_subgroupid>  (866) 
glide-dock_SP_D22_pv

>  <Molecule ChEMBL ID>  (866) 
CHEMBL520821

>  <Standard Type>  (866) 
Ki

>  <Standard Value>  (866) 
29.0

>  <label>  (866) 
1

$$$$
CHEMBL2436555
     RDKit          3D

 21 22  0  0  1  0  0  0  0  0999 V2000
    9.2770    8.6995  -10.0860 N   0  0  0  0  0  0  0  0  0  0  0  0
    9.7260    8.2538   -8.9103 C   0  0  0  0  0  0  0  0  0  0  0  0
   10.8199    8.8086   -8.3484 N   0  0  0  0  0  0  0  0  0  0  0  0
   11.1004    8.5464   -6.9616 C   0  0  0  0  0  0  0  0  0  0  0  0
   11.9098    9.4223   -6.2096 C   0  0  0  0  0  0  0  0  0  0  0  0
   12.1884    9.1175   -4.8615 C   0  0  0  0  0  0  0  0  0  0  0  0
   11.6940    7.9298   -4.2866 C   0  0  0  0  0  0  0  0  0  0  0  0
   12.0854    7.5347   -2.6531 Cl  0  0  0  0  0  0  0  0  0  0  0  0
   10.8862    7.0631   -5.0469 C   0  0  0  0  0  0  0  0  0  0  0  0
   10.5396    7.3988   -6.3695 C   0  0  0  0  0  0  0  0  0  0  0  0
    9.5464    6.5567   -7.1363 C   0  0  0  0  0  0  0  0  0  0  0  0
    9.0587    7.2468   -8.3269 N   0  0  0  0  0  0  0  0  0  0  0  0
    9.7864    9.3708  -10.6372 H   0  0  0  0  0  0  0  0  0  0  0  0
    8.3513    8.3896  -10.3949 H   0  0  0  0  0  0  0  0  0  0  0  0
   12.3265   10.3167   -6.6470 H   0  0  0  0  0  0  0  0  0  0  0  0
   12.8167    9.7722   -4.2766 H   0  0  0  0  0  0  0  0  0  0  0  0
   10.4854    6.1708   -4.5902 H   0  0  0  0  0  0  0  0  0  0  0  0
   10.0247    5.6276   -7.4448 H   0  0  0  0  0  0  0  0  0  0  0  0
    8.6984    6.3010   -6.4993 H   0  0  0  0  0  0  0  0  0  0  0  0
    8.1497    6.9716   -8.6852 H   0  0  0  0  0  0  0  0  0  0  0  0
   11.2987    9.5486   -8.8414 H   0  0  0  0  0  0  0  0  0  0  0  0
  2  1  1  0
  3  2  2  0
  4  3  1  0
  5  4  1  0
  6  5  2  0
  7  6  1  0
  8  7  1  0
  9  7  2  0
 10  4  2  0
 10  9  1  0
 11 10  1  0
 12  2  1  0
 12 11  1  0
 13  1  1  0
 14  1  1  0
 15  5  1  0
 16  6  1  0
 17  9  1  0
 18 11  1  0
 19 11  1  0
 20 12  1  0
 21  3  1  0
M  CHG  1   3   1
M  END
>  <b_m_subgroup_collapsed>  (867) 
0

>  <r_i_docking_score>  (867) 
-7.2187531309115203

>  <s_m_subgroup_title>  (867) 
glide-dock_SP_D22_pv

>  <s_m_subgroupid>  (867) 
glide-dock_SP_D22_pv

>  <Molecule ChEMBL ID>  (867) 
CHEMBL2436555

>  <Standard Type>  (867) 
Ki

>  <Standard Value>  (867) 
10000.0

>  <label>  (867) 
0

$$$$
CHEMBL5898142
     RDKit          3D

 60 63  0  0  1  0  0  0  0  0999 V2000
   13.6643    8.0630  -16.8335 C   0  0  0  0  0  0  0  0  0  0  0  0
   13.0606    7.0309  -15.9049 C   0  0  0  0  0  0  0  0  0  0  0  0
   13.0653    5.6715  -16.2727 C   0  0  0  0  0  0  0  0  0  0  0  0
   12.4741    4.7149  -15.4292 C   0  0  0  0  0  0  0  0  0  0  0  0
   11.8585    5.1164  -14.2282 C   0  0  0  0  0  0  0  0  0  0  0  0
   11.8494    6.4798  -13.8430 C   0  0  0  0  0  0  0  0  0  0  0  0
   12.4771    7.4238  -14.6824 C   0  0  0  0  0  0  0  0  0  0  0  0
   11.2834    6.9433  -12.6461 N   0  0  0  0  0  0  0  0  0  0  0  0
   10.1915    6.5060  -12.1296 C   0  0  0  0  0  0  0  0  0  0  0  0
    9.7266    7.1181  -10.7886 C   0  0  1  0  0  0  0  0  0  0  0  0
    9.5623    6.0788   -9.6487 C   0  0  0  0  0  0  0  0  0  0  0  0
    9.1784    6.7342   -8.2969 C   0  0  0  0  0  0  0  0  0  0  0  0
   10.1139    7.8361   -7.9422 N   0  0  2  0  0  0  0  0  0  0  0  0
    9.9268    8.4194   -6.5875 C   0  0  0  0  0  0  0  0  0  0  0  0
   11.2725    8.5419   -5.8052 C   0  0  0  0  0  0  0  0  0  0  0  0
   11.6689    7.1279   -5.3068 C   0  0  0  0  0  0  0  0  0  0  0  0
   12.3944    9.1884   -6.6504 C   0  0  0  0  0  0  0  0  0  0  0  0
   11.1227    9.5124   -4.6083 C   0  0  0  0  0  0  0  0  0  0  0  0
   10.4860   10.5694   -4.8047 O   0  0  0  0  0  0  0  0  0  0  0  0
   11.6626    9.2064   -3.5218 O   0  0  0  0  0  0  0  0  0  0  0  0
   10.1377    8.8647   -9.0084 C   0  0  0  0  0  0  0  0  0  0  0  0
   10.6617    8.2389  -10.2931 C   0  0  0  0  0  0  0  0  0  0  0  0
    9.3278    5.4253  -12.7018 C   0  0  0  0  0  0  0  0  0  0  0  0
    7.9163    5.5089  -12.6328 C   0  0  0  0  0  0  0  0  0  0  0  0
    7.1033    4.5033  -13.1932 C   0  0  0  0  0  0  0  0  0  0  0  0
    5.6003    4.6162  -13.0891 C   0  0  0  0  0  0  0  0  0  0  0  0
    7.6911    3.4024  -13.8463 C   0  0  0  0  0  0  0  0  0  0  0  0
    9.0904    3.2976  -13.9072 C   0  0  0  0  0  0  0  0  0  0  0  0
    9.9021    4.3007  -13.3433 C   0  0  0  0  0  0  0  0  0  0  0  0
   11.2575    4.1728  -13.4477 O   0  0  0  0  0  0  0  0  0  0  0  0
   13.6846    9.0497  -16.3698 H   0  0  0  0  0  0  0  0  0  0  0  0
   14.6841    7.7876  -17.1044 H   0  0  0  0  0  0  0  0  0  0  0  0
   13.0733    8.1354  -17.7486 H   0  0  0  0  0  0  0  0  0  0  0  0
   13.5179    5.3628  -17.2035 H   0  0  0  0  0  0  0  0  0  0  0  0
   12.4769    3.6721  -15.7119 H   0  0  0  0  0  0  0  0  0  0  0  0
   12.4826    8.4656  -14.3981 H   0  0  0  0  0  0  0  0  0  0  0  0
    8.7580    7.5859  -10.9655 H   0  0  0  0  0  0  0  0  0  0  0  0
    8.7988    5.3456   -9.9096 H   0  0  0  0  0  0  0  0  0  0  0  0
   10.4869    5.5169   -9.5214 H   0  0  0  0  0  0  0  0  0  0  0  0
    9.1862    5.9783   -7.5114 H   0  0  0  0  0  0  0  0  0  0  0  0
    8.1631    7.1211   -8.3478 H   0  0  0  0  0  0  0  0  0  0  0  0
    9.4183    9.3722   -6.6938 H   0  0  0  0  0  0  0  0  0  0  0  0
    9.2366    7.8018   -6.0108 H   0  0  0  0  0  0  0  0  0  0  0  0
   11.9087    6.4600   -6.1345 H   0  0  0  0  0  0  0  0  0  0  0  0
   12.5327    7.1493   -4.6454 H   0  0  0  0  0  0  0  0  0  0  0  0
   10.8616    6.6621   -4.7406 H   0  0  0  0  0  0  0  0  0  0  0  0
   12.6981    8.5722   -7.4956 H   0  0  0  0  0  0  0  0  0  0  0  0
   12.0853   10.1609   -7.0306 H   0  0  0  0  0  0  0  0  0  0  0  0
   13.2860    9.3720   -6.0472 H   0  0  0  0  0  0  0  0  0  0  0  0
   10.7866    9.6959   -8.7429 H   0  0  0  0  0  0  0  0  0  0  0  0
    9.1380    9.2809   -9.1554 H   0  0  0  0  0  0  0  0  0  0  0  0
   11.6723    7.8575  -10.1303 H   0  0  0  0  0  0  0  0  0  0  0  0
   10.7477    9.0085  -11.0477 H   0  0  0  0  0  0  0  0  0  0  0  0
    7.4316    6.3487  -12.1527 H   0  0  0  0  0  0  0  0  0  0  0  0
    5.0985    3.9425  -13.7846 H   0  0  0  0  0  0  0  0  0  0  0  0
    5.2790    4.3731  -12.0759 H   0  0  0  0  0  0  0  0  0  0  0  0
    5.2874    5.6347  -13.3161 H   0  0  0  0  0  0  0  0  0  0  0  0
    7.0751    2.6292  -14.2783 H   0  0  0  0  0  0  0  0  0  0  0  0
    9.5473    2.4491  -14.3942 H   0  0  0  0  0  0  0  0  0  0  0  0
   11.0334    7.4200   -7.9178 H   0  0  0  0  0  0  0  0  0  0  0  0
  2  1  1  0
  3  2  1  0
  4  3  2  0
  5  4  1  0
  6  5  2  0
  7  2  2  0
  7  6  1  0
  8  6  1  0
  9  8  2  0
 10  9  1  0
 11 10  1  0
 12 11  1  0
 13 12  1  0
 14 13  1  0
 15 14  1  0
 16 15  1  0
 17 15  1  0
 18 15  1  0
 19 18  2  0
 20 18  1  0
 21 13  1  0
 22 10  1  0
 22 21  1  0
 23  9  1  0
 24 23  1  0
 25 24  2  0
 26 25  1  0
 27 25  1  0
 28 27  2  0
 29 23  2  0
 29 28  1  0
 30  5  1  0
 30 29  1  0
 31  1  1  0
 32  1  1  0
 33  1  1  0
 34  3  1  0
 35  4  1  0
 36  7  1  0
 10 37  1  6
 38 11  1  0
 39 11  1  0
 40 12  1  0
 41 12  1  0
 42 14  1  0
 43 14  1  0
 44 16  1  0
 45 16  1  0
 46 16  1  0
 47 17  1  0
 48 17  1  0
 49 17  1  0
 50 21  1  0
 51 21  1  0
 52 22  1  0
 53 22  1  0
 54 24  1  0
 55 26  1  0
 56 26  1  0
 57 26  1  0
 58 27  1  0
 59 28  1  0
 13 60  1  1
M  CHG  2  13   1  20  -1
M  END
>  <b_m_subgroup_collapsed>  (868) 
0

>  <r_i_docking_score>  (868) 
-7.2170332931027597

>  <s_m_subgroup_title>  (868) 
glide-dock_SP_D22_pv

>  <s_m_subgroupid>  (868) 
glide-dock_SP_D22_pv

>  <Molecule ChEMBL ID>  (868) 
CHEMBL5898142

>  <Standard Type>  (868) 
Ki

>  <Standard Value>  (868) 
60.0

>  <label>  (868) 
1

$$$$
CHEMBL3115576
     RDKit          3D

 40 42  0  0  1  0  0  0  0  0999 V2000
   11.6860   10.1723   -3.0468 O   0  0  0  0  0  0  0  0  0  0  0  0
   11.5624    9.2655   -4.0448 C   0  0  0  0  0  0  0  0  0  0  0  0
   11.8109    7.9141   -3.7538 C   0  0  0  0  0  0  0  0  0  0  0  0
   11.6087    6.9433   -4.7449 C   0  0  0  0  0  0  0  0  0  0  0  0
   11.1755    7.3300   -6.0277 C   0  0  0  0  0  0  0  0  0  0  0  0
   10.9380    8.6959   -6.3299 C   0  0  0  0  0  0  0  0  0  0  0  0
   11.1481    9.6641   -5.3301 C   0  0  0  0  0  0  0  0  0  0  0  0
   10.5192    9.1148   -7.5762 O   0  0  0  0  0  0  0  0  0  0  0  0
    9.9490    8.1149   -8.4155 C   0  0  1  0  0  0  0  0  0  0  0  0
    9.7042    8.6699   -9.8235 C   0  0  0  0  0  0  0  0  0  0  0  0
    8.8860    7.6927  -10.5622 N   0  0  0  0  0  0  0  0  0  0  0  0
    8.8242    7.8135  -12.0219 C   0  0  0  0  0  0  0  0  0  0  0  0
    8.7120    6.4081  -12.5877 C   0  0  0  0  0  0  0  0  0  0  0  0
    7.4482    5.7798  -12.6141 C   0  0  0  0  0  0  0  0  0  0  0  0
    7.3171    4.4654  -13.0990 C   0  0  0  0  0  0  0  0  0  0  0  0
    8.4505    3.7723  -13.5628 C   0  0  0  0  0  0  0  0  0  0  0  0
    9.7147    4.3902  -13.5340 C   0  0  0  0  0  0  0  0  0  0  0  0
    9.8529    5.7046  -13.0469 C   0  0  0  0  0  0  0  0  0  0  0  0
   11.7621    6.5723  -13.0469 I   0  0  0  0  0  0  0  0  0  0  0  0
   10.8859    6.8989   -8.4701 C   0  0  0  0  0  0  0  0  0  0  0  0
   10.9706    6.2730   -7.0856 C   0  0  0  0  0  0  0  0  0  0  0  0
   11.4781   11.0691   -3.2716 H   0  0  0  0  0  0  0  0  0  0  0  0
   12.1273    7.6192   -2.7638 H   0  0  0  0  0  0  0  0  0  0  0  0
   11.7816    5.9012   -4.5184 H   0  0  0  0  0  0  0  0  0  0  0  0
   10.9620   10.7057   -5.5471 H   0  0  0  0  0  0  0  0  0  0  0  0
    8.9883    7.8286   -7.9803 H   0  0  0  0  0  0  0  0  0  0  0  0
    9.1680    9.6178   -9.7838 H   0  0  0  0  0  0  0  0  0  0  0  0
   10.6548    8.8484  -10.3287 H   0  0  0  0  0  0  0  0  0  0  0  0
    9.2068    6.7605  -10.3485 H   0  0  0  0  0  0  0  0  0  0  0  0
    7.9469    8.4026  -12.2934 H   0  0  0  0  0  0  0  0  0  0  0  0
    9.6860    8.3478  -12.4169 H   0  0  0  0  0  0  0  0  0  0  0  0
    6.5743    6.3018  -12.2477 H   0  0  0  0  0  0  0  0  0  0  0  0
    6.3477    3.9884  -13.1117 H   0  0  0  0  0  0  0  0  0  0  0  0
    8.3526    2.7620  -13.9328 H   0  0  0  0  0  0  0  0  0  0  0  0
   10.5822    3.8520  -13.8873 H   0  0  0  0  0  0  0  0  0  0  0  0
   10.5574    6.1456   -9.1861 H   0  0  0  0  0  0  0  0  0  0  0  0
   11.8701    7.2395   -8.7932 H   0  0  0  0  0  0  0  0  0  0  0  0
   11.7648    5.5275   -7.0461 H   0  0  0  0  0  0  0  0  0  0  0  0
   10.0297    5.7723   -6.8621 H   0  0  0  0  0  0  0  0  0  0  0  0
    7.9023    7.7719  -10.2469 H   0  0  0  0  0  0  0  0  0  0  0  0
  2  1  1  0
  3  2  1  0
  4  3  2  0
  5  4  1  0
  6  5  2  0
  7  2  2  0
  7  6  1  0
  8  6  1  0
  9  8  1  0
 10  9  1  0
 11 10  1  0
 12 11  1  0
 13 12  1  0
 14 13  2  0
 15 14  1  0
 16 15  2  0
 17 16  1  0
 18 13  1  0
 18 17  2  0
 19 18  1  0
 20  9  1  0
 21  5  1  0
 21 20  1  0
 22  1  1  0
 23  3  1  0
 24  4  1  0
 25  7  1  0
  9 26  1  1
 27 10  1  0
 28 10  1  0
 29 11  1  0
 30 12  1  0
 31 12  1  0
 32 14  1  0
 33 15  1  0
 34 16  1  0
 35 17  1  0
 36 20  1  0
 37 20  1  0
 38 21  1  0
 39 21  1  0
 40 11  1  0
M  CHG  1  11   1
M  END
>  <b_m_subgroup_collapsed>  (869) 
0

>  <r_i_docking_score>  (869) 
-7.2155666716059796

>  <s_m_subgroup_title>  (869) 
glide-dock_SP_D22_pv

>  <s_m_subgroupid>  (869) 
glide-dock_SP_D22_pv

>  <Molecule ChEMBL ID>  (869) 
CHEMBL3115576

>  <Standard Type>  (869) 
Ki

>  <Standard Value>  (869) 
0.1622

>  <label>  (869) 
1

$$$$
CHEMBL3895173
     RDKit          3D

 46 49  0  0  1  0  0  0  0  0999 V2000
    9.0643    2.1578  -14.1239 C   0  0  0  0  0  0  0  0  0  0  0  0
    9.6862    3.0771  -13.1509 N   0  0  0  0  0  0  0  0  0  0  0  0
    9.4840    4.5012  -13.4708 C   0  0  1  0  0  0  0  0  0  0  0  0
    9.9325    5.4388  -12.3821 C   0  0  0  0  0  0  0  0  0  0  0  0
   10.9646    6.0104  -13.1831 C   0  0  0  0  0  0  0  0  0  0  0  0
   11.7929    7.0472  -12.7516 C   0  0  0  0  0  0  0  0  0  0  0  0
   11.5107    7.5260  -11.4426 C   0  0  0  0  0  0  0  0  0  0  0  0
   10.4543    6.9724  -10.6444 C   0  0  0  0  0  0  0  0  0  0  0  0
    9.6858    5.9165  -11.1099 C   0  0  0  0  0  0  0  0  0  0  0  0
    8.7306    5.4864  -10.1759 C   0  0  0  0  0  0  0  0  0  0  0  0
    8.8861    6.3676   -9.1298 C   0  0  0  0  0  0  0  0  0  0  0  0
    9.9016    7.2881   -9.4057 N   0  0  0  0  0  0  0  0  0  0  0  0
   10.2164    8.7097   -8.4645 S   0  0  0  0  0  0  0  0  0  0  0  0
   11.2855    9.4291   -9.1699 O   0  0  0  0  0  0  0  0  0  0  0  0
    8.9047    9.3414   -8.2484 O   0  0  0  0  0  0  0  0  0  0  0  0
   10.8627    8.2791   -6.8568 C   0  0  0  0  0  0  0  0  0  0  0  0
   10.8179    6.9750   -6.3299 C   0  0  0  0  0  0  0  0  0  0  0  0
   11.2862    6.7565   -5.0184 C   0  0  0  0  0  0  0  0  0  0  0  0
   11.7970    7.8183   -4.2463 C   0  0  0  0  0  0  0  0  0  0  0  0
   11.8418    9.1178   -4.7816 C   0  0  0  0  0  0  0  0  0  0  0  0
   11.3761    9.3465   -6.0888 C   0  0  0  0  0  0  0  0  0  0  0  0
   10.6653    5.1354  -14.3782 C   0  0  1  0  0  0  0  0  0  0  0  0
   11.8764    4.3056  -14.8357 C   0  0  0  0  0  0  0  0  0  0  0  0
   12.7377    4.9764  -15.9215 C   0  0  0  0  0  0  0  0  0  0  0  0
   13.4013    6.1275  -15.4464 O   0  0  0  0  0  0  0  0  0  0  0  0
    9.2739    1.1236  -13.8490 H   0  0  0  0  0  0  0  0  0  0  0  0
    9.4460    2.3259  -15.1299 H   0  0  0  0  0  0  0  0  0  0  0  0
    7.9817    2.2901  -14.1407 H   0  0  0  0  0  0  0  0  0  0  0  0
    9.2859    2.8805  -12.2441 H   0  0  0  0  0  0  0  0  0  0  0  0
    8.4753    4.7529  -13.8045 H   0  0  0  0  0  0  0  0  0  0  0  0
   12.5680    7.4748  -13.3701 H   0  0  0  0  0  0  0  0  0  0  0  0
   12.1097    8.3429  -11.0724 H   0  0  0  0  0  0  0  0  0  0  0  0
    8.0233    4.6862  -10.3339 H   0  0  0  0  0  0  0  0  0  0  0  0
    8.2849    6.4681   -8.2357 H   0  0  0  0  0  0  0  0  0  0  0  0
   10.4170    6.1526   -6.9027 H   0  0  0  0  0  0  0  0  0  0  0  0
   11.2470    5.7722   -4.5879 H   0  0  0  0  0  0  0  0  0  0  0  0
   12.1514    7.6355   -3.2410 H   0  0  0  0  0  0  0  0  0  0  0  0
   12.2274    9.9354   -4.1896 H   0  0  0  0  0  0  0  0  0  0  0  0
   11.3980   10.3462   -6.4986 H   0  0  0  0  0  0  0  0  0  0  0  0
   10.2451    5.7534  -15.1745 H   0  0  0  0  0  0  0  0  0  0  0  0
   12.4926    4.0089  -13.9857 H   0  0  0  0  0  0  0  0  0  0  0  0
   11.5233    3.3752  -15.2786 H   0  0  0  0  0  0  0  0  0  0  0  0
   13.4909    4.2764  -16.2837 H   0  0  0  0  0  0  0  0  0  0  0  0
   12.1239    5.2513  -16.7791 H   0  0  0  0  0  0  0  0  0  0  0  0
   13.9546    5.8962  -14.7124 H   0  0  0  0  0  0  0  0  0  0  0  0
   10.6744    2.8855  -13.0919 H   0  0  0  0  0  0  0  0  0  0  0  0
  2  1  1  0
  3  2  1  0
  4  3  1  0
  5  4  1  0
  6  5  2  0
  7  6  1  0
  8  7  2  0
  9  4  2  0
  9  8  1  0
 10  9  1  0
 11 10  2  0
 12  8  1  0
 12 11  1  0
 13 12  1  0
 14 13  2  0
 15 13  2  0
 16 13  1  0
 17 16  2  0
 18 17  1  0
 19 18  2  0
 20 19  1  0
 21 16  1  0
 21 20  2  0
 22  3  1  0
 22  5  1  0
 23 22  1  0
 24 23  1  0
 25 24  1  0
 26  1  1  0
 27  1  1  0
 28  1  1  0
 29  2  1  0
  3 30  1  6
 31  6  1  0
 32  7  1  0
 33 10  1  0
 34 11  1  0
 35 17  1  0
 36 18  1  0
 37 19  1  0
 38 20  1  0
 39 21  1  0
 22 40  1  6
 41 23  1  0
 42 23  1  0
 43 24  1  0
 44 24  1  0
 45 25  1  0
 46  2  1  0
M  CHG  1   2   1
M  END
>  <b_m_subgroup_collapsed>  (870) 
0

>  <r_i_docking_score>  (870) 
-7.2132019208119003

>  <s_m_subgroup_title>  (870) 
glide-dock_SP_D22_pv

>  <s_m_subgroupid>  (870) 
glide-dock_SP_D22_pv

>  <Molecule ChEMBL ID>  (870) 
CHEMBL3895173

>  <Standard Type>  (870) 
Ki

>  <Standard Value>  (870) 
10000.0

>  <label>  (870) 
0

$$$$
CHEMBL3182733
     RDKit          3D

 32 33  0  0  1  0  0  0  0  0999 V2000
    9.2570    7.9562  -12.0947 C   0  0  0  0  0  0  0  0  0  0  0  0
    9.2857    8.0705  -10.5686 C   0  0  0  0  0  0  0  0  0  0  0  0
    9.1207    6.7060   -9.8695 C   0  0  0  0  0  0  0  0  0  0  0  0
    8.8860    6.8113   -8.4100 N   0  0  0  0  0  0  0  0  0  0  0  0
    9.9573    7.4702   -7.6220 C   0  0  1  0  0  0  0  0  0  0  0  0
    9.6210    8.9494   -7.3144 C   0  0  0  0  0  0  0  0  0  0  0  0
   10.7823    9.6619   -6.5842 C   0  0  0  0  0  0  0  0  0  0  0  0
   11.2483    8.8385   -5.4296 C   0  0  0  0  0  0  0  0  0  0  0  0
   11.8683    9.4018   -4.3138 N   0  0  0  0  0  0  0  0  0  0  0  0
   12.1174    8.4891   -3.3770 C   0  0  0  0  0  0  0  0  0  0  0  0
   12.6599    8.7727   -2.1388 N   0  0  0  0  0  0  0  0  0  0  0  0
   11.6861    6.8518   -3.8459 S   0  0  0  0  0  0  0  0  0  0  0  0
   11.0388    7.4892   -5.3346 C   0  0  0  0  0  0  0  0  0  0  0  0
   10.2660    6.6791   -6.3271 C   0  0  0  0  0  0  0  0  0  0  0  0
    9.2926    8.9426  -12.5586 H   0  0  0  0  0  0  0  0  0  0  0  0
   10.1018    7.3742  -12.4639 H   0  0  0  0  0  0  0  0  0  0  0  0
    8.3388    7.4738  -12.4325 H   0  0  0  0  0  0  0  0  0  0  0  0
    8.4863    8.7457  -10.2644 H   0  0  0  0  0  0  0  0  0  0  0  0
   10.2204    8.5443  -10.2680 H   0  0  0  0  0  0  0  0  0  0  0  0
    9.9945    6.0796  -10.0541 H   0  0  0  0  0  0  0  0  0  0  0  0
    8.2656    6.1758  -10.2927 H   0  0  0  0  0  0  0  0  0  0  0  0
    8.7832    5.8674   -8.0681 H   0  0  0  0  0  0  0  0  0  0  0  0
   10.8754    7.4614   -8.2126 H   0  0  0  0  0  0  0  0  0  0  0  0
    9.3656    9.4962   -8.2192 H   0  0  0  0  0  0  0  0  0  0  0  0
    8.7295    8.9723   -6.6853 H   0  0  0  0  0  0  0  0  0  0  0  0
   10.4863   10.6551   -6.2482 H   0  0  0  0  0  0  0  0  0  0  0  0
   11.6094    9.8060   -7.2794 H   0  0  0  0  0  0  0  0  0  0  0  0
   12.8552    9.7294   -1.8694 H   0  0  0  0  0  0  0  0  0  0  0  0
   12.6495    8.0871   -1.4005 H   0  0  0  0  0  0  0  0  0  0  0  0
   10.8164    5.7723   -6.5748 H   0  0  0  0  0  0  0  0  0  0  0  0
    9.3332    6.3672   -5.8555 H   0  0  0  0  0  0  0  0  0  0  0  0
    7.9886    7.2716   -8.2595 H   0  0  0  0  0  0  0  0  0  0  0  0
  2  1  1  0
  3  2  1  0
  4  3  1  0
  5  4  1  0
  6  5  1  0
  7  6  1  0
  8  7  1  0
  9  8  1  0
 10  9  2  0
 11 10  1  0
 12 10  1  0
 13  8  2  0
 13 12  1  0
 14  5  1  0
 14 13  1  0
 15  1  1  0
 16  1  1  0
 17  1  1  0
 18  2  1  0
 19  2  1  0
 20  3  1  0
 21  3  1  0
 22  4  1  0
  5 23  1  6
 24  6  1  0
 25  6  1  0
 26  7  1  0
 27  7  1  0
 28 11  1  0
 29 11  1  0
 30 14  1  0
 31 14  1  0
 32  4  1  0
M  CHG  1   4   1
M  END
>  <b_m_subgroup_collapsed>  (871) 
0

>  <r_i_docking_score>  (871) 
-7.2128093094821901

>  <s_m_subgroup_title>  (871) 
glide-dock_SP_D22_pv

>  <s_m_subgroupid>  (871) 
glide-dock_SP_D22_pv

>  <Molecule ChEMBL ID>  (871) 
CHEMBL3182733

>  <Standard Type>  (871) 
Ki

>  <Standard Value>  (871) 
3.9

>  <label>  (871) 
1

$$$$
CHEMBL573791
     RDKit          3D

 58 61  0  0  1  0  0  0  0  0999 V2000
    9.5791   -0.4412  -15.8691 C   0  0  0  0  0  0  0  0  0  0  0  0
   10.2213    0.8056  -15.6679 O   0  0  0  0  0  0  0  0  0  0  0  0
   11.0715    1.2754  -16.6478 C   0  0  0  0  0  0  0  0  0  0  0  0
   11.4406    0.5025  -17.7798 C   0  0  0  0  0  0  0  0  0  0  0  0
   12.2896    1.0317  -18.7684 C   0  0  0  0  0  0  0  0  0  0  0  0
   12.7767    2.3432  -18.6465 C   0  0  0  0  0  0  0  0  0  0  0  0
   12.4185    3.1196  -17.5303 C   0  0  0  0  0  0  0  0  0  0  0  0
   11.5805    2.5957  -16.5221 C   0  0  0  0  0  0  0  0  0  0  0  0
   11.2761    3.4215  -15.4251 N   0  0  0  0  0  0  0  0  0  0  0  0
   11.2935    2.9495  -14.0469 C   0  0  0  0  0  0  0  0  0  0  0  0
    9.8913    3.0275  -13.4096 C   0  0  0  0  0  0  0  0  0  0  0  0
    9.3616    4.3834  -13.5459 N   0  0  0  0  0  0  0  0  0  0  0  0
    8.0978    4.5224  -12.8262 C   0  0  0  0  0  0  0  0  0  0  0  0
    7.7443    6.0020  -12.5639 C   0  0  0  0  0  0  0  0  0  0  0  0
    8.4860    6.5767  -11.4472 N   0  0  0  0  0  0  0  0  0  0  0  0
    9.7538    7.0130  -11.4808 C   0  0  0  0  0  0  0  0  0  0  0  0
   10.4859    6.9222  -12.4649 O   0  0  0  0  0  0  0  0  0  0  0  0
   10.2211    7.6842  -10.2424 C   0  0  0  0  0  0  0  0  0  0  0  0
    9.8758    7.4018   -8.9491 C   0  0  0  0  0  0  0  0  0  0  0  0
   10.7337    8.1965   -8.2085 N   0  0  0  0  0  0  0  0  0  0  0  0
   10.9626    8.1929   -6.8163 C   0  0  0  0  0  0  0  0  0  0  0  0
   10.8871    6.9720   -6.1202 C   0  0  0  0  0  0  0  0  0  0  0  0
   11.2860    6.8974   -4.7752 C   0  0  0  0  0  0  0  0  0  0  0  0
   11.7437    8.0463   -4.0950 C   0  0  0  0  0  0  0  0  0  0  0  0
   12.2308    7.9409   -2.7082 N   0  0  0  0  0  0  0  0  0  0  0  0
   12.3947    6.8174   -2.2467 O   0  0  0  0  0  0  0  0  0  0  0  0
   12.4736    8.9725   -2.0922 O   0  0  0  0  0  0  0  0  0  0  0  0
   11.7524    9.2835   -4.7767 C   0  0  0  0  0  0  0  0  0  0  0  0
   11.3723    9.3590   -6.1316 C   0  0  0  0  0  0  0  0  0  0  0  0
   11.5021    8.9667   -9.0135 N   0  0  0  0  0  0  0  0  0  0  0  0
   11.2251    8.6482  -10.2332 N   0  0  0  0  0  0  0  0  0  0  0  0
    9.2252    4.6763  -14.9753 C   0  0  0  0  0  0  0  0  0  0  0  0
   10.6148    4.7001  -15.6391 C   0  0  0  0  0  0  0  0  0  0  0  0
    8.8884   -0.6257  -15.0474 H   0  0  0  0  0  0  0  0  0  0  0  0
    8.9990   -0.4515  -16.7932 H   0  0  0  0  0  0  0  0  0  0  0  0
   10.2975   -1.2598  -15.8820 H   0  0  0  0  0  0  0  0  0  0  0  0
   11.0860   -0.5070  -17.9154 H   0  0  0  0  0  0  0  0  0  0  0  0
   12.5644    0.4305  -19.6226 H   0  0  0  0  0  0  0  0  0  0  0  0
   13.4272    2.7540  -19.4047 H   0  0  0  0  0  0  0  0  0  0  0  0
   12.8080    4.1228  -17.4376 H   0  0  0  0  0  0  0  0  0  0  0  0
   11.6854    1.9355  -13.9816 H   0  0  0  0  0  0  0  0  0  0  0  0
   11.9802    3.5897  -13.4919 H   0  0  0  0  0  0  0  0  0  0  0  0
    9.2114    2.3013  -13.8562 H   0  0  0  0  0  0  0  0  0  0  0  0
    9.9699    2.7921  -12.3496 H   0  0  0  0  0  0  0  0  0  0  0  0
    7.3019    4.0345  -13.3909 H   0  0  0  0  0  0  0  0  0  0  0  0
    8.1556    4.0086  -11.8656 H   0  0  0  0  0  0  0  0  0  0  0  0
    7.8559    6.6293  -13.4463 H   0  0  0  0  0  0  0  0  0  0  0  0
    6.6900    6.0637  -12.2923 H   0  0  0  0  0  0  0  0  0  0  0  0
    7.9148    6.8531  -10.6497 H   0  0  0  0  0  0  0  0  0  0  0  0
    9.1733    6.7001   -8.5215 H   0  0  0  0  0  0  0  0  0  0  0  0
   10.5830    6.0695   -6.6295 H   0  0  0  0  0  0  0  0  0  0  0  0
   11.2573    5.9387   -4.2777 H   0  0  0  0  0  0  0  0  0  0  0  0
   12.0932   10.1713   -4.2706 H   0  0  0  0  0  0  0  0  0  0  0  0
   11.4343   10.3063   -6.6476 H   0  0  0  0  0  0  0  0  0  0  0  0
    8.5952    3.9211  -15.4465 H   0  0  0  0  0  0  0  0  0  0  0  0
    8.7440    5.6393  -15.1204 H   0  0  0  0  0  0  0  0  0  0  0  0
   11.2248    5.4954  -15.2093 H   0  0  0  0  0  0  0  0  0  0  0  0
   10.5138    4.9140  -16.7035 H   0  0  0  0  0  0  0  0  0  0  0  0
  2  1  1  0
  3  2  1  0
  4  3  2  0
  5  4  1  0
  6  5  2  0
  7  6  1  0
  8  3  1  0
  8  7  2  0
  9  8  1  0
 10  9  1  0
 11 10  1  0
 12 11  1  0
 13 12  1  0
 14 13  1  0
 15 14  1  0
 16 15  1  0
 17 16  2  0
 18 16  1  0
 19 18  2  0
 20 19  1  0
 21 20  1  0
 22 21  1  0
 23 22  2  0
 24 23  1  0
 25 24  1  0
 26 25  2  0
 27 25  1  0
 28 24  2  0
 29 21  2  0
 29 28  1  0
 30 20  1  0
 31 18  1  0
 31 30  2  0
 32 12  1  0
 33  9  1  0
 33 32  1  0
 34  1  1  0
 35  1  1  0
 36  1  1  0
 37  4  1  0
 38  5  1  0
 39  6  1  0
 40  7  1  0
 41 10  1  0
 42 10  1  0
 43 11  1  0
 44 11  1  0
 45 13  1  0
 46 13  1  0
 47 14  1  0
 48 14  1  0
 49 15  1  0
 50 19  1  0
 51 22  1  0
 52 23  1  0
 53 28  1  0
 54 29  1  0
 55 32  1  0
 56 32  1  0
 57 33  1  0
 58 33  1  0
M  CHG  2  25   1  27  -1
M  END
>  <b_m_subgroup_collapsed>  (872) 
0

>  <r_i_docking_score>  (872) 
-7.21235724816942

>  <s_m_subgroup_title>  (872) 
glide-dock_SP_D22_pv

>  <s_m_subgroupid>  (872) 
glide-dock_SP_D22_pv

>  <Molecule ChEMBL ID>  (872) 
CHEMBL573791

>  <Standard Type>  (872) 
Ki

>  <Standard Value>  (872) 
6.5

>  <label>  (872) 
1

$$$$
CHEMBL187420
     RDKit          3D

 46 48  0  0  1  0  0  0  0  0999 V2000
   12.4553    8.1678   -2.8924 C   0  0  0  0  0  0  0  0  0  0  0  0
   12.0842    6.9413   -3.4733 C   0  0  0  0  0  0  0  0  0  0  0  0
   11.3032    6.9216   -4.6476 C   0  0  0  0  0  0  0  0  0  0  0  0
   10.8863    8.1270   -5.2488 C   0  0  0  0  0  0  0  0  0  0  0  0
   10.0125    8.0877   -6.4997 C   0  0  0  0  0  0  0  0  0  0  0  0
   10.8046    8.0062   -7.8026 C   0  0  0  0  0  0  0  0  0  0  0  0
   12.0981    8.5722   -7.8425 C   0  0  0  0  0  0  0  0  0  0  0  0
   12.8778    8.5095   -8.9996 C   0  0  0  0  0  0  0  0  0  0  0  0
   12.3530    7.9436  -10.1679 C   0  0  0  0  0  0  0  0  0  0  0  0
   11.0719    7.3757  -10.1465 C   0  0  0  0  0  0  0  0  0  0  0  0
   10.2844    7.3839   -8.9728 C   0  0  0  0  0  0  0  0  0  0  0  0
    8.9934    6.8336   -8.9730 N   0  0  0  0  0  0  0  0  0  0  0  0
    8.6080    5.6513   -9.7370 C   0  0  0  0  0  0  0  0  0  0  0  0
    8.3597    5.8886  -11.2424 C   0  0  0  0  0  0  0  0  0  0  0  0
    7.3597    4.9348  -11.7823 N   0  0  0  0  0  0  0  0  0  0  0  0
    6.0754    5.5338  -12.1978 C   0  0  0  0  0  0  0  0  0  0  0  0
    5.4273    4.5095  -13.1426 C   0  0  0  0  0  0  0  0  0  0  0  0
    6.5409    3.5267  -13.5208 C   0  0  0  0  0  0  0  0  0  0  0  0
    7.8154    4.1305  -12.9333 C   0  0  0  0  0  0  0  0  0  0  0  0
   11.2849    9.3569   -4.6731 C   0  0  0  0  0  0  0  0  0  0  0  0
   12.0583    9.3729   -3.4963 C   0  0  0  0  0  0  0  0  0  0  0  0
   13.0389    8.1879   -1.9845 H   0  0  0  0  0  0  0  0  0  0  0  0
   12.3903    6.0136   -3.0135 H   0  0  0  0  0  0  0  0  0  0  0  0
   11.0167    5.9735   -5.0769 H   0  0  0  0  0  0  0  0  0  0  0  0
    9.3385    7.2343   -6.4095 H   0  0  0  0  0  0  0  0  0  0  0  0
    9.3773    8.9725   -6.5326 H   0  0  0  0  0  0  0  0  0  0  0  0
   12.5277    9.0631   -6.9838 H   0  0  0  0  0  0  0  0  0  0  0  0
   13.8567    8.9659   -9.0018 H   0  0  0  0  0  0  0  0  0  0  0  0
   12.9234    7.9517  -11.0842 H   0  0  0  0  0  0  0  0  0  0  0  0
   10.7188    6.9694  -11.0725 H   0  0  0  0  0  0  0  0  0  0  0  0
    8.2836    7.2082   -8.3467 H   0  0  0  0  0  0  0  0  0  0  0  0
    9.3413    4.8572   -9.5892 H   0  0  0  0  0  0  0  0  0  0  0  0
    7.6864    5.3056   -9.2722 H   0  0  0  0  0  0  0  0  0  0  0  0
    8.0837    6.9231  -11.4457 H   0  0  0  0  0  0  0  0  0  0  0  0
    9.2864    5.7217  -11.7858 H   0  0  0  0  0  0  0  0  0  0  0  0
    5.4431    5.7728  -11.3437 H   0  0  0  0  0  0  0  0  0  0  0  0
    6.2546    6.4656  -12.7367 H   0  0  0  0  0  0  0  0  0  0  0  0
    4.6175    3.9750  -12.6466 H   0  0  0  0  0  0  0  0  0  0  0  0
    5.0017    4.9922  -14.0217 H   0  0  0  0  0  0  0  0  0  0  0  0
    6.3412    2.5556  -13.0640 H   0  0  0  0  0  0  0  0  0  0  0  0
    6.6187    3.3727  -14.5973 H   0  0  0  0  0  0  0  0  0  0  0  0
    8.2767    4.7874  -13.6741 H   0  0  0  0  0  0  0  0  0  0  0  0
    8.5498    3.3727  -12.6502 H   0  0  0  0  0  0  0  0  0  0  0  0
   10.9804   10.2905   -5.1233 H   0  0  0  0  0  0  0  0  0  0  0  0
   12.3375   10.3129   -3.0456 H   0  0  0  0  0  0  0  0  0  0  0  0
    7.1293    4.2926  -11.0344 H   0  0  0  0  0  0  0  0  0  0  0  0
  2  1  2  0
  3  2  1  0
  4  3  2  0
  5  4  1  0
  6  5  1  0
  7  6  2  0
  8  7  1  0
  9  8  2  0
 10  9  1  0
 11  6  1  0
 11 10  2  0
 12 11  1  0
 13 12  1  0
 14 13  1  0
 15 14  1  0
 16 15  1  0
 17 16  1  0
 18 17  1  0
 19 15  1  0
 19 18  1  0
 20  4  1  0
 21  1  1  0
 21 20  2  0
 22  1  1  0
 23  2  1  0
 24  3  1  0
 25  5  1  0
 26  5  1  0
 27  7  1  0
 28  8  1  0
 29  9  1  0
 30 10  1  0
 31 12  1  0
 32 13  1  0
 33 13  1  0
 34 14  1  0
 35 14  1  0
 36 16  1  0
 37 16  1  0
 38 17  1  0
 39 17  1  0
 40 18  1  0
 41 18  1  0
 42 19  1  0
 43 19  1  0
 44 20  1  0
 45 21  1  0
 46 15  1  0
M  CHG  1  15   1
M  END
>  <b_m_subgroup_collapsed>  (873) 
0

>  <r_i_docking_score>  (873) 
-7.21008087342413

>  <s_m_subgroup_title>  (873) 
glide-dock_SP_D22_pv

>  <s_m_subgroupid>  (873) 
glide-dock_SP_D22_pv

>  <Molecule ChEMBL ID>  (873) 
CHEMBL187420

>  <Standard Type>  (873) 
Ki

>  <Standard Value>  (873) 
10000.0

>  <label>  (873) 
0

$$$$
CHEMBL157035
     RDKit          3D

 67 70  0  0  1  0  0  0  0  0999 V2000
    6.3859    1.6671  -13.9696 C   0  0  0  0  0  0  0  0  0  0  0  0
    7.5535    1.8926  -14.2484 C   0  0  0  0  0  0  0  0  0  0  0  0
    8.9747    2.1618  -14.5385 C   0  0  0  0  0  0  0  0  0  0  0  0
    9.3266    3.5901  -14.5068 N   0  0  0  0  0  0  0  0  0  0  0  0
    9.1741    4.1200  -13.1422 C   0  0  0  0  0  0  0  0  0  0  0  0
    8.2017    5.3149  -13.1191 C   0  0  0  0  0  0  0  0  0  0  0  0
    8.1009    5.9928  -11.7429 C   0  0  0  0  0  0  0  0  0  0  0  0
    9.4703    6.4351  -11.1886 C   0  0  0  0  0  0  0  0  0  0  0  0
    9.4006    7.2987   -9.9843 N   0  0  0  0  0  0  0  0  0  0  0  0
    8.8921    6.5924   -8.7791 C   0  0  0  0  0  0  0  0  0  0  0  0
    8.8128    7.5521   -7.5790 C   0  0  0  0  0  0  0  0  0  0  0  0
   10.0748    8.2357   -7.3619 N   0  0  0  0  0  0  0  0  0  0  0  0
   10.7965    7.9443   -6.1935 C   0  0  0  0  0  0  0  0  0  0  0  0
   11.0757    6.6124   -5.8649 C   0  0  0  0  0  0  0  0  0  0  0  0
   11.6865    6.3369   -4.6346 C   0  0  0  0  0  0  0  0  0  0  0  0
   12.0276    7.3092   -3.7099 C   0  0  0  0  0  0  0  0  0  0  0  0
   11.7542    8.6260   -4.0291 C   0  0  0  0  0  0  0  0  0  0  0  0
   12.0854    9.7723   -2.8139 Cl  0  0  0  0  0  0  0  0  0  0  0  0
   11.1796    8.9495   -5.2761 C   0  0  0  0  0  0  0  0  0  0  0  0
   10.8865   10.5743   -5.6422 Cl  0  0  0  0  0  0  0  0  0  0  0  0
   10.7004    8.8829   -8.5035 C   0  0  0  0  0  0  0  0  0  0  0  0
   10.7212    7.9466   -9.7253 C   0  0  0  0  0  0  0  0  0  0  0  0
   10.6938    3.8644  -15.0066 C   0  0  2  0  0  0  0  0  0  0  0  0
   10.9310    5.3852  -15.1462 C   0  0  0  0  0  0  0  0  0  0  0  0
   12.3796    5.7159  -15.5061 C   0  0  0  0  0  0  0  0  0  0  0  0
   12.9167    4.8782  -16.6476 C   0  0  0  0  0  0  0  0  0  0  0  0
   14.0804    5.3115  -17.3144 C   0  0  0  0  0  0  0  0  0  0  0  0
   14.6300    4.5378  -18.3518 C   0  0  0  0  0  0  0  0  0  0  0  0
   14.0258    3.3219  -18.7207 C   0  0  0  0  0  0  0  0  0  0  0  0
   14.5848    2.5628  -19.7082 O   0  0  0  0  0  0  0  0  0  0  0  0
   12.8519    2.8945  -18.0702 C   0  0  0  0  0  0  0  0  0  0  0  0
   12.2899    3.6677  -17.0314 C   0  0  0  0  0  0  0  0  0  0  0  0
   11.0086    3.1852  -16.3627 C   0  0  0  0  0  0  0  0  0  0  0  0
    5.3630    1.4751  -13.7350 H   0  0  0  0  0  0  0  0  0  0  0  0
    9.5958    1.5932  -13.8470 H   0  0  0  0  0  0  0  0  0  0  0  0
    9.1198    1.7399  -15.5304 H   0  0  0  0  0  0  0  0  0  0  0  0
    8.8119    3.3739  -12.4413 H   0  0  0  0  0  0  0  0  0  0  0  0
   10.1483    4.3967  -12.7452 H   0  0  0  0  0  0  0  0  0  0  0  0
    8.4896    6.0666  -13.8532 H   0  0  0  0  0  0  0  0  0  0  0  0
    7.2101    4.9755  -13.4225 H   0  0  0  0  0  0  0  0  0  0  0  0
    7.4545    6.8638  -11.8512 H   0  0  0  0  0  0  0  0  0  0  0  0
    7.6027    5.3178  -11.0454 H   0  0  0  0  0  0  0  0  0  0  0  0
   10.0770    5.5637  -10.9426 H   0  0  0  0  0  0  0  0  0  0  0  0
    9.9959    6.9751  -11.9783 H   0  0  0  0  0  0  0  0  0  0  0  0
    7.9051    6.1722   -8.9706 H   0  0  0  0  0  0  0  0  0  0  0  0
    9.5475    5.7528   -8.5442 H   0  0  0  0  0  0  0  0  0  0  0  0
    8.0860    8.3362   -7.7744 H   0  0  0  0  0  0  0  0  0  0  0  0
    8.4747    7.0273   -6.6832 H   0  0  0  0  0  0  0  0  0  0  0  0
   10.8275    5.8042   -6.5364 H   0  0  0  0  0  0  0  0  0  0  0  0
   11.9821    5.3724   -4.3574 H   0  0  0  0  0  0  0  0  0  0  0  0
   12.4859    7.0433   -2.7683 H   0  0  0  0  0  0  0  0  0  0  0  0
   10.1217    9.7704   -8.7503 H   0  0  0  0  0  0  0  0  0  0  0  0
   11.7102    9.2152   -8.2588 H   0  0  0  0  0  0  0  0  0  0  0  0
   11.4695    7.1685   -9.5644 H   0  0  0  0  0  0  0  0  0  0  0  0
   11.0410    8.5126  -10.6012 H   0  0  0  0  0  0  0  0  0  0  0  0
   11.4080    3.4720  -14.2792 H   0  0  0  0  0  0  0  0  0  0  0  0
   10.2683    5.7717  -15.9214 H   0  0  0  0  0  0  0  0  0  0  0  0
   10.7021    5.9332  -14.2362 H   0  0  0  0  0  0  0  0  0  0  0  0
   13.0195    5.5453  -14.6401 H   0  0  0  0  0  0  0  0  0  0  0  0
   12.4652    6.7742  -15.7554 H   0  0  0  0  0  0  0  0  0  0  0  0
   14.5610    6.2346  -17.0234 H   0  0  0  0  0  0  0  0  0  0  0  0
   15.5219    4.8728  -18.8590 H   0  0  0  0  0  0  0  0  0  0  0  0
   14.0523    1.8200  -19.9537 H   0  0  0  0  0  0  0  0  0  0  0  0
   12.3795    1.9674  -18.3616 H   0  0  0  0  0  0  0  0  0  0  0  0
   11.1065    2.1075  -16.2293 H   0  0  0  0  0  0  0  0  0  0  0  0
   10.1899    3.3530  -17.0634 H   0  0  0  0  0  0  0  0  0  0  0  0
    8.7181    8.0216  -10.1809 H   0  0  0  0  0  0  0  0  0  0  0  0
  2  1  3  0
  3  2  1  0
  4  3  1  0
  5  4  1  0
  6  5  1  0
  7  6  1  0
  8  7  1  0
  9  8  1  0
 10  9  1  0
 11 10  1  0
 12 11  1  0
 13 12  1  0
 14 13  2  0
 15 14  1  0
 16 15  2  0
 17 16  1  0
 18 17  1  0
 19 13  1  0
 19 17  2  0
 20 19  1  0
 21 12  1  0
 22  9  1  0
 22 21  1  0
 23  4  1  0
 24 23  1  0
 25 24  1  0
 26 25  1  0
 27 26  1  0
 28 27  2  0
 29 28  1  0
 30 29  1  0
 31 29  2  0
 32 26  2  0
 32 31  1  0
 33 23  1  0
 33 32  1  0
 34  1  1  0
 35  3  1  0
 36  3  1  0
 37  5  1  0
 38  5  1  0
 39  6  1  0
 40  6  1  0
 41  7  1  0
 42  7  1  0
 43  8  1  0
 44  8  1  0
 45 10  1  0
 46 10  1  0
 47 11  1  0
 48 11  1  0
 49 14  1  0
 50 15  1  0
 51 16  1  0
 52 21  1  0
 53 21  1  0
 54 22  1  0
 55 22  1  0
 23 56  1  1
 57 24  1  0
 58 24  1  0
 59 25  1  0
 60 25  1  0
 61 27  1  0
 62 28  1  0
 63 30  1  0
 64 31  1  0
 65 33  1  0
 66 33  1  0
 67  9  1  0
M  CHG  1   9   1
M  END
>  <b_m_subgroup_collapsed>  (874) 
0

>  <r_i_docking_score>  (874) 
-7.2098809290650197

>  <s_m_subgroup_title>  (874) 
glide-dock_SP_D22_pv

>  <s_m_subgroupid>  (874) 
glide-dock_SP_D22_pv

>  <Molecule ChEMBL ID>  (874) 
CHEMBL157035

>  <Standard Type>  (874) 
Ki

>  <Standard Value>  (874) 
7.37

>  <label>  (874) 
1

$$$$
CHEMBL3287404
     RDKit          3D

 57 60  0  0  1  0  0  0  0  0999 V2000
    4.0844   -2.6275  -17.2008 O   0  0  0  0  0  0  0  0  0  0  0  0
    4.6430   -1.6777  -16.2920 N   0  0  0  0  0  0  0  0  0  0  0  0
    5.6185   -1.1346  -16.8918 C   0  0  0  0  0  0  0  0  0  0  0  0
    6.4712   -0.0553  -16.3562 C   0  0  0  0  0  0  0  0  0  0  0  0
    7.5711    0.4283  -17.1168 C   0  0  0  0  0  0  0  0  0  0  0  0
    8.0971    1.4420  -16.3669 C   0  0  0  0  0  0  0  0  0  0  0  0
    9.1668    2.3634  -16.5058 C   0  0  0  0  0  0  0  0  0  0  0  0
    9.3847    3.3186  -15.5366 C   0  0  0  0  0  0  0  0  0  0  0  0
   10.4108    4.2068  -15.7745 O   0  0  0  0  0  0  0  0  0  0  0  0
   10.4645    5.4181  -15.0307 C   0  0  0  0  0  0  0  0  0  0  0  0
   11.4109    5.2901  -13.8298 C   0  0  0  0  0  0  0  0  0  0  0  0
   11.4763    6.5568  -12.9529 C   0  0  0  0  0  0  0  0  0  0  0  0
   10.3705    6.5982  -11.8701 C   0  0  0  0  0  0  0  0  0  0  0  0
   10.5113    7.6914  -10.8653 N   0  0  0  0  0  0  0  0  0  0  0  0
    9.3436    7.7248   -9.9487 C   0  0  0  0  0  0  0  0  0  0  0  0
    9.4296    8.8210   -8.8605 C   0  0  0  0  0  0  0  0  0  0  0  0
   10.7608    8.9610   -8.2683 N   0  0  0  0  0  0  0  0  0  0  0  0
   11.0067    8.4510   -6.9796 C   0  0  0  0  0  0  0  0  0  0  0  0
   10.9060    7.0708   -6.7237 C   0  0  0  0  0  0  0  0  0  0  0  0
   11.2857    6.5723   -5.4666 C   0  0  0  0  0  0  0  0  0  0  0  0
   11.6848    7.4094   -4.4257 C   0  0  0  0  0  0  0  0  0  0  0  0
   11.7138    8.7857   -4.6441 C   0  0  0  0  0  0  0  0  0  0  0  0
   12.0854    9.7721   -3.2885 Cl  0  0  0  0  0  0  0  0  0  0  0  0
   11.4402    9.3041   -5.9326 C   0  0  0  0  0  0  0  0  0  0  0  0
   11.6860   10.9721   -6.2468 Cl  0  0  0  0  0  0  0  0  0  0  0  0
   11.8839    8.8786   -9.1858 C   0  0  0  0  0  0  0  0  0  0  0  0
   11.7583    7.6377  -10.0743 C   0  0  0  0  0  0  0  0  0  0  0  0
    8.5447    3.3512  -14.3832 C   0  0  0  0  0  0  0  0  0  0  0  0
    7.5055    2.4594  -14.2469 C   0  0  0  0  0  0  0  0  0  0  0  0
    7.3013    1.5264  -15.2116 N   0  0  0  0  0  0  0  0  0  0  0  0
    6.3191    0.5717  -15.2073 N   0  0  0  0  0  0  0  0  0  0  0  0
    3.5394   -3.2041  -16.6465 H   0  0  0  0  0  0  0  0  0  0  0  0
    5.8864   -1.4621  -17.9014 H   0  0  0  0  0  0  0  0  0  0  0  0
    7.9050    0.0764  -18.0814 H   0  0  0  0  0  0  0  0  0  0  0  0
    9.7930    2.3241  -17.3905 H   0  0  0  0  0  0  0  0  0  0  0  0
   10.8574    6.1808  -15.7032 H   0  0  0  0  0  0  0  0  0  0  0  0
    9.4761    5.7713  -14.7376 H   0  0  0  0  0  0  0  0  0  0  0  0
   11.1433    4.4240  -13.2235 H   0  0  0  0  0  0  0  0  0  0  0  0
   12.4095    5.0783  -14.2149 H   0  0  0  0  0  0  0  0  0  0  0  0
   12.4657    6.5623  -12.5025 H   0  0  0  0  0  0  0  0  0  0  0  0
   11.4400    7.4527  -13.5731 H   0  0  0  0  0  0  0  0  0  0  0  0
    9.4061    6.7062  -12.3692 H   0  0  0  0  0  0  0  0  0  0  0  0
   10.3222    5.6464  -11.3414 H   0  0  0  0  0  0  0  0  0  0  0  0
    8.4862    7.9111  -10.5783 H   0  0  0  0  0  0  0  0  0  0  0  0
    9.2030    6.7492   -9.4810 H   0  0  0  0  0  0  0  0  0  0  0  0
    9.1755    9.7707   -9.3216 H   0  0  0  0  0  0  0  0  0  0  0  0
    8.6772    8.6473   -8.0891 H   0  0  0  0  0  0  0  0  0  0  0  0
   10.5909    6.3822   -7.4926 H   0  0  0  0  0  0  0  0  0  0  0  0
   11.2837    5.5222   -5.2692 H   0  0  0  0  0  0  0  0  0  0  0  0
   11.9327    6.9977   -3.4579 H   0  0  0  0  0  0  0  0  0  0  0  0
   11.8946    9.7722   -9.8085 H   0  0  0  0  0  0  0  0  0  0  0  0
   12.8285    8.8629   -8.6391 H   0  0  0  0  0  0  0  0  0  0  0  0
   11.6865    6.7344   -9.4708 H   0  0  0  0  0  0  0  0  0  0  0  0
   12.6470    7.5850  -10.6954 H   0  0  0  0  0  0  0  0  0  0  0  0
    8.6974    4.0764  -13.5921 H   0  0  0  0  0  0  0  0  0  0  0  0
    6.8227    2.4517  -13.4056 H   0  0  0  0  0  0  0  0  0  0  0  0
   10.5141    8.5683  -11.3651 H   0  0  0  0  0  0  0  0  0  0  0  0
  2  1  1  0
  3  2  2  0
  4  3  1  0
  5  4  1  0
  6  5  2  0
  7  6  1  0
  8  7  2  0
  9  8  1  0
 10  9  1  0
 11 10  1  0
 12 11  1  0
 13 12  1  0
 14 13  1  0
 15 14  1  0
 16 15  1  0
 17 16  1  0
 18 17  1  0
 19 18  2  0
 20 19  1  0
 21 20  2  0
 22 21  1  0
 23 22  1  0
 24 18  1  0
 24 22  2  0
 25 24  1  0
 26 17  1  0
 27 14  1  0
 27 26  1  0
 28  8  1  0
 29 28  2  0
 30  6  1  0
 30 29  1  0
 31  4  2  0
 31 30  1  0
 32  1  1  0
 33  3  1  0
 34  5  1  0
 35  7  1  0
 36 10  1  0
 37 10  1  0
 38 11  1  0
 39 11  1  0
 40 12  1  0
 41 12  1  0
 42 13  1  0
 43 13  1  0
 44 15  1  0
 45 15  1  0
 46 16  1  0
 47 16  1  0
 48 19  1  0
 49 20  1  0
 50 21  1  0
 51 26  1  0
 52 26  1  0
 53 27  1  0
 54 27  1  0
 55 28  1  0
 56 29  1  0
 57 14  1  0
M  CHG  1  14   1
M  END
>  <b_m_subgroup_collapsed>  (875) 
0

>  <r_i_docking_score>  (875) 
-7.2088611882955496

>  <s_m_subgroup_title>  (875) 
glide-dock_SP_D22_pv

>  <s_m_subgroupid>  (875) 
glide-dock_SP_D22_pv

>  <Molecule ChEMBL ID>  (875) 
CHEMBL3287404

>  <Standard Type>  (875) 
Ki

>  <Standard Value>  (875) 
2.3

>  <label>  (875) 
1

$$$$
CHEMBL4592753
     RDKit          3D

 42 44  0  0  1  0  0  0  0  0999 V2000
   10.0025    5.9331  -12.3797 O   0  0  0  0  0  0  0  0  0  0  0  0
    9.0370    6.5454  -11.9272 C   0  0  0  0  0  0  0  0  0  0  0  0
    9.2851    7.8121  -11.1153 C   0  0  0  0  0  0  0  0  0  0  0  0
    9.2859    7.5404   -9.6560 N   0  0  0  0  0  0  0  0  0  0  0  0
    9.1231    8.7873   -8.8696 C   0  0  0  0  0  0  0  0  0  0  0  0
    8.9810    8.4544   -7.3838 C   0  0  0  0  0  0  0  0  0  0  0  0
   10.1451    7.6969   -6.9412 N   0  0  0  0  0  0  0  0  0  0  0  0
   10.8330    8.0610   -5.7659 C   0  0  0  0  0  0  0  0  0  0  0  0
   11.4538    7.0994   -4.9364 C   0  0  0  0  0  0  0  0  0  0  0  0
   12.0816    7.5236   -3.7480 C   0  0  0  0  0  0  0  0  0  0  0  0
   12.0491    8.8889   -3.4109 C   0  0  0  0  0  0  0  0  0  0  0  0
   11.3965    9.7718   -4.2912 C   0  0  0  0  0  0  0  0  0  0  0  0
   10.8324    9.3761   -5.4461 N   0  0  0  0  0  0  0  0  0  0  0  0
   10.4234    6.4654   -7.6670 C   0  0  0  0  0  0  0  0  0  0  0  0
   10.4506    6.7282   -9.1878 C   0  0  0  0  0  0  0  0  0  0  0  0
    7.7527    6.1717  -12.0663 N   0  0  0  0  0  0  0  0  0  0  0  0
    7.2549    4.9710  -12.6437 C   0  0  0  0  0  0  0  0  0  0  0  0
    7.9533    4.1917  -13.5983 C   0  0  0  0  0  0  0  0  0  0  0  0
    7.3546    3.0137  -14.0822 C   0  0  0  0  0  0  0  0  0  0  0  0
    6.0867    2.6547  -13.5921 C   0  0  0  0  0  0  0  0  0  0  0  0
    5.4013    3.3958  -12.6999 N   0  0  0  0  0  0  0  0  0  0  0  0
    5.9782    4.5284  -12.2470 C   0  0  0  0  0  0  0  0  0  0  0  0
    8.5010    8.5318  -11.3627 H   0  0  0  0  0  0  0  0  0  0  0  0
   10.2314    8.2667  -11.4160 H   0  0  0  0  0  0  0  0  0  0  0  0
    8.2497    9.3475   -9.2055 H   0  0  0  0  0  0  0  0  0  0  0  0
    9.9900    9.4283   -9.0299 H   0  0  0  0  0  0  0  0  0  0  0  0
    8.0870    7.8544   -7.2111 H   0  0  0  0  0  0  0  0  0  0  0  0
    8.8381    9.3649   -6.8178 H   0  0  0  0  0  0  0  0  0  0  0  0
   11.4360    6.0472   -5.1746 H   0  0  0  0  0  0  0  0  0  0  0  0
   12.5583    6.8086   -3.0939 H   0  0  0  0  0  0  0  0  0  0  0  0
   12.4898    9.2509   -2.4941 H   0  0  0  0  0  0  0  0  0  0  0  0
   11.2858   10.8168   -4.0535 H   0  0  0  0  0  0  0  0  0  0  0  0
   11.3732    6.0288   -7.3620 H   0  0  0  0  0  0  0  0  0  0  0  0
    9.6452    5.7407   -7.4245 H   0  0  0  0  0  0  0  0  0  0  0  0
   10.4848    5.7691   -9.7040 H   0  0  0  0  0  0  0  0  0  0  0  0
   11.3703    7.2575   -9.4451 H   0  0  0  0  0  0  0  0  0  0  0  0
    7.0711    6.7413  -11.5662 H   0  0  0  0  0  0  0  0  0  0  0  0
    8.9243    4.4748  -13.9755 H   0  0  0  0  0  0  0  0  0  0  0  0
    7.8606    2.3917  -14.8057 H   0  0  0  0  0  0  0  0  0  0  0  0
    5.6037    1.7491  -13.9305 H   0  0  0  0  0  0  0  0  0  0  0  0
    5.4023    5.0942  -11.5298 H   0  0  0  0  0  0  0  0  0  0  0  0
    8.4364    7.0142   -9.4760 H   0  0  0  0  0  0  0  0  0  0  0  0
  2  1  2  0
  3  2  1  0
  4  3  1  0
  5  4  1  0
  6  5  1  0
  7  6  1  0
  8  7  1  0
  9  8  2  0
 10  9  1  0
 11 10  2  0
 12 11  1  0
 13  8  1  0
 13 12  2  0
 14  7  1  0
 15  4  1  0
 15 14  1  0
 16  2  1  0
 17 16  1  0
 18 17  1  0
 19 18  2  0
 20 19  1  0
 21 20  2  0
 22 17  2  0
 22 21  1  0
 23  3  1  0
 24  3  1  0
 25  5  1  0
 26  5  1  0
 27  6  1  0
 28  6  1  0
 29  9  1  0
 30 10  1  0
 31 11  1  0
 32 12  1  0
 33 14  1  0
 34 14  1  0
 35 15  1  0
 36 15  1  0
 37 16  1  0
 38 18  1  0
 39 19  1  0
 40 20  1  0
 41 22  1  0
 42  4  1  0
M  CHG  1   4   1
M  END
>  <b_m_subgroup_collapsed>  (876) 
0

>  <r_i_docking_score>  (876) 
-7.2069675318508697

>  <s_m_subgroup_title>  (876) 
glide-dock_SP_D22_pv

>  <s_m_subgroupid>  (876) 
glide-dock_SP_D22_pv

>  <Molecule ChEMBL ID>  (876) 
CHEMBL4592753

>  <Standard Type>  (876) 
Ki

>  <Standard Value>  (876) 
50000.0

>  <label>  (876) 
0

$$$$
CHEMBL287198
     RDKit          3D

 56 59  0  0  1  0  0  0  0  0999 V2000
   11.9444    5.1900  -15.7721 C   0  0  0  0  0  0  0  0  0  0  0  0
   11.8455    4.2450  -14.7137 O   0  0  0  0  0  0  0  0  0  0  0  0
   10.6348    3.5963  -14.6587 C   0  0  0  0  0  0  0  0  0  0  0  0
    9.6004    4.0606  -13.7980 C   0  0  0  0  0  0  0  0  0  0  0  0
    9.7758    5.2652  -12.9031 C   0  0  0  0  0  0  0  0  0  0  0  0
   10.5844    6.1557  -13.1565 O   0  0  0  0  0  0  0  0  0  0  0  0
    9.0203    5.2807  -11.7916 N   0  0  0  0  0  0  0  0  0  0  0  0
    8.9285    6.3914  -10.8502 C   0  0  0  0  0  0  0  0  0  0  0  0
   10.2400    6.5791  -10.0605 C   0  0  0  0  0  0  0  0  0  0  0  0
   10.1915    7.7247   -9.1557 N   0  0  0  0  0  0  0  0  0  0  0  0
    9.3850    7.3856   -7.9763 C   0  0  0  0  0  0  0  0  0  0  0  0
    9.3345    8.5647   -6.9901 C   0  0  0  0  0  0  0  0  0  0  0  0
   10.6730    9.0448   -6.6608 N   0  0  0  0  0  0  0  0  0  0  0  0
   11.1771    8.9603   -5.3531 C   0  0  0  0  0  0  0  0  0  0  0  0
   11.2202   10.1346   -4.5828 C   0  0  0  0  0  0  0  0  0  0  0  0
   11.6860   10.0912   -3.2549 C   0  0  0  0  0  0  0  0  0  0  0  0
   12.0893    8.8902   -2.6685 C   0  0  0  0  0  0  0  0  0  0  0  0
   12.0552    7.7176   -3.4277 C   0  0  0  0  0  0  0  0  0  0  0  0
   12.4860    6.2530   -2.6466 Cl  0  0  0  0  0  0  0  0  0  0  0  0
   11.6267    7.7496   -4.7729 C   0  0  0  0  0  0  0  0  0  0  0  0
   11.6692    6.3084   -5.7032 Cl  0  0  0  0  0  0  0  0  0  0  0  0
   11.5811    9.2529   -7.7760 C   0  0  0  0  0  0  0  0  0  0  0  0
   11.5596    8.0426   -8.7283 C   0  0  0  0  0  0  0  0  0  0  0  0
    8.3668    3.3720  -13.7915 C   0  0  0  0  0  0  0  0  0  0  0  0
    8.1826    2.1848  -14.5188 C   0  0  0  0  0  0  0  0  0  0  0  0
    6.5422    1.2377  -14.2793 Br  0  0  0  0  0  0  0  0  0  0  0  0
    9.2143    1.7038  -15.3547 C   0  0  0  0  0  0  0  0  0  0  0  0
    9.0503    0.5157  -16.1041 C   0  0  0  0  0  0  0  0  0  0  0  0
   10.0797    0.0509  -16.9439 C   0  0  0  0  0  0  0  0  0  0  0  0
   11.2857    0.7665  -17.0385 C   0  0  0  0  0  0  0  0  0  0  0  0
   11.4634    1.9395  -16.2818 C   0  0  0  0  0  0  0  0  0  0  0  0
   10.4377    2.4225  -15.4349 C   0  0  0  0  0  0  0  0  0  0  0  0
   12.8763    5.7477  -15.6728 H   0  0  0  0  0  0  0  0  0  0  0  0
   11.9488    4.7043  -16.7492 H   0  0  0  0  0  0  0  0  0  0  0  0
   11.1230    5.9091  -15.7540 H   0  0  0  0  0  0  0  0  0  0  0  0
    8.4129    4.4946  -11.6169 H   0  0  0  0  0  0  0  0  0  0  0  0
    8.0918    6.1728  -10.1860 H   0  0  0  0  0  0  0  0  0  0  0  0
    8.6690    7.3061  -11.3863 H   0  0  0  0  0  0  0  0  0  0  0  0
   11.0494    6.7489  -10.7697 H   0  0  0  0  0  0  0  0  0  0  0  0
   10.4862    5.6694   -9.5105 H   0  0  0  0  0  0  0  0  0  0  0  0
    9.7738    6.4916   -7.4930 H   0  0  0  0  0  0  0  0  0  0  0  0
    8.3672    7.1482   -8.2758 H   0  0  0  0  0  0  0  0  0  0  0  0
    8.7973    8.2636   -6.0929 H   0  0  0  0  0  0  0  0  0  0  0  0
    8.7659    9.3719   -7.4468 H   0  0  0  0  0  0  0  0  0  0  0  0
   10.8869   11.0698   -5.0090 H   0  0  0  0  0  0  0  0  0  0  0  0
   11.7175   10.9761   -2.6510 H   0  0  0  0  0  0  0  0  0  0  0  0
   12.4162    8.8713   -1.6388 H   0  0  0  0  0  0  0  0  0  0  0  0
   11.2860   10.1644   -8.3037 H   0  0  0  0  0  0  0  0  0  0  0  0
   12.5977    9.4001   -7.4086 H   0  0  0  0  0  0  0  0  0  0  0  0
   12.0079    7.1780   -8.2417 H   0  0  0  0  0  0  0  0  0  0  0  0
   12.1764    8.2689   -9.5994 H   0  0  0  0  0  0  0  0  0  0  0  0
    7.5491    3.7104  -13.1730 H   0  0  0  0  0  0  0  0  0  0  0  0
    8.1359   -0.0566  -16.0512 H   0  0  0  0  0  0  0  0  0  0  0  0
    9.9435   -0.8574  -17.5115 H   0  0  0  0  0  0  0  0  0  0  0  0
   12.0812    0.4079  -17.6746 H   0  0  0  0  0  0  0  0  0  0  0  0
   12.4112    2.4533  -16.3493 H   0  0  0  0  0  0  0  0  0  0  0  0
  2  1  1  0
  3  2  1  0
  4  3  2  0
  5  4  1  0
  6  5  2  0
  7  5  1  0
  8  7  1  0
  9  8  1  0
 10  9  1  0
 11 10  1  0
 12 11  1  0
 13 12  1  0
 14 13  1  0
 15 14  2  0
 16 15  1  0
 17 16  2  0
 18 17  1  0
 19 18  1  0
 20 14  1  0
 20 18  2  0
 21 20  1  0
 22 13  1  0
 23 10  1  0
 23 22  1  0
 24  4  1  0
 25 24  2  0
 26 25  1  0
 27 25  1  0
 28 27  2  0
 29 28  1  0
 30 29  2  0
 31 30  1  0
 32  3  1  0
 32 27  1  0
 32 31  2  0
 33  1  1  0
 34  1  1  0
 35  1  1  0
 36  7  1  0
 37  8  1  0
 38  8  1  0
 39  9  1  0
 40  9  1  0
 41 11  1  0
 42 11  1  0
 43 12  1  0
 44 12  1  0
 45 15  1  0
 46 16  1  0
 47 17  1  0
 48 22  1  0
 49 22  1  0
 50 23  1  0
 51 23  1  0
 52 24  1  0
 53 28  1  0
 54 29  1  0
 55 30  1  0
 56 31  1  0
M  END
>  <b_m_subgroup_collapsed>  (877) 
0

>  <r_i_docking_score>  (877) 
-7.2061707742739296

>  <s_m_subgroup_title>  (877) 
glide-dock_SP_D22_pv

>  <s_m_subgroupid>  (877) 
glide-dock_SP_D22_pv

>  <Molecule ChEMBL ID>  (877) 
CHEMBL287198

>  <Standard Type>  (877) 
Ki

>  <Standard Value>  (877) 
10000.0

>  <label>  (877) 
0

$$$$
CHEMBL458342
     RDKit          3D

 49 53  0  0  1  0  0  0  0  0999 V2000
   12.4906    8.5731   -1.4591 Cl  0  0  0  0  0  0  0  0  0  0  0  0
   12.1222    8.2349   -3.1058 C   0  0  0  0  0  0  0  0  0  0  0  0
   12.2802    9.2531   -4.0467 C   0  0  0  0  0  0  0  0  0  0  0  0
   11.9781    9.0546   -5.4034 C   0  0  0  0  0  0  0  0  0  0  0  0
   11.5339    7.7884   -5.8532 C   0  0  0  0  0  0  0  0  0  0  0  0
   11.3759    7.5100   -7.2310 N   0  0  0  0  0  0  0  0  0  0  0  0
   12.1043    8.3402   -8.2105 C   0  0  0  0  0  0  0  0  0  0  0  0
   12.0586    7.8983   -9.6977 C   0  0  0  0  0  0  0  0  0  0  0  0
   10.6814    7.8190  -10.3934 C   0  0  2  0  0  0  0  0  0  0  0  0
    9.7796    8.9725   -9.9912 C   0  0  0  0  0  0  0  0  0  0  0  0
    9.1292    8.5247   -8.7073 C   0  0  0  0  0  0  0  0  0  0  0  0
    9.3763    7.0044   -8.6903 C   0  0  2  0  0  0  0  0  0  0  0  0
   10.3539    6.5281   -7.6062 C   0  0  0  0  0  0  0  0  0  0  0  0
    9.9550    6.6196   -9.9844 N   0  0  0  0  0  0  0  0  0  0  0  0
    8.9078    6.2372  -10.9421 C   0  0  0  0  0  0  0  0  0  0  0  0
    9.2177    5.4896  -12.2118 C   0  0  0  0  0  0  0  0  0  0  0  0
   10.3569    5.4975  -12.9842 C   0  0  0  0  0  0  0  0  0  0  0  0
   10.2187    4.5726  -14.0083 N   0  0  0  0  0  0  0  0  0  0  0  0
    8.9831    3.9681  -13.9474 C   0  0  0  0  0  0  0  0  0  0  0  0
    8.5042    2.9928  -14.7736 N   0  0  0  0  0  0  0  0  0  0  0  0
    7.2416    2.5975  -14.4970 C   0  0  0  0  0  0  0  0  0  0  0  0
    6.4424    3.1428  -13.4693 C   0  0  0  0  0  0  0  0  0  0  0  0
    6.9821    4.1448  -12.6355 C   0  0  0  0  0  0  0  0  0  0  0  0
    8.3095    4.5758  -12.8533 C   0  0  0  0  0  0  0  0  0  0  0  0
   11.3826    6.7608   -4.8861 C   0  0  0  0  0  0  0  0  0  0  0  0
   11.6859    6.9709   -3.5256 C   0  0  0  0  0  0  0  0  0  0  0  0
   12.6829   10.1723   -3.6947 H   0  0  0  0  0  0  0  0  0  0  0  0
   12.1439    9.8733   -6.0858 H   0  0  0  0  0  0  0  0  0  0  0  0
   11.7449    9.3654   -8.1422 H   0  0  0  0  0  0  0  0  0  0  0  0
   13.1528    8.3822   -7.9153 H   0  0  0  0  0  0  0  0  0  0  0  0
   12.6485    8.6274  -10.2521 H   0  0  0  0  0  0  0  0  0  0  0  0
   12.5897    6.9730   -9.8470 H   0  0  0  0  0  0  0  0  0  0  0  0
   10.8445    7.8150  -11.4711 H   0  0  0  0  0  0  0  0  0  0  0  0
   10.3434    9.8888   -9.8469 H   0  0  0  0  0  0  0  0  0  0  0  0
    9.0229    9.1608  -10.7536 H   0  0  0  0  0  0  0  0  0  0  0  0
    9.5108    9.0514   -7.8349 H   0  0  0  0  0  0  0  0  0  0  0  0
    8.0860    8.7813   -8.7193 H   0  0  0  0  0  0  0  0  0  0  0  0
    8.4341    6.4796   -8.5225 H   0  0  0  0  0  0  0  0  0  0  0  0
   10.8347    5.5910   -7.8910 H   0  0  0  0  0  0  0  0  0  0  0  0
    9.7300    6.2949   -6.7443 H   0  0  0  0  0  0  0  0  0  0  0  0
    8.2109    5.6029  -10.3921 H   0  0  0  0  0  0  0  0  0  0  0  0
    8.3161    7.1151  -11.1978 H   0  0  0  0  0  0  0  0  0  0  0  0
   11.2739    6.0539  -12.8627 H   0  0  0  0  0  0  0  0  0  0  0  0
   10.9364    4.3746  -14.6887 H   0  0  0  0  0  0  0  0  0  0  0  0
    6.8422    1.8236  -15.1347 H   0  0  0  0  0  0  0  0  0  0  0  0
    5.4340    2.7850  -13.3152 H   0  0  0  0  0  0  0  0  0  0  0  0
    6.4000    4.5622  -11.8261 H   0  0  0  0  0  0  0  0  0  0  0  0
   11.0820    5.7724   -5.1820 H   0  0  0  0  0  0  0  0  0  0  0  0
   11.5748    6.1674   -2.8130 H   0  0  0  0  0  0  0  0  0  0  0  0
  2  1  1  0
  3  2  1  0
  4  3  2  0
  5  4  1  0
  6  5  1  0
  7  6  1  0
  8  7  1  0
  9  8  1  0
 10  9  1  0
 11 10  1  0
 12 11  1  0
 13  6  1  0
 13 12  1  0
 14  9  1  0
 14 12  1  0
 15 14  1  0
 16 15  1  0
 17 16  2  0
 18 17  1  0
 19 18  1  0
 20 19  1  0
 21 20  2  0
 22 21  1  0
 23 22  2  0
 24 16  1  0
 24 19  2  0
 24 23  1  0
 25  5  2  0
 26  2  2  0
 26 25  1  0
 27  3  1  0
 28  4  1  0
 29  7  1  0
 30  7  1  0
 31  8  1  0
 32  8  1  0
  9 33  1  6
 34 10  1  0
 35 10  1  0
 36 11  1  0
 37 11  1  0
 12 38  1  1
 39 13  1  0
 40 13  1  0
 41 15  1  0
 42 15  1  0
 43 17  1  0
 44 18  1  0
 45 21  1  0
 46 22  1  0
 47 23  1  0
 48 25  1  0
 49 26  1  0
M  END
>  <b_m_subgroup_collapsed>  (878) 
0

>  <r_i_docking_score>  (878) 
-7.2023754512859597

>  <s_m_subgroup_title>  (878) 
glide-dock_SP_D22_pv

>  <s_m_subgroupid>  (878) 
glide-dock_SP_D22_pv

>  <Molecule ChEMBL ID>  (878) 
CHEMBL458342

>  <Standard Type>  (878) 
Ki

>  <Standard Value>  (878) 
10000.0

>  <label>  (878) 
0

$$$$
CHEMBL4453955
     RDKit          3D

 53 55  0  0  1  0  0  0  0  0999 V2000
    5.4634    4.5806  -12.8324 C   0  0  0  0  0  0  0  0  0  0  0  0
    6.8156    3.9002  -12.5989 C   0  0  0  0  0  0  0  0  0  0  0  0
    8.0448    4.7455  -13.0006 C   0  0  0  0  0  0  0  0  0  0  0  0
    8.2397    6.0947  -12.2703 C   0  0  0  0  0  0  0  0  0  0  0  0
    9.1759    6.0309  -11.1106 N   0  0  1  0  0  0  0  0  0  0  0  0
    9.7090    7.3769  -10.7596 C   0  0  0  0  0  0  0  0  0  0  0  0
   10.6596    7.3498   -9.5417 C   0  0  0  0  0  0  0  0  0  0  0  0
   10.0335    6.6520   -8.3115 C   0  0  2  0  0  0  0  0  0  0  0  0
    9.5803    5.2543   -8.7604 C   0  0  0  0  0  0  0  0  0  0  0  0
    8.5927    5.3382   -9.9322 C   0  0  0  0  0  0  0  0  0  0  0  0
    8.8860    7.4654   -7.7001 C   0  0  0  0  0  0  0  0  0  0  0  0
    9.5455    8.4371   -6.7400 C   0  0  0  0  0  0  0  0  0  0  0  0
   10.8256    7.8427   -6.3916 N   0  0  0  0  0  0  0  0  0  0  0  0
   11.2858    8.0345   -5.0712 C   0  0  0  0  0  0  0  0  0  0  0  0
   11.6857    6.9399   -4.2687 C   0  0  0  0  0  0  0  0  0  0  0  0
   12.0869    7.1243   -2.9334 C   0  0  0  0  0  0  0  0  0  0  0  0
   12.1060    8.4152   -2.3783 C   0  0  0  0  0  0  0  0  0  0  0  0
   11.7249    9.5156   -3.1644 C   0  0  0  0  0  0  0  0  0  0  0  0
   11.3192    9.3395   -4.5016 C   0  0  0  0  0  0  0  0  0  0  0  0
   10.9661   10.4620   -5.2086 O   0  0  0  0  0  0  0  0  0  0  0  0
   11.8844   10.7839   -6.2398 C   0  0  0  0  0  0  0  0  0  0  0  0
   10.9941    6.5902   -7.1120 C   0  0  0  0  0  0  0  0  0  0  0  0
    4.6513    3.8716  -12.6722 H   0  0  0  0  0  0  0  0  0  0  0  0
    5.3083    5.4101  -12.1418 H   0  0  0  0  0  0  0  0  0  0  0  0
    5.3698    4.9611  -13.8466 H   0  0  0  0  0  0  0  0  0  0  0  0
    6.8345    2.9820  -13.1874 H   0  0  0  0  0  0  0  0  0  0  0  0
    6.8719    3.5793  -11.5604 H   0  0  0  0  0  0  0  0  0  0  0  0
    7.9556    4.9550  -14.0672 H   0  0  0  0  0  0  0  0  0  0  0  0
    8.9469    4.1400  -12.9046 H   0  0  0  0  0  0  0  0  0  0  0  0
    7.2928    6.5484  -11.9739 H   0  0  0  0  0  0  0  0  0  0  0  0
    8.6630    6.7759  -13.0145 H   0  0  0  0  0  0  0  0  0  0  0  0
   10.2436    7.7877  -11.6167 H   0  0  0  0  0  0  0  0  0  0  0  0
    8.8799    8.0575  -10.5716 H   0  0  0  0  0  0  0  0  0  0  0  0
   10.9588    8.3677   -9.2876 H   0  0  0  0  0  0  0  0  0  0  0  0
   11.5796    6.8376   -9.8232 H   0  0  0  0  0  0  0  0  0  0  0  0
   10.4443    4.6545   -9.0459 H   0  0  0  0  0  0  0  0  0  0  0  0
    9.1042    4.7280   -7.9336 H   0  0  0  0  0  0  0  0  0  0  0  0
    8.3086    4.3233  -10.1953 H   0  0  0  0  0  0  0  0  0  0  0  0
    7.6859    5.8522   -9.6211 H   0  0  0  0  0  0  0  0  0  0  0  0
    8.2189    6.8154   -7.1332 H   0  0  0  0  0  0  0  0  0  0  0  0
    8.2853    7.9970   -8.4290 H   0  0  0  0  0  0  0  0  0  0  0  0
    8.9208    8.6078   -5.8674 H   0  0  0  0  0  0  0  0  0  0  0  0
    9.7018    9.3920   -7.2386 H   0  0  0  0  0  0  0  0  0  0  0  0
   11.6804    5.9284   -4.6476 H   0  0  0  0  0  0  0  0  0  0  0  0
   12.3758    6.2721   -2.3338 H   0  0  0  0  0  0  0  0  0  0  0  0
   12.4114    8.5647   -1.3533 H   0  0  0  0  0  0  0  0  0  0  0  0
   11.7460   10.5077   -2.7387 H   0  0  0  0  0  0  0  0  0  0  0  0
   11.6868   11.7721   -6.6458 H   0  0  0  0  0  0  0  0  0  0  0  0
   12.8932   10.7839   -5.8507 H   0  0  0  0  0  0  0  0  0  0  0  0
   11.8516   10.0822   -7.0683 H   0  0  0  0  0  0  0  0  0  0  0  0
   12.0309    6.4387   -7.4090 H   0  0  0  0  0  0  0  0  0  0  0  0
   10.6945    5.7727   -6.4656 H   0  0  0  0  0  0  0  0  0  0  0  0
    9.9682    5.4802  -11.4057 H   0  0  0  0  0  0  0  0  0  0  0  0
  2  1  1  0
  3  2  1  0
  4  3  1  0
  5  4  1  0
  6  5  1  0
  7  6  1  0
  8  7  1  6
  9  8  1  0
 10  5  1  0
 10  9  1  0
 11  8  1  0
 12 11  1  0
 13 12  1  0
 14 13  1  0
 15 14  2  0
 16 15  1  0
 17 16  2  0
 18 17  1  0
 19 14  1  0
 19 18  2  0
 20 19  1  0
 21 20  1  0
 22  8  1  0
 22 13  1  0
 23  1  1  0
 24  1  1  0
 25  1  1  0
 26  2  1  0
 27  2  1  0
 28  3  1  0
 29  3  1  0
 30  4  1  0
 31  4  1  0
 32  6  1  0
 33  6  1  0
 34  7  1  0
 35  7  1  0
 36  9  1  0
 37  9  1  0
 38 10  1  0
 39 10  1  0
 40 11  1  0
 41 11  1  0
 42 12  1  0
 43 12  1  0
 44 15  1  0
 45 16  1  0
 46 17  1  0
 47 18  1  0
 48 21  1  0
 49 21  1  0
 50 21  1  0
 51 22  1  0
 52 22  1  0
  5 53  1  6
M  CHG  1   5   1
M  END
>  <b_m_subgroup_collapsed>  (879) 
0

>  <r_i_docking_score>  (879) 
-7.1969132890459599

>  <s_m_subgroup_title>  (879) 
glide-dock_SP_D22_pv

>  <s_m_subgroupid>  (879) 
glide-dock_SP_D22_pv

>  <Molecule ChEMBL ID>  (879) 
CHEMBL4453955

>  <Standard Type>  (879) 
Ki

>  <Standard Value>  (879) 
25823.0

>  <label>  (879) 
0

$$$$
CHEMBL90476
     RDKit          3D

 44 47  0  0  1  0  0  0  0  0999 V2000
   12.7225    4.6683  -16.6395 Br  0  0  0  0  0  0  0  0  0  0  0  0
   12.0506    5.4592  -15.0443 C   0  0  0  0  0  0  0  0  0  0  0  0
   12.5620    6.6815  -14.5936 C   0  0  0  0  0  0  0  0  0  0  0  0
   12.0764    7.2407  -13.3993 C   0  0  0  0  0  0  0  0  0  0  0  0
   11.0413    6.6279  -12.6477 C   0  0  0  0  0  0  0  0  0  0  0  0
   10.5708    7.2882  -11.4878 N   0  0  0  0  0  0  0  0  0  0  0  0
   11.4516    8.0521  -10.6076 C   0  0  0  0  0  0  0  0  0  0  0  0
   11.3030    7.5811   -9.1464 C   0  0  0  0  0  0  0  0  0  0  0  0
    9.8909    7.4830   -8.6997 N   0  0  0  0  0  0  0  0  0  0  0  0
    9.7249    7.0387   -7.2865 C   0  0  0  0  0  0  0  0  0  0  0  0
   10.5499    7.8088   -6.2555 C   0  0  0  0  0  0  0  0  0  0  0  0
   11.2568    7.1141   -5.2468 C   0  0  0  0  0  0  0  0  0  0  0  0
   11.9557    7.8205   -4.2465 C   0  0  0  0  0  0  0  0  0  0  0  0
   11.9684    9.2281   -4.2568 C   0  0  0  0  0  0  0  0  0  0  0  0
   11.2862    9.9257   -5.2714 C   0  0  0  0  0  0  0  0  0  0  0  0
   10.5857    9.2195   -6.2672 C   0  0  0  0  0  0  0  0  0  0  0  0
    9.1155    6.6290   -9.6341 C   0  0  0  0  0  0  0  0  0  0  0  0
    9.1829    7.1972  -11.0621 C   0  0  0  0  0  0  0  0  0  0  0  0
   10.5189    5.3700  -13.0886 C   0  0  0  0  0  0  0  0  0  0  0  0
    9.5507    4.4193  -12.5913 C   0  0  0  0  0  0  0  0  0  0  0  0
    9.5080    3.3729  -13.4731 C   0  0  0  0  0  0  0  0  0  0  0  0
   10.4036    3.6158  -14.4933 N   0  0  0  0  0  0  0  0  0  0  0  0
   11.0532    4.8166  -14.2956 C   0  0  0  0  0  0  0  0  0  0  0  0
   13.3421    7.1802  -15.1497 H   0  0  0  0  0  0  0  0  0  0  0  0
   12.5097    8.1722  -13.0805 H   0  0  0  0  0  0  0  0  0  0  0  0
   11.1984    9.1098  -10.6810 H   0  0  0  0  0  0  0  0  0  0  0  0
   12.4965    7.9555  -10.9024 H   0  0  0  0  0  0  0  0  0  0  0  0
   11.9029    8.2173   -8.4961 H   0  0  0  0  0  0  0  0  0  0  0  0
   11.6860    6.5725   -9.0713 H   0  0  0  0  0  0  0  0  0  0  0  0
    9.9757    5.9787   -7.2179 H   0  0  0  0  0  0  0  0  0  0  0  0
    8.6722    7.1248   -7.0088 H   0  0  0  0  0  0  0  0  0  0  0  0
   11.2440    6.0345   -5.2155 H   0  0  0  0  0  0  0  0  0  0  0  0
   12.4802    7.2816   -3.4706 H   0  0  0  0  0  0  0  0  0  0  0  0
   12.5018    9.7716   -3.4894 H   0  0  0  0  0  0  0  0  0  0  0  0
   11.2878   11.0056   -5.2850 H   0  0  0  0  0  0  0  0  0  0  0  0
   10.0826    9.7728   -7.0429 H   0  0  0  0  0  0  0  0  0  0  0  0
    9.5032    5.6090   -9.6145 H   0  0  0  0  0  0  0  0  0  0  0  0
    8.0856    6.5712   -9.2994 H   0  0  0  0  0  0  0  0  0  0  0  0
    8.7587    8.2022  -11.0694 H   0  0  0  0  0  0  0  0  0  0  0  0
    8.5620    6.6297  -11.7516 H   0  0  0  0  0  0  0  0  0  0  0  0
    8.9726    4.4999  -11.6842 H   0  0  0  0  0  0  0  0  0  0  0  0
    8.9206    2.4655  -13.4497 H   0  0  0  0  0  0  0  0  0  0  0  0
   10.5606    2.9798  -15.2626 H   0  0  0  0  0  0  0  0  0  0  0  0
    9.4904    8.4074   -8.7667 H   0  0  0  0  0  0  0  0  0  0  0  0
  2  1  1  0
  3  2  1  0
  4  3  2  0
  5  4  1  0
  6  5  1  0
  7  6  1  0
  8  7  1  0
  9  8  1  0
 10  9  1  0
 11 10  1  0
 12 11  2  0
 13 12  1  0
 14 13  2  0
 15 14  1  0
 16 11  1  0
 16 15  2  0
 17  9  1  0
 18  6  1  0
 18 17  1  0
 19  5  2  0
 20 19  1  0
 21 20  2  0
 22 21  1  0
 23  2  2  0
 23 19  1  0
 23 22  1  0
 24  3  1  0
 25  4  1  0
 26  7  1  0
 27  7  1  0
 28  8  1  0
 29  8  1  0
 30 10  1  0
 31 10  1  0
 32 12  1  0
 33 13  1  0
 34 14  1  0
 35 15  1  0
 36 16  1  0
 37 17  1  0
 38 17  1  0
 39 18  1  0
 40 18  1  0
 41 20  1  0
 42 21  1  0
 43 22  1  0
 44  9  1  0
M  CHG  1   9   1
M  END
>  <b_m_subgroup_collapsed>  (880) 
0

>  <r_i_docking_score>  (880) 
-7.1963932514147801

>  <s_m_subgroup_title>  (880) 
glide-dock_SP_D22_pv

>  <s_m_subgroupid>  (880) 
glide-dock_SP_D22_pv

>  <Molecule ChEMBL ID>  (880) 
CHEMBL90476

>  <Standard Type>  (880) 
Ki

>  <Standard Value>  (880) 
47.0

>  <label>  (880) 
1

$$$$
CHEMBL3794079
     RDKit          3D

 48 50  0  0  1  0  0  0  0  0999 V2000
    9.0427    3.1843  -14.2668 C   0  0  0  0  0  0  0  0  0  0  0  0
    9.3481    4.4382  -13.4679 C   0  0  0  0  0  0  0  0  0  0  0  0
    8.3355    5.0202  -12.6794 C   0  0  0  0  0  0  0  0  0  0  0  0
    8.6030    6.1644  -11.9056 C   0  0  0  0  0  0  0  0  0  0  0  0
    9.8931    6.7416  -11.8954 C   0  0  0  0  0  0  0  0  0  0  0  0
   10.2251    7.9695  -11.0463 C   0  0  0  0  0  0  0  0  0  0  0  0
   10.4517    7.7213   -9.6204 N   0  0  0  0  0  0  0  0  0  0  0  0
    9.2090    7.3398   -8.9587 C   0  0  0  0  0  0  0  0  0  0  0  0
    9.3409    7.1818   -7.4440 C   0  0  0  0  0  0  0  0  0  0  0  0
    9.8367    8.4022   -6.9200 O   0  0  0  0  0  0  0  0  0  0  0  0
   11.1188    8.7452   -7.4391 C   0  0  2  0  0  0  0  0  0  0  0  0
   11.6523    9.9745   -6.6696 C   0  0  0  0  0  0  0  0  0  0  0  0
   10.9859   10.1724   -5.0036 S   0  0  0  0  0  0  0  0  0  0  0  0
   11.6659    8.9210   -3.9929 C   0  0  0  0  0  0  0  0  0  0  0  0
   11.6823    7.5813   -4.4186 C   0  0  0  0  0  0  0  0  0  0  0  0
   12.0860    6.5724   -3.5451 C   0  0  0  0  0  0  0  0  0  0  0  0
   12.4859    6.8931   -2.2469 C   0  0  0  0  0  0  0  0  0  0  0  0
   12.4861    8.2346   -1.8232 C   0  0  0  0  0  0  0  0  0  0  0  0
   12.0862    9.2549   -2.6971 C   0  0  0  0  0  0  0  0  0  0  0  0
   10.9821    8.9238   -8.9656 C   0  0  0  0  0  0  0  0  0  0  0  0
   10.8864    6.1833  -12.7225 C   0  0  0  0  0  0  0  0  0  0  0  0
   10.6321    5.0312  -13.4974 C   0  0  0  0  0  0  0  0  0  0  0  0
   11.7477    4.4402  -14.3401 C   0  0  0  0  0  0  0  0  0  0  0  0
    9.1358    3.3807  -15.3354 H   0  0  0  0  0  0  0  0  0  0  0  0
    9.7296    2.3807  -13.9948 H   0  0  0  0  0  0  0  0  0  0  0  0
    8.0303    2.8284  -14.0727 H   0  0  0  0  0  0  0  0  0  0  0  0
    7.3462    4.5862  -12.6502 H   0  0  0  0  0  0  0  0  0  0  0  0
    7.8044    6.5724  -11.3081 H   0  0  0  0  0  0  0  0  0  0  0  0
    9.4339    8.7083  -11.1813 H   0  0  0  0  0  0  0  0  0  0  0  0
   11.1295    8.4205  -11.4473 H   0  0  0  0  0  0  0  0  0  0  0  0
    8.8155    6.4094   -9.3630 H   0  0  0  0  0  0  0  0  0  0  0  0
    8.4859    8.1219   -9.1521 H   0  0  0  0  0  0  0  0  0  0  0  0
   10.0020    6.3527   -7.1907 H   0  0  0  0  0  0  0  0  0  0  0  0
    8.3693    6.9701   -6.9984 H   0  0  0  0  0  0  0  0  0  0  0  0
   11.8138    7.9216   -7.2790 H   0  0  0  0  0  0  0  0  0  0  0  0
   11.3278   10.9000   -7.1182 H   0  0  0  0  0  0  0  0  0  0  0  0
   12.7416    9.9877   -6.6471 H   0  0  0  0  0  0  0  0  0  0  0  0
   11.3163    7.2739   -5.3765 H   0  0  0  0  0  0  0  0  0  0  0  0
   12.0857    5.5514   -3.8811 H   0  0  0  0  0  0  0  0  0  0  0  0
   12.8026    6.1074   -1.5751 H   0  0  0  0  0  0  0  0  0  0  0  0
   12.8049    8.4852   -0.8251 H   0  0  0  0  0  0  0  0  0  0  0  0
   12.0742   10.2817   -2.3626 H   0  0  0  0  0  0  0  0  0  0  0  0
   10.3281    9.7720   -9.1695 H   0  0  0  0  0  0  0  0  0  0  0  0
   11.9536    9.1744   -9.3920 H   0  0  0  0  0  0  0  0  0  0  0  0
   11.8697    6.6292  -12.7405 H   0  0  0  0  0  0  0  0  0  0  0  0
   12.6587    5.0369  -14.2729 H   0  0  0  0  0  0  0  0  0  0  0  0
   11.9829    3.4297  -14.0056 H   0  0  0  0  0  0  0  0  0  0  0  0
   11.4528    4.3966  -15.3890 H   0  0  0  0  0  0  0  0  0  0  0  0
  2  1  1  0
  3  2  1  0
  4  3  2  0
  5  4  1  0
  6  5  1  0
  7  6  1  0
  8  7  1  0
  9  8  1  0
 10  9  1  0
 11 10  1  0
 12 11  1  0
 13 12  1  0
 14 13  1  0
 15 14  2  0
 16 15  1  0
 17 16  2  0
 18 17  1  0
 19 14  1  0
 19 18  2  0
 20  7  1  0
 20 11  1  0
 21  5  2  0
 22  2  2  0
 22 21  1  0
 23 22  1  0
 24  1  1  0
 25  1  1  0
 26  1  1  0
 27  3  1  0
 28  4  1  0
 29  6  1  0
 30  6  1  0
 31  8  1  0
 32  8  1  0
 33  9  1  0
 34  9  1  0
 11 35  1  6
 36 12  1  0
 37 12  1  0
 38 15  1  0
 39 16  1  0
 40 17  1  0
 41 18  1  0
 42 19  1  0
 43 20  1  0
 44 20  1  0
 45 21  1  0
 46 23  1  0
 47 23  1  0
 48 23  1  0
M  END
>  <b_m_subgroup_collapsed>  (881) 
0

>  <r_i_docking_score>  (881) 
-7.1953922130415897

>  <s_m_subgroup_title>  (881) 
glide-dock_SP_D22_pv

>  <s_m_subgroupid>  (881) 
glide-dock_SP_D22_pv

>  <Molecule ChEMBL ID>  (881) 
CHEMBL3794079

>  <Standard Type>  (881) 
Ki

>  <Standard Value>  (881) 
10000.0

>  <label>  (881) 
0

$$$$
CHEMBL179649
     RDKit          3D

 59 62  0  0  1  0  0  0  0  0999 V2000
   10.5788    6.6346   -7.4975 C   0  0  0  0  0  0  0  0  0  0  0  0
    9.1753    7.0436   -7.9855 C   0  0  0  0  0  0  0  0  0  0  0  0
    8.8860    6.7028   -9.4039 N   0  0  0  0  0  0  0  0  0  0  0  0
    8.8000    5.2422   -9.6670 C   0  0  0  0  0  0  0  0  0  0  0  0
    8.3403    4.9727  -11.1105 C   0  0  0  0  0  0  0  0  0  0  0  0
    9.2238    5.6629  -12.0497 N   0  0  0  0  0  0  0  0  0  0  0  0
    9.8180    4.9835  -13.1403 C   0  0  0  0  0  0  0  0  0  0  0  0
   10.8384    5.5705  -13.9241 C   0  0  0  0  0  0  0  0  0  0  0  0
   11.3592    4.8738  -15.0315 C   0  0  0  0  0  0  0  0  0  0  0  0
   12.3023    5.5633  -15.9172 C   0  0  0  0  0  0  0  0  0  0  0  0
   13.6857    5.5159  -15.6784 C   0  0  0  0  0  0  0  0  0  0  0  0
   14.5902    6.1728  -16.5331 C   0  0  0  0  0  0  0  0  0  0  0  0
   14.1116    6.9008  -17.6357 C   0  0  0  0  0  0  0  0  0  0  0  0
   14.9785    7.5341  -18.4587 F   0  0  0  0  0  0  0  0  0  0  0  0
   12.7273    6.9725  -17.8792 C   0  0  0  0  0  0  0  0  0  0  0  0
   11.8292    6.3015  -17.0254 C   0  0  0  0  0  0  0  0  0  0  0  0
   10.9153    3.5520  -15.2733 C   0  0  0  0  0  0  0  0  0  0  0  0
    9.8940    3.0402  -14.4396 C   0  0  0  0  0  0  0  0  0  0  0  0
    9.3581    3.7456  -13.4231 N   0  0  0  0  0  0  0  0  0  0  0  0
    9.2488    1.6809  -14.6781 C   0  0  0  0  0  0  0  0  0  0  0  0
    8.0899    1.7374  -15.6916 C   0  0  0  0  0  0  0  0  0  0  0  0
    8.4851    1.7556  -17.1884 C   0  0  1  0  0  0  0  0  0  0  0  0
    7.2745    1.6844  -17.9162 O   0  0  0  0  0  0  0  0  0  0  0  0
    9.2174    3.0240  -17.6811 C   0  0  0  0  0  0  0  0  0  0  0  0
   10.7510    2.9225  -17.7533 C   0  0  0  0  0  0  0  0  0  0  0  0
   11.4895    2.7276  -16.4216 C   0  0  0  0  0  0  0  0  0  0  0  0
    9.3281    7.1068  -11.8401 C   0  0  0  0  0  0  0  0  0  0  0  0
    9.7530    7.4099  -10.3890 C   0  0  0  0  0  0  0  0  0  0  0  0
   10.7009    6.8785   -6.4410 H   0  0  0  0  0  0  0  0  0  0  0  0
   10.7560    5.5649   -7.6055 H   0  0  0  0  0  0  0  0  0  0  0  0
   11.3660    7.1625   -8.0332 H   0  0  0  0  0  0  0  0  0  0  0  0
    9.0366    8.1178   -7.8475 H   0  0  0  0  0  0  0  0  0  0  0  0
    8.4220    6.5668   -7.3538 H   0  0  0  0  0  0  0  0  0  0  0  0
    8.0972    4.7831   -8.9695 H   0  0  0  0  0  0  0  0  0  0  0  0
    9.7728    4.7732   -9.5003 H   0  0  0  0  0  0  0  0  0  0  0  0
    7.3235    5.3446  -11.2515 H   0  0  0  0  0  0  0  0  0  0  0  0
    8.2990    3.8988  -11.2804 H   0  0  0  0  0  0  0  0  0  0  0  0
   11.2217    6.5586  -13.7277 H   0  0  0  0  0  0  0  0  0  0  0  0
   14.0582    4.9722  -14.8238 H   0  0  0  0  0  0  0  0  0  0  0  0
   15.6510    6.1207  -16.3378 H   0  0  0  0  0  0  0  0  0  0  0  0
   12.3547    7.5378  -18.7226 H   0  0  0  0  0  0  0  0  0  0  0  0
   10.7655    6.3582  -17.2162 H   0  0  0  0  0  0  0  0  0  0  0  0
    8.8511    1.3390  -13.7237 H   0  0  0  0  0  0  0  0  0  0  0  0
    9.9744    0.9140  -14.9465 H   0  0  0  0  0  0  0  0  0  0  0  0
    7.4348    2.5773  -15.4560 H   0  0  0  0  0  0  0  0  0  0  0  0
    7.4882    0.8421  -15.5247 H   0  0  0  0  0  0  0  0  0  0  0  0
    9.0677    0.8667  -17.4358 H   0  0  0  0  0  0  0  0  0  0  0  0
    6.8336    0.8753  -17.6888 H   0  0  0  0  0  0  0  0  0  0  0  0
    8.8942    3.2455  -18.7005 H   0  0  0  0  0  0  0  0  0  0  0  0
    8.9094    3.8926  -17.0993 H   0  0  0  0  0  0  0  0  0  0  0  0
   11.1051    3.8513  -18.2000 H   0  0  0  0  0  0  0  0  0  0  0  0
   11.0440    2.1373  -18.4511 H   0  0  0  0  0  0  0  0  0  0  0  0
   12.5438    2.9660  -16.5553 H   0  0  0  0  0  0  0  0  0  0  0  0
   11.5067    1.6703  -16.1646 H   0  0  0  0  0  0  0  0  0  0  0  0
   10.0038    7.6057  -12.5273 H   0  0  0  0  0  0  0  0  0  0  0  0
    8.3446    7.5434  -12.0282 H   0  0  0  0  0  0  0  0  0  0  0  0
    9.7058    8.4844  -10.2102 H   0  0  0  0  0  0  0  0  0  0  0  0
   10.7882    7.1023  -10.2534 H   0  0  0  0  0  0  0  0  0  0  0  0
    7.9423    7.0572   -9.5780 H   0  0  0  0  0  0  0  0  0  0  0  0
  2  1  1  0
  3  2  1  0
  4  3  1  0
  5  4  1  0
  6  5  1  0
  7  6  1  0
  8  7  1  0
  9  8  2  0
 10  9  1  0
 11 10  1  0
 12 11  2  0
 13 12  1  0
 14 13  1  0
 15 13  2  0
 16 10  2  0
 16 15  1  0
 17  9  1  0
 18 17  2  0
 19  7  2  0
 19 18  1  0
 20 18  1  0
 21 20  1  0
 22 21  1  0
 23 22  1  0
 24 22  1  0
 25 24  1  0
 26 17  1  0
 26 25  1  0
 27  6  1  0
 28  3  1  0
 28 27  1  0
 29  1  1  0
 30  1  1  0
 31  1  1  0
 32  2  1  0
 33  2  1  0
 34  4  1  0
 35  4  1  0
 36  5  1  0
 37  5  1  0
 38  8  1  0
 39 11  1  0
 40 12  1  0
 41 15  1  0
 42 16  1  0
 43 20  1  0
 44 20  1  0
 45 21  1  0
 46 21  1  0
 22 47  1  1
 48 23  1  0
 49 24  1  0
 50 24  1  0
 51 25  1  0
 52 25  1  0
 53 26  1  0
 54 26  1  0
 55 27  1  0
 56 27  1  0
 57 28  1  0
 58 28  1  0
 59  3  1  0
M  CHG  1   3   1
M  END
>  <b_m_subgroup_collapsed>  (882) 
0

>  <r_i_docking_score>  (882) 
-7.19264551396956

>  <s_m_subgroup_title>  (882) 
glide-dock_SP_D22_pv

>  <s_m_subgroupid>  (882) 
glide-dock_SP_D22_pv

>  <Molecule ChEMBL ID>  (882) 
CHEMBL179649

>  <Standard Type>  (882) 
Ki

>  <Standard Value>  (882) 
11.9

>  <label>  (882) 
1

$$$$
CHEMBL373873
     RDKit          3D

 65 68  0  0  1  0  0  0  0  0999 V2000
    8.8546    8.4136   -8.2539 C   0  0  0  0  0  0  0  0  0  0  0  0
   10.3342    8.3946   -8.3941 C   0  0  0  0  0  0  0  0  0  0  0  0
   11.1565    7.9447   -9.3993 C   0  0  0  0  0  0  0  0  0  0  0  0
   10.7966    7.3725  -10.7263 C   0  0  0  0  0  0  0  0  0  0  0  0
   11.5171    7.5321  -11.7107 O   0  0  0  0  0  0  0  0  0  0  0  0
    9.6857    6.6158  -10.7491 N   0  0  0  0  0  0  0  0  0  0  0  0
    9.1267    5.9452  -11.9213 C   0  0  0  0  0  0  0  0  0  0  0  0
   10.0900    4.9091  -12.5425 C   0  0  0  0  0  0  0  0  0  0  0  0
    9.4869    4.1344  -13.7160 C   0  0  0  0  0  0  0  0  0  0  0  0
   10.5532    3.3379  -14.5148 C   0  0  0  0  0  0  0  0  0  0  0  0
    9.9883    2.2896  -15.4010 N   0  0  0  0  0  0  0  0  0  0  0  0
    9.6070    1.0644  -14.6464 C   0  0  0  0  0  0  0  0  0  0  0  0
    8.9618   -0.0123  -15.5332 C   0  0  0  0  0  0  0  0  0  0  0  0
    7.9663    0.5645  -16.4207 N   0  0  0  0  0  0  0  0  0  0  0  0
    6.6727    0.0209  -16.5408 C   0  0  0  0  0  0  0  0  0  0  0  0
    6.2216   -0.3751  -17.8201 C   0  0  0  0  0  0  0  0  0  0  0  0
    4.9310   -0.9086  -17.9907 C   0  0  0  0  0  0  0  0  0  0  0  0
    4.0690   -1.0330  -16.8871 C   0  0  0  0  0  0  0  0  0  0  0  0
    4.4945   -0.6268  -15.6101 C   0  0  0  0  0  0  0  0  0  0  0  0
    3.3802   -0.6989  -14.2909 Cl  0  0  0  0  0  0  0  0  0  0  0  0
    5.7980   -0.1135  -15.4267 C   0  0  0  0  0  0  0  0  0  0  0  0
    6.2568    0.4280  -13.8460 Cl  0  0  0  0  0  0  0  0  0  0  0  0
    8.3723    1.6985  -17.2301 C   0  0  0  0  0  0  0  0  0  0  0  0
    8.9144    2.7916  -16.2997 C   0  0  0  0  0  0  0  0  0  0  0  0
   12.4738    8.1724   -9.0126 N   0  0  0  0  0  0  0  0  0  0  0  0
   12.4878    8.7275   -7.8469 N   0  0  0  0  0  0  0  0  0  0  0  0
   11.2112    8.8981   -7.4522 N   0  0  0  0  0  0  0  0  0  0  0  0
   10.9498    9.5551   -6.1798 C   0  0  0  0  0  0  0  0  0  0  0  0
   11.3360    8.7237   -4.9728 C   0  0  0  0  0  0  0  0  0  0  0  0
   11.7046    9.3750   -3.7774 C   0  0  0  0  0  0  0  0  0  0  0  0
   12.0859    8.6281   -2.6458 C   0  0  0  0  0  0  0  0  0  0  0  0
   12.0861    7.2229   -2.7043 C   0  0  0  0  0  0  0  0  0  0  0  0
   11.6864    6.5743   -3.8856 C   0  0  0  0  0  0  0  0  0  0  0  0
   11.2990    7.3147   -5.0137 C   0  0  0  0  0  0  0  0  0  0  0  0
    8.4493    7.4499   -8.5571 H   0  0  0  0  0  0  0  0  0  0  0  0
    8.5221    8.5693   -7.2277 H   0  0  0  0  0  0  0  0  0  0  0  0
    8.4179    9.1937   -8.8805 H   0  0  0  0  0  0  0  0  0  0  0  0
    9.1444    6.5607   -9.8967 H   0  0  0  0  0  0  0  0  0  0  0  0
    8.2022    5.4549  -11.6114 H   0  0  0  0  0  0  0  0  0  0  0  0
    8.8449    6.6995  -12.6579 H   0  0  0  0  0  0  0  0  0  0  0  0
   10.9910    5.4080  -12.8992 H   0  0  0  0  0  0  0  0  0  0  0  0
   10.4046    4.1905  -11.7861 H   0  0  0  0  0  0  0  0  0  0  0  0
    8.7114    3.4725  -13.3267 H   0  0  0  0  0  0  0  0  0  0  0  0
    8.9877    4.8390  -14.3840 H   0  0  0  0  0  0  0  0  0  0  0  0
   11.1355    4.0345  -15.1212 H   0  0  0  0  0  0  0  0  0  0  0  0
   11.2696    2.8728  -13.8356 H   0  0  0  0  0  0  0  0  0  0  0  0
   10.4890    0.6435  -14.1658 H   0  0  0  0  0  0  0  0  0  0  0  0
    8.9166    1.3321  -13.8472 H   0  0  0  0  0  0  0  0  0  0  0  0
    9.7170   -0.5171  -16.1372 H   0  0  0  0  0  0  0  0  0  0  0  0
    8.5040   -0.7637  -14.9012 H   0  0  0  0  0  0  0  0  0  0  0  0
    6.8698   -0.2822  -18.6784 H   0  0  0  0  0  0  0  0  0  0  0  0
    4.5948   -1.2178  -18.9698 H   0  0  0  0  0  0  0  0  0  0  0  0
    3.0726   -1.4285  -17.0220 H   0  0  0  0  0  0  0  0  0  0  0  0
    9.1398    1.3790  -17.9390 H   0  0  0  0  0  0  0  0  0  0  0  0
    7.5321    2.0821  -17.8110 H   0  0  0  0  0  0  0  0  0  0  0  0
    8.0863    3.1304  -15.6823 H   0  0  0  0  0  0  0  0  0  0  0  0
    9.2702    3.6446  -16.8777 H   0  0  0  0  0  0  0  0  0  0  0  0
    9.8951    9.7721   -6.0849 H   0  0  0  0  0  0  0  0  0  0  0  0
   11.4777   10.5113   -6.1677 H   0  0  0  0  0  0  0  0  0  0  0  0
   11.6867   10.4533   -3.7174 H   0  0  0  0  0  0  0  0  0  0  0  0
   12.3747    9.1384   -1.7375 H   0  0  0  0  0  0  0  0  0  0  0  0
   12.3861    6.6377   -1.8479 H   0  0  0  0  0  0  0  0  0  0  0  0
   11.7005    5.5043   -3.9433 H   0  0  0  0  0  0  0  0  0  0  0  0
   10.9969    6.7902   -5.9087 H   0  0  0  0  0  0  0  0  0  0  0  0
   10.7407    1.9980  -16.0097 H   0  0  0  0  0  0  0  0  0  0  0  0
  2  1  1  0
  3  2  2  0
  4  3  1  0
  5  4  2  0
  6  4  1  0
  7  6  1  0
  8  7  1  0
  9  8  1  0
 10  9  1  0
 11 10  1  0
 12 11  1  0
 13 12  1  0
 14 13  1  0
 15 14  1  0
 16 15  2  0
 17 16  1  0
 18 17  2  0
 19 18  1  0
 20 19  1  0
 21 15  1  0
 21 19  2  0
 22 21  1  0
 23 14  1  0
 24 11  1  0
 24 23  1  0
 25  3  1  0
 26 25  2  0
 27  2  1  0
 27 26  1  0
 28 27  1  0
 29 28  1  0
 30 29  2  0
 31 30  1  0
 32 31  2  0
 33 32  1  0
 34 29  1  0
 34 33  2  0
 35  1  1  0
 36  1  1  0
 37  1  1  0
 38  6  1  0
 39  7  1  0
 40  7  1  0
 41  8  1  0
 42  8  1  0
 43  9  1  0
 44  9  1  0
 45 10  1  0
 46 10  1  0
 47 12  1  0
 48 12  1  0
 49 13  1  0
 50 13  1  0
 51 16  1  0
 52 17  1  0
 53 18  1  0
 54 23  1  0
 55 23  1  0
 56 24  1  0
 57 24  1  0
 58 28  1  0
 59 28  1  0
 60 30  1  0
 61 31  1  0
 62 32  1  0
 63 33  1  0
 64 34  1  0
 65 11  1  0
M  CHG  1  11   1
M  END
>  <b_m_subgroup_collapsed>  (883) 
0

>  <r_i_docking_score>  (883) 
-7.1878329328252901

>  <s_m_subgroup_title>  (883) 
glide-dock_SP_D22_pv

>  <s_m_subgroupid>  (883) 
glide-dock_SP_D22_pv

>  <Molecule ChEMBL ID>  (883) 
CHEMBL373873

>  <Standard Type>  (883) 
Ki

>  <Standard Value>  (883) 
14.0

>  <label>  (883) 
1

$$$$
CHEMBL289196
     RDKit          3D

 42 44  0  0  1  0  0  0  0  0999 V2000
   12.6876    8.9723   -1.4469 Br  0  0  0  0  0  0  0  0  0  0  0  0
   12.0861    8.3073   -3.0940 C   0  0  0  0  0  0  0  0  0  0  0  0
   11.7559    6.9536   -3.1414 C   0  0  0  0  0  0  0  0  0  0  0  0
   11.3473    6.4108   -4.3560 C   0  0  0  0  0  0  0  0  0  0  0  0
   11.2861    7.1855   -5.5110 C   0  0  0  0  0  0  0  0  0  0  0  0
   11.5887    8.5645   -5.4699 C   0  0  0  0  0  0  0  0  0  0  0  0
   11.5441    9.3775   -6.5776 O   0  0  0  0  0  0  0  0  0  0  0  0
   11.1353    8.8180   -7.8249 C   0  0  0  0  0  0  0  0  0  0  0  0
    9.5987    8.8654   -7.9976 C   0  0  1  0  0  0  0  0  0  0  0  0
    9.1979    8.9677   -9.4700 C   0  0  0  0  0  0  0  0  0  0  0  0
    9.3238    7.6110  -10.1832 C   0  0  0  0  0  0  0  0  0  0  0  0
    8.4888    6.5658   -9.5332 N   0  0  1  0  0  0  0  0  0  0  0  0
    8.5613    5.2607  -10.2363 C   0  0  0  0  0  0  0  0  0  0  0  0
    7.8603    5.2801  -11.5825 C   0  0  0  0  0  0  0  0  0  0  0  0
    8.6084    5.5712  -12.8658 C   0  0  0  0  0  0  0  0  0  0  0  0
    8.1233    4.1739  -12.5815 C   0  0  0  0  0  0  0  0  0  0  0  0
    8.7751    6.4296   -8.0804 C   0  0  0  0  0  0  0  0  0  0  0  0
    8.7438    7.7799   -7.3285 C   0  0  0  0  0  0  0  0  0  0  0  0
   11.9889    9.1245   -4.2383 C   0  0  0  0  0  0  0  0  0  0  0  0
   11.8220    6.3333   -2.2589 H   0  0  0  0  0  0  0  0  0  0  0  0
   11.0936    5.3724   -4.4136 H   0  0  0  0  0  0  0  0  0  0  0  0
   11.0201    6.6693   -6.4131 H   0  0  0  0  0  0  0  0  0  0  0  0
   11.5884    9.4690   -8.5713 H   0  0  0  0  0  0  0  0  0  0  0  0
   11.5658    7.8420   -8.0456 H   0  0  0  0  0  0  0  0  0  0  0  0
    9.2862    9.7723   -7.5139 H   0  0  0  0  0  0  0  0  0  0  0  0
    8.1781    9.3490   -9.5514 H   0  0  0  0  0  0  0  0  0  0  0  0
    9.8226    9.7110   -9.9549 H   0  0  0  0  0  0  0  0  0  0  0  0
   10.3660    7.2899  -10.2062 H   0  0  0  0  0  0  0  0  0  0  0  0
    9.0092    7.7404  -11.2185 H   0  0  0  0  0  0  0  0  0  0  0  0
    9.6013    4.9535  -10.3595 H   0  0  0  0  0  0  0  0  0  0  0  0
    8.0860    4.4922   -9.6269 H   0  0  0  0  0  0  0  0  0  0  0  0
    6.8307    5.6327  -11.5343 H   0  0  0  0  0  0  0  0  0  0  0  0
    8.0861    6.1416  -13.6306 H   0  0  0  0  0  0  0  0  0  0  0  0
    9.6800    5.7505  -12.8029 H   0  0  0  0  0  0  0  0  0  0  0  0
    8.8863    3.4337  -12.3458 H   0  0  0  0  0  0  0  0  0  0  0  0
    7.2773    3.8060  -13.1586 H   0  0  0  0  0  0  0  0  0  0  0  0
    9.7465    5.9499   -7.9698 H   0  0  0  0  0  0  0  0  0  0  0  0
    8.0435    5.7575   -7.6304 H   0  0  0  0  0  0  0  0  0  0  0  0
    8.9787    7.6514   -6.2777 H   0  0  0  0  0  0  0  0  0  0  0  0
    7.7311    8.1723   -7.2725 H   0  0  0  0  0  0  0  0  0  0  0  0
   12.2394   10.1718   -4.1744 H   0  0  0  0  0  0  0  0  0  0  0  0
    7.5280    6.9201   -9.6330 H   0  0  0  0  0  0  0  0  0  0  0  0
  2  1  1  0
  3  2  1  0
  4  3  2  0
  5  4  1  0
  6  5  2  0
  7  6  1  0
  8  7  1  0
  9  8  1  0
 10  9  1  0
 11 10  1  0
 12 11  1  0
 13 12  1  0
 14 13  1  0
 15 14  1  0
 16 14  1  0
 16 15  1  0
 17 12  1  0
 18  9  1  0
 18 17  1  0
 19  2  2  0
 19  6  1  0
 20  3  1  0
 21  4  1  0
 22  5  1  0
 23  8  1  0
 24  8  1  0
  9 25  1  1
 26 10  1  0
 27 10  1  0
 28 11  1  0
 29 11  1  0
 30 13  1  0
 31 13  1  0
 32 14  1  0
 33 15  1  0
 34 15  1  0
 35 16  1  0
 36 16  1  0
 37 17  1  0
 38 17  1  0
 39 18  1  0
 40 18  1  0
 41 19  1  0
 12 42  1  1
M  CHG  1  12   1
M  END
>  <b_m_subgroup_collapsed>  (884) 
0

>  <r_i_docking_score>  (884) 
-7.18764733346433

>  <s_m_subgroup_title>  (884) 
glide-dock_SP_D22_pv

>  <s_m_subgroupid>  (884) 
glide-dock_SP_D22_pv

>  <Molecule ChEMBL ID>  (884) 
CHEMBL289196

>  <Standard Type>  (884) 
Ki

>  <Standard Value>  (884) 
10000.0

>  <label>  (884) 
0

$$$$
CHEMBL308476
     RDKit          3D

 59 63  0  0  1  0  0  0  0  0999 V2000
   11.6921    8.1112   -3.7917 C   0  0  0  0  0  0  0  0  0  0  0  0
   11.5080    6.8488   -4.3837 C   0  0  0  0  0  0  0  0  0  0  0  0
   11.2859    6.7460   -5.7700 C   0  0  0  0  0  0  0  0  0  0  0  0
   11.2853    7.8919   -6.5884 C   0  0  0  0  0  0  0  0  0  0  0  0
   11.2708    7.7692   -8.0528 C   0  0  0  0  0  0  0  0  0  0  0  0
   12.4142    8.2052   -8.7491 C   0  0  0  0  0  0  0  0  0  0  0  0
   12.4513    8.1879  -10.1473 C   0  0  0  0  0  0  0  0  0  0  0  0
   11.3259    7.7729  -10.8669 C   0  0  0  0  0  0  0  0  0  0  0  0
   10.2094    7.2197  -10.2083 C   0  0  0  0  0  0  0  0  0  0  0  0
    9.0025    6.7434  -11.0230 C   0  0  0  0  0  0  0  0  0  0  0  0
    9.1861    5.5344  -11.8872 N   0  0  0  0  0  0  0  0  0  0  0  0
    7.9257    5.2430  -12.6316 C   0  0  0  0  0  0  0  0  0  0  0  0
    8.0219    4.0226  -13.5784 C   0  0  0  0  0  0  0  0  0  0  0  0
    9.2615    4.0074  -14.3410 N   0  0  0  0  0  0  0  0  0  0  0  0
    9.2867    3.7348  -15.7202 C   0  0  0  0  0  0  0  0  0  0  0  0
    9.8458    4.7187  -16.5669 C   0  0  0  0  0  0  0  0  0  0  0  0
    9.8881    4.5408  -17.9577 C   0  0  0  0  0  0  0  0  0  0  0  0
    9.3881    3.3591  -18.5244 C   0  0  0  0  0  0  0  0  0  0  0  0
    8.8538    2.3473  -17.7035 C   0  0  0  0  0  0  0  0  0  0  0  0
    8.7862    2.5277  -16.2918 C   0  0  0  0  0  0  0  0  0  0  0  0
    8.2251    1.3984  -15.4173 C   0  0  0  0  0  0  0  0  0  0  0  0
    7.5263    0.2883  -16.2173 C   0  0  0  0  0  0  0  0  0  0  0  0
    8.2865   -0.0137  -17.5051 C   0  0  0  0  0  0  0  0  0  0  0  0
    8.3978    1.1790  -18.3295 N   0  0  0  0  0  0  0  0  0  0  0  0
   10.5052    4.3355  -13.6691 C   0  0  0  0  0  0  0  0  0  0  0  0
   10.3394    5.6092  -12.8256 C   0  0  0  0  0  0  0  0  0  0  0  0
   10.1869    7.2258   -8.7907 C   0  0  0  0  0  0  0  0  0  0  0  0
   11.4321    9.1588   -5.9794 C   0  0  0  0  0  0  0  0  0  0  0  0
   11.6299    9.2686   -4.5894 C   0  0  0  0  0  0  0  0  0  0  0  0
   11.8575    8.1946   -2.7268 H   0  0  0  0  0  0  0  0  0  0  0  0
   11.5422    5.9572   -3.7737 H   0  0  0  0  0  0  0  0  0  0  0  0
   11.1879    5.7723   -6.2231 H   0  0  0  0  0  0  0  0  0  0  0  0
   13.2686    8.5879   -8.2073 H   0  0  0  0  0  0  0  0  0  0  0  0
   13.3161    8.5678  -10.6685 H   0  0  0  0  0  0  0  0  0  0  0  0
   11.3480    7.8724  -11.9403 H   0  0  0  0  0  0  0  0  0  0  0  0
    8.1866    6.5279  -10.3298 H   0  0  0  0  0  0  0  0  0  0  0  0
    8.6697    7.5843  -11.6348 H   0  0  0  0  0  0  0  0  0  0  0  0
    7.1018    5.0987  -11.9289 H   0  0  0  0  0  0  0  0  0  0  0  0
    7.6750    6.1199  -13.2311 H   0  0  0  0  0  0  0  0  0  0  0  0
    7.9727    3.0917  -13.0294 H   0  0  0  0  0  0  0  0  0  0  0  0
    7.1602    4.0259  -14.2475 H   0  0  0  0  0  0  0  0  0  0  0  0
   10.2266    5.6407  -16.1513 H   0  0  0  0  0  0  0  0  0  0  0  0
   10.3010    5.3131  -18.5911 H   0  0  0  0  0  0  0  0  0  0  0  0
    9.4302    3.2288  -19.5969 H   0  0  0  0  0  0  0  0  0  0  0  0
    9.0520    0.9739  -14.8470 H   0  0  0  0  0  0  0  0  0  0  0  0
    7.5002    1.7738  -14.7016 H   0  0  0  0  0  0  0  0  0  0  0  0
    7.4111   -0.6163  -15.6137 H   0  0  0  0  0  0  0  0  0  0  0  0
    6.5171    0.6126  -16.4784 H   0  0  0  0  0  0  0  0  0  0  0  0
    9.2858   -0.3858  -17.2752 H   0  0  0  0  0  0  0  0  0  0  0  0
    7.7759   -0.7938  -18.0707 H   0  0  0  0  0  0  0  0  0  0  0  0
    8.6155    1.0378  -19.3062 H   0  0  0  0  0  0  0  0  0  0  0  0
   10.7973    3.4916  -13.0456 H   0  0  0  0  0  0  0  0  0  0  0  0
   11.3174    4.4696  -14.3859 H   0  0  0  0  0  0  0  0  0  0  0  0
   10.2047    6.4823  -13.4509 H   0  0  0  0  0  0  0  0  0  0  0  0
   11.2815    5.7723  -12.3257 H   0  0  0  0  0  0  0  0  0  0  0  0
    9.3144    6.8674   -8.2649 H   0  0  0  0  0  0  0  0  0  0  0  0
   11.4361   10.0524   -6.5866 H   0  0  0  0  0  0  0  0  0  0  0  0
   11.7478   10.2354   -4.1278 H   0  0  0  0  0  0  0  0  0  0  0  0
    9.3594    4.7537  -11.2708 H   0  0  0  0  0  0  0  0  0  0  0  0
  2  1  2  0
  3  2  1  0
  4  3  2  0
  5  4  1  0
  6  5  1  0
  7  6  2  0
  8  7  1  0
  9  8  2  0
 10  9  1  0
 11 10  1  0
 12 11  1  0
 13 12  1  0
 14 13  1  0
 15 14  1  0
 16 15  2  0
 17 16  1  0
 18 17  2  0
 19 18  1  0
 20 15  1  0
 20 19  2  0
 21 20  1  0
 22 21  1  0
 23 22  1  0
 24 19  1  0
 24 23  1  0
 25 14  1  0
 26 11  1  0
 26 25  1  0
 27  5  2  0
 27  9  1  0
 28  4  1  0
 29  1  1  0
 29 28  2  0
 30  1  1  0
 31  2  1  0
 32  3  1  0
 33  6  1  0
 34  7  1  0
 35  8  1  0
 36 10  1  0
 37 10  1  0
 38 12  1  0
 39 12  1  0
 40 13  1  0
 41 13  1  0
 42 16  1  0
 43 17  1  0
 44 18  1  0
 45 21  1  0
 46 21  1  0
 47 22  1  0
 48 22  1  0
 49 23  1  0
 50 23  1  0
 51 24  1  0
 52 25  1  0
 53 25  1  0
 54 26  1  0
 55 26  1  0
 56 27  1  0
 57 28  1  0
 58 29  1  0
 59 11  1  0
M  CHG  1  11   1
M  END
>  <b_m_subgroup_collapsed>  (885) 
0

>  <r_i_docking_score>  (885) 
-7.1865998292731499

>  <s_m_subgroup_title>  (885) 
glide-dock_SP_D22_pv

>  <s_m_subgroupid>  (885) 
glide-dock_SP_D22_pv

>  <Molecule ChEMBL ID>  (885) 
CHEMBL308476

>  <Standard Type>  (885) 
Ki

>  <Standard Value>  (885) 
4.0

>  <label>  (885) 
1

$$$$
CHEMBL1214893
     RDKit          3D

 56 59  0  0  1  0  0  0  0  0999 V2000
    4.7119   -0.9759  -17.9737 F   0  0  0  0  0  0  0  0  0  0  0  0
    3.9087   -1.5028  -17.0499 C   0  0  0  0  0  0  0  0  0  0  0  0
    4.2166   -0.9083  -15.6702 C   0  0  0  0  0  0  0  0  0  0  0  0
    5.6265   -1.2625  -15.1655 C   0  0  0  0  0  0  0  0  0  0  0  0
    5.8368   -0.7675  -13.8471 O   0  0  0  0  0  0  0  0  0  0  0  0
    6.0070    0.5877  -13.6780 C   0  0  0  0  0  0  0  0  0  0  0  0
    5.3973    1.1766  -12.5563 C   0  0  0  0  0  0  0  0  0  0  0  0
    5.4976    2.5604  -12.3126 C   0  0  0  0  0  0  0  0  0  0  0  0
    6.2671    3.3726  -13.1619 C   0  0  0  0  0  0  0  0  0  0  0  0
    6.3460    4.8702  -12.9129 C   0  0  0  0  0  0  0  0  0  0  0  0
    7.6429    5.3552  -12.4358 N   0  0  0  0  0  0  0  0  0  0  0  0
    7.6859    5.1724  -10.9877 C   0  0  0  0  0  0  0  0  0  0  0  0
    9.0179    5.6557  -10.4052 C   0  0  0  0  0  0  0  0  0  0  0  0
    9.1724    7.1091  -10.6558 N   0  0  0  0  0  0  0  0  0  0  0  0
   10.4337    7.6847  -10.1181 C   0  0  0  0  0  0  0  0  0  0  0  0
   10.5615    7.7260   -8.6222 C   0  0  0  0  0  0  0  0  0  0  0  0
   10.7162    6.7351   -7.6775 C   0  0  0  0  0  0  0  0  0  0  0  0
   11.0070    7.4024   -6.4402 C   0  0  0  0  0  0  0  0  0  0  0  0
   11.3287    7.0252   -5.1158 C   0  0  0  0  0  0  0  0  0  0  0  0
   11.6860    7.9977   -4.1534 C   0  0  0  0  0  0  0  0  0  0  0  0
   11.6513    9.3712   -4.4747 C   0  0  0  0  0  0  0  0  0  0  0  0
   11.2901    9.7774   -5.7747 C   0  0  0  0  0  0  0  0  0  0  0  0
   10.9933    8.7891   -6.7300 C   0  0  0  0  0  0  0  0  0  0  0  0
   10.6943    8.9724   -8.0648 O   0  0  0  0  0  0  0  0  0  0  0  0
    9.0321    7.3773  -12.1086 C   0  0  0  0  0  0  0  0  0  0  0  0
    7.7161    6.7993  -12.6656 C   0  0  0  0  0  0  0  0  0  0  0  0
    6.9353    2.7770  -14.2540 C   0  0  0  0  0  0  0  0  0  0  0  0
    6.7937    1.3987  -14.5272 C   0  0  0  0  0  0  0  0  0  0  0  0
    4.0415   -2.5863  -17.0628 H   0  0  0  0  0  0  0  0  0  0  0  0
    2.8858   -1.2853  -17.3547 H   0  0  0  0  0  0  0  0  0  0  0  0
    3.4791   -1.2767  -14.9564 H   0  0  0  0  0  0  0  0  0  0  0  0
    4.0923    0.1721  -15.7072 H   0  0  0  0  0  0  0  0  0  0  0  0
    6.3997   -0.9369  -15.8598 H   0  0  0  0  0  0  0  0  0  0  0  0
    5.7048   -2.3486  -15.1110 H   0  0  0  0  0  0  0  0  0  0  0  0
    4.8861    0.5455  -11.8526 H   0  0  0  0  0  0  0  0  0  0  0  0
    5.0211    2.9910  -11.4471 H   0  0  0  0  0  0  0  0  0  0  0  0
    6.0914    5.3483  -13.8468 H   0  0  0  0  0  0  0  0  0  0  0  0
    5.5532    5.1699  -12.2244 H   0  0  0  0  0  0  0  0  0  0  0  0
    6.8860    5.7697  -10.5477 H   0  0  0  0  0  0  0  0  0  0  0  0
    7.5170    4.1281  -10.7282 H   0  0  0  0  0  0  0  0  0  0  0  0
    9.0065    5.4592   -9.3352 H   0  0  0  0  0  0  0  0  0  0  0  0
    9.8497    5.0954  -10.8334 H   0  0  0  0  0  0  0  0  0  0  0  0
   11.2780    7.1296  -10.5291 H   0  0  0  0  0  0  0  0  0  0  0  0
   10.5401    8.7021  -10.4985 H   0  0  0  0  0  0  0  0  0  0  0  0
   10.6983    5.6662   -7.8227 H   0  0  0  0  0  0  0  0  0  0  0  0
   11.3496    5.9779   -4.8509 H   0  0  0  0  0  0  0  0  0  0  0  0
   11.9598    7.6866   -3.1555 H   0  0  0  0  0  0  0  0  0  0  0  0
   11.9027   10.1062   -3.7212 H   0  0  0  0  0  0  0  0  0  0  0  0
   11.2694   10.8235   -6.0429 H   0  0  0  0  0  0  0  0  0  0  0  0
    9.0506    8.4531  -12.2840 H   0  0  0  0  0  0  0  0  0  0  0  0
    9.8812    6.9518  -12.6463 H   0  0  0  0  0  0  0  0  0  0  0  0
    7.6928    6.9745  -13.7377 H   0  0  0  0  0  0  0  0  0  0  0  0
    6.8504    7.3143  -12.2469 H   0  0  0  0  0  0  0  0  0  0  0  0
    7.5584    3.3729  -14.9007 H   0  0  0  0  0  0  0  0  0  0  0  0
    7.3126    0.9763  -15.3732 H   0  0  0  0  0  0  0  0  0  0  0  0
    8.3704    7.5604  -10.2181 H   0  0  0  0  0  0  0  0  0  0  0  0
  2  1  1  0
  3  2  1  0
  4  3  1  0
  5  4  1  0
  6  5  1  0
  7  6  1  0
  8  7  2  0
  9  8  1  0
 10  9  1  0
 11 10  1  0
 12 11  1  0
 13 12  1  0
 14 13  1  0
 15 14  1  0
 16 15  1  0
 17 16  2  0
 18 17  1  0
 19 18  2  0
 20 19  1  0
 21 20  2  0
 22 21  1  0
 23 18  1  0
 23 22  2  0
 24 16  1  0
 24 23  1  0
 25 14  1  0
 26 11  1  0
 26 25  1  0
 27  9  2  0
 28  6  2  0
 28 27  1  0
 29  2  1  0
 30  2  1  0
 31  3  1  0
 32  3  1  0
 33  4  1  0
 34  4  1  0
 35  7  1  0
 36  8  1  0
 37 10  1  0
 38 10  1  0
 39 12  1  0
 40 12  1  0
 41 13  1  0
 42 13  1  0
 43 15  1  0
 44 15  1  0
 45 17  1  0
 46 19  1  0
 47 20  1  0
 48 21  1  0
 49 22  1  0
 50 25  1  0
 51 25  1  0
 52 26  1  0
 53 26  1  0
 54 27  1  0
 55 28  1  0
 56 14  1  0
M  CHG  1  14   1
M  END
>  <b_m_subgroup_collapsed>  (886) 
0

>  <r_i_docking_score>  (886) 
-7.1852745974130903

>  <s_m_subgroup_title>  (886) 
glide-dock_SP_D22_pv

>  <s_m_subgroupid>  (886) 
glide-dock_SP_D22_pv

>  <Molecule ChEMBL ID>  (886) 
CHEMBL1214893

>  <Standard Type>  (886) 
Ki

>  <Standard Value>  (886) 
10000.0

>  <label>  (886) 
0

$$$$
CHEMBL5722962
     RDKit          3D

 42 44  0  0  1  0  0  0  0  0999 V2000
   11.7264    7.8840   -2.2417 C   0  0  0  0  0  0  0  0  0  0  0  0
   12.4083    6.9652   -3.2612 C   0  0  0  0  0  0  0  0  0  0  0  0
   11.5279    6.5725   -4.4651 C   0  0  0  0  0  0  0  0  0  0  0  0
   11.2711    7.6077   -5.4576 N   0  0  0  0  0  0  0  0  0  0  0  0
   10.6337    7.4398   -6.6685 C   0  0  0  0  0  0  0  0  0  0  0  0
   10.6697    8.6331   -7.3339 C   0  0  0  0  0  0  0  0  0  0  0  0
   10.1404    8.9785   -8.6995 C   0  0  0  0  0  0  0  0  0  0  0  0
   10.1279    7.8352   -9.5980 N   0  0  0  0  0  0  0  0  0  0  0  0
    9.6078    8.2231  -10.9006 C   0  0  0  0  0  0  0  0  0  0  0  0
    9.3989    6.9996  -11.7708 C   0  0  0  0  0  0  0  0  0  0  0  0
   10.3898    6.3675  -12.4334 C   0  0  0  0  0  0  0  0  0  0  0  0
   10.1093    5.1491  -13.2294 C   0  0  0  0  0  0  0  0  0  0  0  0
   11.0029    4.5695  -13.8464 O   0  0  0  0  0  0  0  0  0  0  0  0
    8.6934    4.6718  -13.2240 C   0  0  0  0  0  0  0  0  0  0  0  0
    8.3181    3.4861  -13.8916 C   0  0  0  0  0  0  0  0  0  0  0  0
    6.9801    3.0436  -13.8482 C   0  0  0  0  0  0  0  0  0  0  0  0
    6.6292    1.8991  -14.4808 F   0  0  0  0  0  0  0  0  0  0  0  0
    6.0100    3.7818  -13.1427 C   0  0  0  0  0  0  0  0  0  0  0  0
    6.3764    4.9672  -12.4778 C   0  0  0  0  0  0  0  0  0  0  0  0
    7.7121    5.4088  -12.5175 C   0  0  0  0  0  0  0  0  0  0  0  0
    8.0859    6.5727  -11.8468 N   0  0  0  0  0  0  0  0  0  0  0  0
   11.3203    9.4984   -6.4093 C   0  0  0  0  0  0  0  0  0  0  0  0
   11.6835    8.8845   -5.2953 N   0  0  0  0  0  0  0  0  0  0  0  0
   12.4207    8.1640   -1.4495 H   0  0  0  0  0  0  0  0  0  0  0  0
   11.3589    8.8056   -2.6896 H   0  0  0  0  0  0  0  0  0  0  0  0
   10.8843    7.3745   -1.7775 H   0  0  0  0  0  0  0  0  0  0  0  0
   12.7038    6.0529   -2.7416 H   0  0  0  0  0  0  0  0  0  0  0  0
   13.3376    7.4109   -3.6106 H   0  0  0  0  0  0  0  0  0  0  0  0
   10.5721    6.1728   -4.1272 H   0  0  0  0  0  0  0  0  0  0  0  0
   12.0307    5.7720   -4.9992 H   0  0  0  0  0  0  0  0  0  0  0  0
   10.2295    6.4835   -6.9699 H   0  0  0  0  0  0  0  0  0  0  0  0
    9.1242    9.3677   -8.6190 H   0  0  0  0  0  0  0  0  0  0  0  0
   10.7382    9.7718   -9.1515 H   0  0  0  0  0  0  0  0  0  0  0  0
   11.0668    7.4825   -9.7067 H   0  0  0  0  0  0  0  0  0  0  0  0
    8.6521    8.7356  -10.7733 H   0  0  0  0  0  0  0  0  0  0  0  0
   10.2845    8.9229  -11.3908 H   0  0  0  0  0  0  0  0  0  0  0  0
   11.4092    6.7184  -12.3777 H   0  0  0  0  0  0  0  0  0  0  0  0
    9.0520    2.9038  -14.4298 H   0  0  0  0  0  0  0  0  0  0  0  0
    4.9871    3.4370  -13.1079 H   0  0  0  0  0  0  0  0  0  0  0  0
    5.6393    5.5312  -11.9243 H   0  0  0  0  0  0  0  0  0  0  0  0
    7.3923    7.0480  -11.2513 H   0  0  0  0  0  0  0  0  0  0  0  0
   11.5515   10.5475   -6.5193 H   0  0  0  0  0  0  0  0  0  0  0  0
  2  1  1  0
  3  2  1  0
  4  3  1  0
  5  4  1  0
  6  5  2  0
  7  6  1  0
  8  7  1  0
  9  8  1  0
 10  9  1  0
 11 10  2  0
 12 11  1  0
 13 12  2  0
 14 12  1  0
 15 14  2  0
 16 15  1  0
 17 16  1  0
 18 16  2  0
 19 18  1  0
 20 14  1  0
 20 19  2  0
 21 10  1  0
 21 20  1  0
 22  6  1  0
 23  4  1  0
 23 22  2  0
 24  1  1  0
 25  1  1  0
 26  1  1  0
 27  2  1  0
 28  2  1  0
 29  3  1  0
 30  3  1  0
 31  5  1  0
 32  7  1  0
 33  7  1  0
 34  8  1  0
 35  9  1  0
 36  9  1  0
 37 11  1  0
 38 15  1  0
 39 18  1  0
 40 19  1  0
 41 21  1  0
 42 22  1  0
M  END
>  <b_m_subgroup_collapsed>  (887) 
0

>  <r_i_docking_score>  (887) 
-7.1842928167142803

>  <s_m_subgroup_title>  (887) 
glide-dock_SP_D22_pv

>  <s_m_subgroupid>  (887) 
glide-dock_SP_D22_pv

>  <Molecule ChEMBL ID>  (887) 
CHEMBL5722962

>  <Standard Type>  (887) 
Ki

>  <Standard Value>  (887) 
10000.0

>  <label>  (887) 
0

$$$$
CHEMBL2335739
     RDKit          3D

 47 50  0  0  1  0  0  0  0  0999 V2000
   11.6836    9.5185   -5.6844 C   0  0  0  0  0  0  0  0  0  0  0  0
   11.2537    8.1682   -5.8029 O   0  0  0  0  0  0  0  0  0  0  0  0
   10.7742    7.7439   -7.0245 C   0  0  0  0  0  0  0  0  0  0  0  0
   10.3584    6.4066   -7.1314 C   0  0  0  0  0  0  0  0  0  0  0  0
    9.8497    5.8825   -8.3383 C   0  0  0  0  0  0  0  0  0  0  0  0
    9.7342    6.7057   -9.4828 C   0  0  0  0  0  0  0  0  0  0  0  0
   10.1487    8.0444   -9.3711 C   0  0  0  0  0  0  0  0  0  0  0  0
   10.6672    8.5628   -8.1678 C   0  0  0  0  0  0  0  0  0  0  0  0
    9.9849    8.9740  -10.5341 C   0  0  0  0  0  0  0  0  0  0  0  0
    9.4602    8.3793  -11.8353 C   0  0  0  0  0  0  0  0  0  0  0  0
    8.4892    7.3103  -11.5557 N   0  0  1  0  0  0  0  0  0  0  0  0
    7.7846    6.9065  -12.7905 C   0  0  0  0  0  0  0  0  0  0  0  0
    6.7758    5.8032  -12.5242 C   0  0  0  0  0  0  0  0  0  0  0  0
    7.4947    4.5720  -11.9579 C   0  0  1  0  0  0  0  0  0  0  0  0
    6.4486    3.7715  -11.4742 O   0  0  0  0  0  0  0  0  0  0  0  0
    8.2698    3.8233  -13.0623 C   0  0  0  0  0  0  0  0  0  0  0  0
    9.6813    3.6939  -13.0666 C   0  0  0  0  0  0  0  0  0  0  0  0
   10.3367    2.9673  -14.0794 C   0  0  0  0  0  0  0  0  0  0  0  0
    9.5951    2.3369  -15.0932 C   0  0  0  0  0  0  0  0  0  0  0  0
   10.4040    1.4155  -16.3075 Cl  0  0  0  0  0  0  0  0  0  0  0  0
    8.1935    2.4510  -15.1035 C   0  0  0  0  0  0  0  0  0  0  0  0
    7.5402    3.1933  -14.1002 C   0  0  0  0  0  0  0  0  0  0  0  0
    8.3269    4.9688  -10.7030 C   0  0  0  0  0  0  0  0  0  0  0  0
    9.1952    6.2143  -10.8377 C   0  0  2  0  0  0  0  0  0  0  0  0
   12.0440    9.6949   -4.6705 H   0  0  0  0  0  0  0  0  0  0  0  0
   12.5074    9.7378   -6.3665 H   0  0  0  0  0  0  0  0  0  0  0  0
   10.8635   10.2156   -5.8672 H   0  0  0  0  0  0  0  0  0  0  0  0
   10.4337    5.7726   -6.2628 H   0  0  0  0  0  0  0  0  0  0  0  0
    9.5527    4.8452   -8.3563 H   0  0  0  0  0  0  0  0  0  0  0  0
   10.9633    9.6001   -8.1410 H   0  0  0  0  0  0  0  0  0  0  0  0
   10.9796    9.3747  -10.7097 H   0  0  0  0  0  0  0  0  0  0  0  0
    9.3048    9.7697  -10.2227 H   0  0  0  0  0  0  0  0  0  0  0  0
   10.2873    7.9684  -12.4172 H   0  0  0  0  0  0  0  0  0  0  0  0
    9.0150    9.1676  -12.4446 H   0  0  0  0  0  0  0  0  0  0  0  0
    8.5080    6.5618  -13.5237 H   0  0  0  0  0  0  0  0  0  0  0  0
    7.2667    7.7720  -13.2052 H   0  0  0  0  0  0  0  0  0  0  0  0
    6.2343    5.5655  -13.4435 H   0  0  0  0  0  0  0  0  0  0  0  0
    6.0306    6.1721  -11.8170 H   0  0  0  0  0  0  0  0  0  0  0  0
    6.0835    4.1726  -10.6888 H   0  0  0  0  0  0  0  0  0  0  0  0
   10.2966    4.1006  -12.2850 H   0  0  0  0  0  0  0  0  0  0  0  0
   11.4116    2.8653  -14.0605 H   0  0  0  0  0  0  0  0  0  0  0  0
    7.6167    1.9640  -15.8769 H   0  0  0  0  0  0  0  0  0  0  0  0
    6.4615    3.2575  -14.1173 H   0  0  0  0  0  0  0  0  0  0  0  0
    7.6840    5.1721   -9.8521 H   0  0  0  0  0  0  0  0  0  0  0  0
    8.9752    4.1688  -10.3787 H   0  0  0  0  0  0  0  0  0  0  0  0
   10.0759    5.9599  -11.4228 H   0  0  0  0  0  0  0  0  0  0  0  0
    7.7630    7.6660  -10.9204 H   0  0  0  0  0  0  0  0  0  0  0  0
  2  1  1  0
  3  2  1  0
  4  3  1  0
  5  4  2  0
  6  5  1  0
  7  6  2  0
  8  3  2  0
  8  7  1  0
  9  7  1  0
 10  9  1  0
 11 10  1  0
 12 11  1  0
 13 12  1  0
 14 13  1  0
 14 15  1  1
 16 14  1  0
 17 16  1  0
 18 17  2  0
 19 18  1  0
 20 19  1  0
 21 19  2  0
 22 16  2  0
 22 21  1  0
 23 14  1  0
 24  6  1  0
 24 11  1  0
 24 23  1  0
 25  1  1  0
 26  1  1  0
 27  1  1  0
 28  4  1  0
 29  5  1  0
 30  8  1  0
 31  9  1  0
 32  9  1  0
 33 10  1  0
 34 10  1  0
 35 12  1  0
 36 12  1  0
 37 13  1  0
 38 13  1  0
 39 15  1  0
 40 17  1  0
 41 18  1  0
 42 21  1  0
 43 22  1  0
 44 23  1  0
 45 23  1  0
 24 46  1  6
 11 47  1  1
M  CHG  1  11   1
M  END
>  <b_m_subgroup_collapsed>  (888) 
0

>  <r_i_docking_score>  (888) 
-7.1809850264188402

>  <s_m_subgroup_title>  (888) 
glide-dock_SP_D22_pv

>  <s_m_subgroupid>  (888) 
glide-dock_SP_D22_pv

>  <Molecule ChEMBL ID>  (888) 
CHEMBL2335739

>  <Standard Type>  (888) 
Ki

>  <Standard Value>  (888) 
10000.0

>  <label>  (888) 
0

$$$$
CHEMBL4092015
     RDKit          3D

 67 71  0  0  1  0  0  0  0  0999 V2000
   13.5236    7.6815  -19.3688 C   0  0  0  0  0  0  0  0  0  0  0  0
   12.9226    6.5151  -18.8341 O   0  0  0  0  0  0  0  0  0  0  0  0
   11.5888    6.2718  -19.1009 C   0  0  0  0  0  0  0  0  0  0  0  0
   10.8095    7.1074  -19.9407 C   0  0  0  0  0  0  0  0  0  0  0  0
    9.4618    6.8093  -20.1923 C   0  0  0  0  0  0  0  0  0  0  0  0
    8.8892    5.6642  -19.6201 C   0  0  0  0  0  0  0  0  0  0  0  0
    9.6618    4.8350  -18.7875 C   0  0  0  0  0  0  0  0  0  0  0  0
   11.0182    5.1224  -18.4904 C   0  0  0  0  0  0  0  0  0  0  0  0
   11.8238    4.3405  -17.6080 N   0  0  0  0  0  0  0  0  0  0  0  0
   11.6007    2.9099  -17.4652 C   0  0  0  0  0  0  0  0  0  0  0  0
   12.1731    3.1114  -16.0583 C   0  0  0  0  0  0  0  0  0  0  0  0
   11.7393    4.5807  -16.1622 C   0  0  1  0  0  0  0  0  0  0  0  0
   12.7279    5.6914  -15.7799 C   0  0  0  0  0  0  0  0  0  0  0  0
   12.6634    6.0359  -14.2853 C   0  0  0  0  0  0  0  0  0  0  0  0
   11.2861    6.4053  -13.8982 N   0  0  2  0  0  0  0  0  0  0  0  0
   11.1854    6.9887  -12.5374 C   0  0  0  0  0  0  0  0  0  0  0  0
    9.8766    7.7575  -12.2466 C   0  0  0  0  0  0  0  0  0  0  0  0
    9.8529    8.3821  -10.8517 C   0  0  0  0  0  0  0  0  0  0  0  0
    9.6863    7.1150   -9.5639 S   0  0  0  0  0  0  0  0  0  0  0  0
   10.4471    7.9415   -8.2004 C   0  0  0  0  0  0  0  0  0  0  0  0
   11.3184    8.9419   -8.3157 N   0  0  0  0  0  0  0  0  0  0  0  0
   11.7623    9.1892   -7.0454 N   0  0  0  0  0  0  0  0  0  0  0  0
   11.1356    8.3133   -6.2549 C   0  0  0  0  0  0  0  0  0  0  0  0
   11.4726    8.2297   -4.8390 C   0  0  0  0  0  0  0  0  0  0  0  0
   11.6926    6.9867   -4.2037 C   0  0  0  0  0  0  0  0  0  0  0  0
   12.0870    6.9394   -2.8529 C   0  0  0  0  0  0  0  0  0  0  0  0
   12.2944    8.1344   -2.1405 C   0  0  0  0  0  0  0  0  0  0  0  0
   12.0843    9.3715   -2.7698 C   0  0  0  0  0  0  0  0  0  0  0  0
   11.6648    9.4196   -4.1094 C   0  0  0  0  0  0  0  0  0  0  0  0
   10.2421    7.5541   -6.9287 N   0  0  0  0  0  0  0  0  0  0  0  0
    9.2863    6.5696   -6.4565 C   0  0  0  0  0  0  0  0  0  0  0  0
   10.3478    5.2806  -14.1479 C   0  0  0  0  0  0  0  0  0  0  0  0
   10.3318    4.9284  -15.6428 C   0  0  0  0  0  0  0  0  0  0  0  0
   14.5565    7.7440  -19.0269 H   0  0  0  0  0  0  0  0  0  0  0  0
   13.5328    7.6637  -20.4580 H   0  0  0  0  0  0  0  0  0  0  0  0
   13.0072    8.5773  -19.0240 H   0  0  0  0  0  0  0  0  0  0  0  0
   11.2247    7.9886  -20.4075 H   0  0  0  0  0  0  0  0  0  0  0  0
    8.8732    7.4531  -20.8300 H   0  0  0  0  0  0  0  0  0  0  0  0
    7.8536    5.4275  -19.8076 H   0  0  0  0  0  0  0  0  0  0  0  0
    9.1792    3.9765  -18.3458 H   0  0  0  0  0  0  0  0  0  0  0  0
   10.5555    2.6026  -17.4639 H   0  0  0  0  0  0  0  0  0  0  0  0
   12.2194    2.2944  -18.1188 H   0  0  0  0  0  0  0  0  0  0  0  0
   13.2565    2.9961  -16.0100 H   0  0  0  0  0  0  0  0  0  0  0  0
   11.6703    2.5364  -15.2805 H   0  0  0  0  0  0  0  0  0  0  0  0
   12.5116    6.5982  -16.3437 H   0  0  0  0  0  0  0  0  0  0  0  0
   13.7477    5.4115  -16.0470 H   0  0  0  0  0  0  0  0  0  0  0  0
   13.3179    6.8850  -14.0929 H   0  0  0  0  0  0  0  0  0  0  0  0
   12.9996    5.1927  -13.6813 H   0  0  0  0  0  0  0  0  0  0  0  0
   12.0328    7.6516  -12.3567 H   0  0  0  0  0  0  0  0  0  0  0  0
   11.2686    6.1726  -11.8465 H   0  0  0  0  0  0  0  0  0  0  0  0
    8.9987    7.1227  -12.3581 H   0  0  0  0  0  0  0  0  0  0  0  0
    9.7666    8.5729  -12.9548 H   0  0  0  0  0  0  0  0  0  0  0  0
    9.0096    9.0683  -10.7534 H   0  0  0  0  0  0  0  0  0  0  0  0
   10.7581    8.9721  -10.7308 H   0  0  0  0  0  0  0  0  0  0  0  0
   11.5864    6.0632   -4.7517 H   0  0  0  0  0  0  0  0  0  0  0  0
   12.2469    5.9861   -2.3715 H   0  0  0  0  0  0  0  0  0  0  0  0
   12.6111    8.1097   -1.1088 H   0  0  0  0  0  0  0  0  0  0  0  0
   12.2299   10.2879   -2.2233 H   0  0  0  0  0  0  0  0  0  0  0  0
   11.5070   10.3776   -4.5813 H   0  0  0  0  0  0  0  0  0  0  0  0
    9.2357    5.7320   -7.1515 H   0  0  0  0  0  0  0  0  0  0  0  0
    9.5422    6.1753   -5.4755 H   0  0  0  0  0  0  0  0  0  0  0  0
    8.3024    7.0330   -6.4009 H   0  0  0  0  0  0  0  0  0  0  0  0
   10.6415    4.4138  -13.5527 H   0  0  0  0  0  0  0  0  0  0  0  0
    9.3360    5.5396  -13.8449 H   0  0  0  0  0  0  0  0  0  0  0  0
    9.9178    5.7724  -16.1892 H   0  0  0  0  0  0  0  0  0  0  0  0
    9.6375    4.1014  -15.8020 H   0  0  0  0  0  0  0  0  0  0  0  0
   11.0176    7.1446  -14.5315 H   0  0  0  0  0  0  0  0  0  0  0  0
  2  1  1  0
  3  2  1  0
  4  3  2  0
  5  4  1  0
  6  5  2  0
  7  6  1  0
  8  3  1  0
  8  7  2  0
  9  8  1  0
 10  9  1  0
 11 10  1  0
 12  9  1  6
 12 11  1  0
 13 12  1  0
 14 13  1  0
 15 14  1  0
 16 15  1  0
 17 16  1  0
 18 17  1  0
 19 18  1  0
 20 19  1  0
 21 20  2  0
 22 21  1  0
 23 22  2  0
 24 23  1  0
 25 24  2  0
 26 25  1  0
 27 26  2  0
 28 27  1  0
 29 24  1  0
 29 28  2  0
 30 20  1  0
 30 23  1  0
 31 30  1  0
 32 15  1  0
 33 12  1  0
 33 32  1  0
 34  1  1  0
 35  1  1  0
 36  1  1  0
 37  4  1  0
 38  5  1  0
 39  6  1  0
 40  7  1  0
 41 10  1  0
 42 10  1  0
 43 11  1  0
 44 11  1  0
 45 13  1  0
 46 13  1  0
 47 14  1  0
 48 14  1  0
 49 16  1  0
 50 16  1  0
 51 17  1  0
 52 17  1  0
 53 18  1  0
 54 18  1  0
 55 25  1  0
 56 26  1  0
 57 27  1  0
 58 28  1  0
 59 29  1  0
 60 31  1  0
 61 31  1  0
 62 31  1  0
 63 32  1  0
 64 32  1  0
 65 33  1  0
 66 33  1  0
 15 67  1  6
M  CHG  1  15   1
M  END
>  <b_m_subgroup_collapsed>  (889) 
0

>  <r_i_docking_score>  (889) 
-7.1807391801054896

>  <s_m_subgroup_title>  (889) 
glide-dock_SP_D22_pv

>  <s_m_subgroupid>  (889) 
glide-dock_SP_D22_pv

>  <Molecule ChEMBL ID>  (889) 
CHEMBL4092015

>  <Standard Type>  (889) 
Ki

>  <Standard Value>  (889) 
29300.0

>  <label>  (889) 
0

$$$$
CHEMBL3792731
     RDKit          3D

 42 44  0  0  1  0  0  0  0  0999 V2000
    9.7207    3.5267  -14.9919 Cl  0  0  0  0  0  0  0  0  0  0  0  0
    9.9681    4.8535  -13.9157 C   0  0  0  0  0  0  0  0  0  0  0  0
    8.9023    5.3259  -13.1261 C   0  0  0  0  0  0  0  0  0  0  0  0
    9.1005    6.4070  -12.2464 C   0  0  0  0  0  0  0  0  0  0  0  0
   10.3759    7.0045  -12.1280 C   0  0  0  0  0  0  0  0  0  0  0  0
   10.6270    8.1796  -11.1915 C   0  0  0  0  0  0  0  0  0  0  0  0
   10.5938    7.9150   -9.7503 N   0  0  0  0  0  0  0  0  0  0  0  0
    9.2235    7.7313   -9.2567 C   0  0  0  0  0  0  0  0  0  0  0  0
    9.1300    7.6146   -7.7284 C   0  0  0  0  0  0  0  0  0  0  0  0
    9.7669    8.7382   -7.1400 O   0  0  0  0  0  0  0  0  0  0  0  0
   11.1422    8.8457   -7.4983 C   0  0  2  0  0  0  0  0  0  0  0  0
   11.8033    9.9563   -6.6469 C   0  0  0  0  0  0  0  0  0  0  0  0
   11.0350   10.1723   -5.0283 S   0  0  0  0  0  0  0  0  0  0  0  0
   11.6634    8.9169   -3.9963 C   0  0  0  0  0  0  0  0  0  0  0  0
   12.0862    9.2548   -2.7029 C   0  0  0  0  0  0  0  0  0  0  0  0
   12.4865    8.2376   -1.8260 C   0  0  0  0  0  0  0  0  0  0  0  0
   12.4857    6.8956   -2.2469 C   0  0  0  0  0  0  0  0  0  0  0  0
   12.0850    6.5724   -3.5459 C   0  0  0  0  0  0  0  0  0  0  0  0
   11.6635    7.5771   -4.4187 C   0  0  0  0  0  0  0  0  0  0  0  0
   11.2262    9.0231   -9.0265 C   0  0  0  0  0  0  0  0  0  0  0  0
   11.4289    6.5544  -12.9563 C   0  0  0  0  0  0  0  0  0  0  0  0
   11.2298    5.4744  -13.8390 C   0  0  0  0  0  0  0  0  0  0  0  0
    7.9282    4.8648  -13.2006 H   0  0  0  0  0  0  0  0  0  0  0  0
    8.2588    6.7764  -11.6784 H   0  0  0  0  0  0  0  0  0  0  0  0
    9.9190    8.9712  -11.4400 H   0  0  0  0  0  0  0  0  0  0  0  0
   11.6127    8.5719  -11.4416 H   0  0  0  0  0  0  0  0  0  0  0  0
    8.7823    6.8283   -9.6722 H   0  0  0  0  0  0  0  0  0  0  0  0
    8.5998    8.5675   -9.5759 H   0  0  0  0  0  0  0  0  0  0  0  0
    9.5969    6.6923   -7.3799 H   0  0  0  0  0  0  0  0  0  0  0  0
    8.0873    7.5898   -7.4052 H   0  0  0  0  0  0  0  0  0  0  0  0
   11.6523    7.9091   -7.2790 H   0  0  0  0  0  0  0  0  0  0  0  0
   11.6831   10.9522   -7.0497 H   0  0  0  0  0  0  0  0  0  0  0  0
   12.8775    9.7855   -6.5442 H   0  0  0  0  0  0  0  0  0  0  0  0
   12.0840   10.2833   -2.3739 H   0  0  0  0  0  0  0  0  0  0  0  0
   12.8078    8.4910   -0.8289 H   0  0  0  0  0  0  0  0  0  0  0  0
   12.8057    6.1128   -1.5747 H   0  0  0  0  0  0  0  0  0  0  0  0
   12.0857    5.5509   -3.8798 H   0  0  0  0  0  0  0  0  0  0  0  0
   11.2803    7.2830   -5.3776 H   0  0  0  0  0  0  0  0  0  0  0  0
   10.7654    9.9644   -9.3210 H   0  0  0  0  0  0  0  0  0  0  0  0
   12.2752    9.0887   -9.3179 H   0  0  0  0  0  0  0  0  0  0  0  0
   12.4038    7.0181  -12.9033 H   0  0  0  0  0  0  0  0  0  0  0  0
   12.0429    5.1219  -14.4556 H   0  0  0  0  0  0  0  0  0  0  0  0
  2  1  1  0
  3  2  1  0
  4  3  2  0
  5  4  1  0
  6  5  1  0
  7  6  1  0
  8  7  1  0
  9  8  1  0
 10  9  1  0
 11 10  1  0
 12 11  1  0
 13 12  1  0
 14 13  1  0
 15 14  2  0
 16 15  1  0
 17 16  2  0
 18 17  1  0
 19 14  1  0
 19 18  2  0
 20  7  1  0
 20 11  1  0
 21  5  2  0
 22  2  2  0
 22 21  1  0
 23  3  1  0
 24  4  1  0
 25  6  1  0
 26  6  1  0
 27  8  1  0
 28  8  1  0
 29  9  1  0
 30  9  1  0
 11 31  1  6
 32 12  1  0
 33 12  1  0
 34 15  1  0
 35 16  1  0
 36 17  1  0
 37 18  1  0
 38 19  1  0
 39 20  1  0
 40 20  1  0
 41 21  1  0
 42 22  1  0
M  END
>  <b_m_subgroup_collapsed>  (890) 
0

>  <r_i_docking_score>  (890) 
-7.1787192560640598

>  <s_m_subgroup_title>  (890) 
glide-dock_SP_D22_pv

>  <s_m_subgroupid>  (890) 
glide-dock_SP_D22_pv

>  <Molecule ChEMBL ID>  (890) 
CHEMBL3792731

>  <Standard Type>  (890) 
Ki

>  <Standard Value>  (890) 
10000.0

>  <label>  (890) 
0

$$$$
CHEMBL314174
     RDKit          3D

 39 41  0  0  1  0  0  0  0  0999 V2000
   10.0347    0.3008  -15.7596 O   0  0  0  0  0  0  0  0  0  0  0  0
    9.0356    0.8064  -15.2558 C   0  0  0  0  0  0  0  0  0  0  0  0
    8.9074    2.0857  -14.8506 N   0  0  0  0  0  0  0  0  0  0  0  0
    7.6593    2.2711  -14.2469 C   0  0  0  0  0  0  0  0  0  0  0  0
    7.1199    3.3724  -13.5513 C   0  0  0  0  0  0  0  0  0  0  0  0
    7.8589    4.5259  -13.4271 O   0  0  0  0  0  0  0  0  0  0  0  0
    7.6969    5.2576  -12.2159 C   0  0  0  0  0  0  0  0  0  0  0  0
    8.8257    6.2967  -12.1674 C   0  0  0  0  0  0  0  0  0  0  0  0
    8.8857    7.0463  -10.8923 N   0  0  0  0  0  0  0  0  0  0  0  0
    9.4032    6.2933   -9.7358 C   0  0  0  0  0  0  0  0  0  0  0  0
   10.1063    7.2448   -8.7912 C   0  0  0  0  0  0  0  0  0  0  0  0
   11.4042    7.7021   -9.1024 C   0  0  0  0  0  0  0  0  0  0  0  0
   12.0789    8.5722   -8.2265 C   0  0  0  0  0  0  0  0  0  0  0  0
   11.4478    9.0091   -7.0470 C   0  0  0  0  0  0  0  0  0  0  0  0
   10.1437    8.5723   -6.7454 C   0  0  0  0  0  0  0  0  0  0  0  0
    9.4717    7.6904   -7.6131 C   0  0  0  0  0  0  0  0  0  0  0  0
    5.8351    3.1851  -12.9721 C   0  0  0  0  0  0  0  0  0  0  0  0
    5.1679    1.9359  -13.0688 C   0  0  0  0  0  0  0  0  0  0  0  0
    5.7530    0.8397  -13.7451 C   0  0  0  0  0  0  0  0  0  0  0  0
    7.0133    1.0525  -14.3207 C   0  0  0  0  0  0  0  0  0  0  0  0
    7.8816    0.1730  -14.9754 N   0  0  0  0  0  0  0  0  0  0  0  0
    7.7606    4.5828  -11.3601 H   0  0  0  0  0  0  0  0  0  0  0  0
    6.7270    5.7562  -12.1842 H   0  0  0  0  0  0  0  0  0  0  0  0
    8.6556    7.0095  -12.9718 H   0  0  0  0  0  0  0  0  0  0  0  0
    9.7907    5.8273  -12.3634 H   0  0  0  0  0  0  0  0  0  0  0  0
    7.9446    7.3786  -10.6463 H   0  0  0  0  0  0  0  0  0  0  0  0
   10.1117    5.5275  -10.0529 H   0  0  0  0  0  0  0  0  0  0  0  0
    8.5814    5.7806   -9.2330 H   0  0  0  0  0  0  0  0  0  0  0  0
   11.8957    7.3759  -10.0073 H   0  0  0  0  0  0  0  0  0  0  0  0
   13.0755    8.9158   -8.4657 H   0  0  0  0  0  0  0  0  0  0  0  0
   11.9620    9.6852   -6.3788 H   0  0  0  0  0  0  0  0  0  0  0  0
    9.6573    8.9161   -5.8476 H   0  0  0  0  0  0  0  0  0  0  0  0
    8.4701    7.3631   -7.3704 H   0  0  0  0  0  0  0  0  0  0  0  0
    5.3451    3.9852  -12.4378 H   0  0  0  0  0  0  0  0  0  0  0  0
    4.1828    1.8301  -12.6466 H   0  0  0  0  0  0  0  0  0  0  0  0
    5.2544   -0.1160  -13.8125 H   0  0  0  0  0  0  0  0  0  0  0  0
    7.6861   -0.8058  -15.1493 H   0  0  0  0  0  0  0  0  0  0  0  0
    9.6184    2.7993  -14.9014 H   0  0  0  0  0  0  0  0  0  0  0  0
    9.4810    7.8516  -11.0215 H   0  0  0  0  0  0  0  0  0  0  0  0
  2  1  2  0
  3  2  1  0
  4  3  1  0
  5  4  2  0
  6  5  1  0
  7  6  1  0
  8  7  1  0
  9  8  1  0
 10  9  1  0
 11 10  1  0
 12 11  2  0
 13 12  1  0
 14 13  2  0
 15 14  1  0
 16 11  1  0
 16 15  2  0
 17  5  1  0
 18 17  2  0
 19 18  1  0
 20  4  1  0
 20 19  2  0
 21  2  1  0
 21 20  1  0
 22  7  1  0
 23  7  1  0
 24  8  1  0
 25  8  1  0
 26  9  1  0
 27 10  1  0
 28 10  1  0
 29 12  1  0
 30 13  1  0
 31 14  1  0
 32 15  1  0
 33 16  1  0
 34 17  1  0
 35 18  1  0
 36 19  1  0
 37 21  1  0
 38  3  1  0
 39  9  1  0
M  CHG  1   9   1
M  END
>  <b_m_subgroup_collapsed>  (891) 
0

>  <r_i_docking_score>  (891) 
-7.1770333336159604

>  <s_m_subgroup_title>  (891) 
glide-dock_SP_D22_pv

>  <s_m_subgroupid>  (891) 
glide-dock_SP_D22_pv

>  <Molecule ChEMBL ID>  (891) 
CHEMBL314174

>  <Standard Type>  (891) 
Ki

>  <Standard Value>  (891) 
3.9

>  <label>  (891) 
1

$$$$
CHEMBL558058
     RDKit          3D

 63 66  0  0  1  0  0  0  0  0999 V2000
    8.4860    9.0239  -11.4002 C   0  0  0  0  0  0  0  0  0  0  0  0
    9.2883    8.1176  -10.5460 N   0  0  1  0  0  0  0  0  0  0  0  0
   10.0355    7.1301  -11.3791 C   0  0  0  0  0  0  0  0  0  0  0  0
    9.1848    6.3039  -12.3634 C   0  0  0  0  0  0  0  0  0  0  0  0
   10.0054    5.3830  -13.1646 N   0  0  0  0  0  0  0  0  0  0  0  0
   11.3147    5.7598  -13.6728 C   0  0  0  0  0  0  0  0  0  0  0  0
   11.6627    4.6138  -14.6066 C   0  0  0  0  0  0  0  0  0  0  0  0
   10.5407    3.6944  -14.4678 N   0  0  0  0  0  0  0  0  0  0  0  0
   10.4923    2.4544  -15.1830 C   0  0  0  0  0  0  0  0  0  0  0  0
    9.6856    1.3742  -14.7487 C   0  0  0  0  0  0  0  0  0  0  0  0
    9.6431    0.1723  -15.4737 C   0  0  0  0  0  0  0  0  0  0  0  0
   10.4141    0.0210  -16.6393 C   0  0  0  0  0  0  0  0  0  0  0  0
   11.2447    1.0710  -17.0792 C   0  0  0  0  0  0  0  0  0  0  0  0
   12.0669    0.9131  -18.3504 C   0  0  0  0  0  0  0  0  0  0  0  0
   12.4650   -0.3513  -18.5070 F   0  0  0  0  0  0  0  0  0  0  0  0
   11.3165    1.2551  -19.3974 F   0  0  0  0  0  0  0  0  0  0  0  0
   13.1477    1.6940  -18.3302 F   0  0  0  0  0  0  0  0  0  0  0  0
   11.2809    2.2779  -16.3468 C   0  0  0  0  0  0  0  0  0  0  0  0
    9.5661    4.2306  -13.6988 C   0  0  0  0  0  0  0  0  0  0  0  0
    8.4386    3.7726  -13.5172 O   0  0  0  0  0  0  0  0  0  0  0  0
   10.1514    8.8975   -9.5948 C   0  0  0  0  0  0  0  0  0  0  0  0
   10.5714    8.2159   -8.2538 C   0  0  1  0  0  0  0  0  0  0  0  0
   11.7385    7.2298   -8.3460 C   0  0  0  0  0  0  0  0  0  0  0  0
   11.5854    6.3462   -7.0929 C   0  0  0  0  0  0  0  0  0  0  0  0
   10.4738    7.0638   -6.3329 C   0  0  1  0  0  0  0  0  0  0  0  0
   11.0761    8.4103   -5.8702 C   0  0  0  0  0  0  0  0  0  0  0  0
   11.0662    9.2332   -7.1750 C   0  0  0  0  0  0  0  0  0  0  0  0
    9.5018    7.4202   -7.4785 C   0  0  0  0  0  0  0  0  0  0  0  0
    8.3357    8.2878   -7.0298 C   0  0  0  0  0  0  0  0  0  0  0  0
    8.8850    6.1774   -8.1848 C   0  0  0  0  0  0  0  0  0  0  0  0
    9.0811    9.4630  -12.1987 H   0  0  0  0  0  0  0  0  0  0  0  0
    7.6716    8.4826  -11.8690 H   0  0  0  0  0  0  0  0  0  0  0  0
    8.0131    9.8140  -10.8189 H   0  0  0  0  0  0  0  0  0  0  0  0
   10.4861    6.3795  -10.7503 H   0  0  0  0  0  0  0  0  0  0  0  0
   10.8359    7.6598  -11.8967 H   0  0  0  0  0  0  0  0  0  0  0  0
    8.6259    6.9352  -13.0467 H   0  0  0  0  0  0  0  0  0  0  0  0
    8.4388    5.7429  -11.7953 H   0  0  0  0  0  0  0  0  0  0  0  0
   11.2861    6.7116  -14.2063 H   0  0  0  0  0  0  0  0  0  0  0  0
   12.0487    5.8480  -12.8746 H   0  0  0  0  0  0  0  0  0  0  0  0
   12.6007    4.1347  -14.3261 H   0  0  0  0  0  0  0  0  0  0  0  0
   11.7485    4.9791  -15.6305 H   0  0  0  0  0  0  0  0  0  0  0  0
    9.0936    1.4422  -13.8466 H   0  0  0  0  0  0  0  0  0  0  0  0
    9.0048   -0.6276  -15.1329 H   0  0  0  0  0  0  0  0  0  0  0  0
   10.3698   -0.9046  -17.1953 H   0  0  0  0  0  0  0  0  0  0  0  0
   11.9123    3.0729  -16.7113 H   0  0  0  0  0  0  0  0  0  0  0  0
   11.0293    9.2864  -10.1143 H   0  0  0  0  0  0  0  0  0  0  0  0
    9.5788    9.7724   -9.3007 H   0  0  0  0  0  0  0  0  0  0  0  0
   11.6858    6.6031   -9.2192 H   0  0  0  0  0  0  0  0  0  0  0  0
   12.7067    7.7311   -8.3820 H   0  0  0  0  0  0  0  0  0  0  0  0
   11.2641    5.3640   -7.3992 H   0  0  0  0  0  0  0  0  0  0  0  0
   12.4845    6.1725   -6.5119 H   0  0  0  0  0  0  0  0  0  0  0  0
   10.0413    6.4730   -5.5250 H   0  0  0  0  0  0  0  0  0  0  0  0
   10.4853    8.8879   -5.0902 H   0  0  0  0  0  0  0  0  0  0  0  0
   12.0848    8.2916   -5.4674 H   0  0  0  0  0  0  0  0  0  0  0  0
   12.0517    9.6428   -7.3988 H   0  0  0  0  0  0  0  0  0  0  0  0
   10.3978   10.0854   -7.0471 H   0  0  0  0  0  0  0  0  0  0  0  0
    7.5517    7.6662   -6.6200 H   0  0  0  0  0  0  0  0  0  0  0  0
    8.5894    8.9725   -6.2451 H   0  0  0  0  0  0  0  0  0  0  0  0
    7.9359    8.8829   -7.8473 H   0  0  0  0  0  0  0  0  0  0  0  0
    8.4283    5.5160   -7.4487 H   0  0  0  0  0  0  0  0  0  0  0  0
    8.0862    6.4556   -8.8714 H   0  0  0  0  0  0  0  0  0  0  0  0
    9.5901    5.5782   -8.7555 H   0  0  0  0  0  0  0  0  0  0  0  0
    8.6004    7.6194   -9.9902 H   0  0  0  0  0  0  0  0  0  0  0  0
  2  1  1  0
  3  2  1  0
  4  3  1  0
  5  4  1  0
  6  5  1  0
  7  6  1  0
  8  7  1  0
  9  8  1  0
 10  9  1  0
 11 10  2  0
 12 11  1  0
 13 12  2  0
 14 13  1  0
 15 14  1  0
 16 14  1  0
 17 14  1  0
 18  9  2  0
 18 13  1  0
 19  5  1  0
 19  8  1  0
 20 19  2  0
 21  2  1  0
 22 21  1  6
 23 22  1  0
 24 23  1  0
 25 24  1  0
 26 25  1  0
 27 22  1  0
 27 26  1  0
 28 22  1  0
 28 25  1  0
 29 28  1  0
 30 28  1  0
 31  1  1  0
 32  1  1  0
 33  1  1  0
 34  3  1  0
 35  3  1  0
 36  4  1  0
 37  4  1  0
 38  6  1  0
 39  6  1  0
 40  7  1  0
 41  7  1  0
 42 10  1  0
 43 11  1  0
 44 12  1  0
 45 18  1  0
 46 21  1  0
 47 21  1  0
 48 23  1  0
 49 23  1  0
 50 24  1  0
 51 24  1  0
 25 52  1  1
 53 26  1  0
 54 26  1  0
 55 27  1  0
 56 27  1  0
 57 29  1  0
 58 29  1  0
 59 29  1  0
 60 30  1  0
 61 30  1  0
 62 30  1  0
  2 63  1  1
M  CHG  1   2   1
M  END
>  <b_m_subgroup_collapsed>  (892) 
0

>  <r_i_docking_score>  (892) 
-7.1761377782515003

>  <s_m_subgroup_title>  (892) 
glide-dock_SP_D22_pv

>  <s_m_subgroupid>  (892) 
glide-dock_SP_D22_pv

>  <Molecule ChEMBL ID>  (892) 
CHEMBL558058

>  <Standard Type>  (892) 
Ki

>  <Standard Value>  (892) 
19.95

>  <label>  (892) 
1

$$$$
CHEMBL432059
     RDKit          3D

 42 45  0  0  1  0  0  0  0  0999 V2000
   12.4860    8.6220   -2.0265 Cl  0  0  0  0  0  0  0  0  0  0  0  0
   11.8192    8.4246   -3.6056 C   0  0  0  0  0  0  0  0  0  0  0  0
   11.6870    7.1357   -4.1503 C   0  0  0  0  0  0  0  0  0  0  0  0
   11.1966    6.9707   -5.4570 C   0  0  0  0  0  0  0  0  0  0  0  0
   10.8120    8.0820   -6.2376 C   0  0  0  0  0  0  0  0  0  0  0  0
   10.3880    7.8924   -7.5684 N   0  0  0  0  0  0  0  0  0  0  0  0
    9.5149    6.7837   -7.9455 C   0  0  0  0  0  0  0  0  0  0  0  0
    9.8918    6.2750   -9.3525 C   0  0  0  0  0  0  0  0  0  0  0  0
    9.8422    7.3635  -10.3406 N   0  0  0  0  0  0  0  0  0  0  0  0
   10.2488    6.9098  -11.6706 C   0  0  0  0  0  0  0  0  0  0  0  0
    9.3920    5.8118  -12.2865 C   0  0  0  0  0  0  0  0  0  0  0  0
   10.0194    4.7840  -13.0380 C   0  0  0  0  0  0  0  0  0  0  0  0
    9.2785    3.7752  -13.6090 C   0  0  0  0  0  0  0  0  0  0  0  0
    7.8699    3.7766  -13.4482 C   0  0  0  0  0  0  0  0  0  0  0  0
    6.8401    2.9716  -13.8474 C   0  0  0  0  0  0  0  0  0  0  0  0
    5.6858    3.5833  -13.3048 C   0  0  0  0  0  0  0  0  0  0  0  0
    5.9265    4.6904  -12.6440 N   0  0  0  0  0  0  0  0  0  0  0  0
    7.2887    4.8232  -12.7027 N   0  0  0  0  0  0  0  0  0  0  0  0
    8.0216    5.8207  -12.1400 C   0  0  0  0  0  0  0  0  0  0  0  0
   10.7663    8.4220   -9.9249 C   0  0  0  0  0  0  0  0  0  0  0  0
   10.3809    8.9718   -8.5414 C   0  0  0  0  0  0  0  0  0  0  0  0
   10.9054    9.3729   -5.6609 C   0  0  0  0  0  0  0  0  0  0  0  0
   11.4053    9.5426   -4.3540 C   0  0  0  0  0  0  0  0  0  0  0  0
   11.9910    6.2715   -3.5762 H   0  0  0  0  0  0  0  0  0  0  0  0
   11.1600    5.9729   -5.8647 H   0  0  0  0  0  0  0  0  0  0  0  0
    8.4850    7.1423   -7.9515 H   0  0  0  0  0  0  0  0  0  0  0  0
    9.5471    5.9586   -7.2355 H   0  0  0  0  0  0  0  0  0  0  0  0
    9.2036    5.4787   -9.6355 H   0  0  0  0  0  0  0  0  0  0  0  0
   10.8860    5.8331   -9.3286 H   0  0  0  0  0  0  0  0  0  0  0  0
   11.2839    6.5727  -11.6416 H   0  0  0  0  0  0  0  0  0  0  0  0
   10.2201    7.7606  -12.3512 H   0  0  0  0  0  0  0  0  0  0  0  0
   11.0979    4.7788  -13.1594 H   0  0  0  0  0  0  0  0  0  0  0  0
    9.7540    2.9774  -14.1706 H   0  0  0  0  0  0  0  0  0  0  0  0
    6.8945    2.0638  -14.4296 H   0  0  0  0  0  0  0  0  0  0  0  0
    4.6688    3.2316  -13.3888 H   0  0  0  0  0  0  0  0  0  0  0  0
    7.4796    6.5725  -11.5750 H   0  0  0  0  0  0  0  0  0  0  0  0
   11.7887    8.0429   -9.8991 H   0  0  0  0  0  0  0  0  0  0  0  0
   10.7487    9.2342  -10.6494 H   0  0  0  0  0  0  0  0  0  0  0  0
    9.3806    9.4075   -8.5777 H   0  0  0  0  0  0  0  0  0  0  0  0
   11.0811    9.7661   -8.2711 H   0  0  0  0  0  0  0  0  0  0  0  0
   10.5998   10.2493   -6.2114 H   0  0  0  0  0  0  0  0  0  0  0  0
   11.4749   10.5326   -3.9299 H   0  0  0  0  0  0  0  0  0  0  0  0
  2  1  1  0
  3  2  1  0
  4  3  2  0
  5  4  1  0
  6  5  1  0
  7  6  1  0
  8  7  1  0
  9  8  1  0
 10  9  1  0
 11 10  1  0
 12 11  1  0
 13 12  2  0
 14 13  1  0
 15 14  2  0
 16 15  1  0
 17 16  2  0
 18 14  1  0
 18 17  1  0
 19 11  2  0
 19 18  1  0
 20  9  1  0
 21  6  1  0
 21 20  1  0
 22  5  2  0
 23  2  2  0
 23 22  1  0
 24  3  1  0
 25  4  1  0
 26  7  1  0
 27  7  1  0
 28  8  1  0
 29  8  1  0
 30 10  1  0
 31 10  1  0
 32 12  1  0
 33 13  1  0
 34 15  1  0
 35 16  1  0
 36 19  1  0
 37 20  1  0
 38 20  1  0
 39 21  1  0
 40 21  1  0
 41 22  1  0
 42 23  1  0
M  END
>  <b_m_subgroup_collapsed>  (893) 
0

>  <r_i_docking_score>  (893) 
-7.1735688381607003

>  <s_m_subgroup_title>  (893) 
glide-dock_SP_D22_pv

>  <s_m_subgroupid>  (893) 
glide-dock_SP_D22_pv

>  <Molecule ChEMBL ID>  (893) 
CHEMBL432059

>  <Standard Type>  (893) 
Ki

>  <Standard Value>  (893) 
13000.0

>  <label>  (893) 
0

$$$$
CHEMBL3590086
     RDKit          3D

 59 62  0  0  1  0  0  0  0  0999 V2000
    6.5030   -0.4046  -19.6315 C   0  0  0  0  0  0  0  0  0  0  0  0
    5.8367   -0.4773  -18.2721 C   0  0  0  0  0  0  0  0  0  0  0  0
    4.5220   -0.9621  -18.1612 C   0  0  0  0  0  0  0  0  0  0  0  0
    3.9075   -1.0302  -16.8999 C   0  0  0  0  0  0  0  0  0  0  0  0
    4.5919   -0.6047  -15.7445 C   0  0  0  0  0  0  0  0  0  0  0  0
    3.7395   -0.7123  -14.2466 Cl  0  0  0  0  0  0  0  0  0  0  0  0
    5.9240   -0.1087  -15.8369 C   0  0  0  0  0  0  0  0  0  0  0  0
    6.6401    0.3373  -14.7004 N   0  0  0  0  0  0  0  0  0  0  0  0
    8.0850    0.1455  -14.6215 C   0  0  0  0  0  0  0  0  0  0  0  0
    8.8438    1.4628  -14.8633 C   0  0  0  0  0  0  0  0  0  0  0  0
    8.3623    2.5272  -13.9474 N   0  0  0  0  0  0  0  0  0  0  0  0
    9.1735    3.7670  -14.0343 C   0  0  0  0  0  0  0  0  0  0  0  0
    8.9317    4.7501  -12.8698 C   0  0  0  0  0  0  0  0  0  0  0  0
    9.8988    5.9429  -12.9267 C   0  0  0  0  0  0  0  0  0  0  0  0
    9.3674    7.2225  -12.2415 C   0  0  0  0  0  0  0  0  0  0  0  0
    9.5756    7.2371  -10.8022 N   0  0  0  0  0  0  0  0  0  0  0  0
   10.7499    7.5575  -10.2360 C   0  0  0  0  0  0  0  0  0  0  0  0
   11.7741    7.7721  -10.8865 O   0  0  0  0  0  0  0  0  0  0  0  0
   10.7536    7.7138   -8.7461 C   0  0  0  0  0  0  0  0  0  0  0  0
    9.9538    6.8736   -7.9208 C   0  0  0  0  0  0  0  0  0  0  0  0
   10.0168    6.9714   -6.5128 C   0  0  0  0  0  0  0  0  0  0  0  0
   10.8870    7.9229   -5.9614 C   0  0  0  0  0  0  0  0  0  0  0  0
   11.1572    8.1918   -4.6529 O   0  0  0  0  0  0  0  0  0  0  0  0
   12.0590    9.2090   -4.5811 C   0  0  0  0  0  0  0  0  0  0  0  0
   12.4876    9.6912   -3.5396 O   0  0  0  0  0  0  0  0  0  0  0  0
   12.3673    9.5558   -5.8925 N   0  0  0  0  0  0  0  0  0  0  0  0
   11.6420    8.7500   -6.7601 C   0  0  0  0  0  0  0  0  0  0  0  0
   11.6177    8.6727   -8.1591 C   0  0  0  0  0  0  0  0  0  0  0  0
    6.8893    2.7314  -14.0676 C   0  0  0  0  0  0  0  0  0  0  0  0
    6.0948    1.4194  -13.8884 C   0  0  0  0  0  0  0  0  0  0  0  0
    6.5296   -0.0608  -17.1165 C   0  0  0  0  0  0  0  0  0  0  0  0
    7.5795   -0.5561  -19.5468 H   0  0  0  0  0  0  0  0  0  0  0  0
    6.1103   -1.1745  -20.2978 H   0  0  0  0  0  0  0  0  0  0  0  0
    6.3202    0.5667  -20.0871 H   0  0  0  0  0  0  0  0  0  0  0  0
    3.9759   -1.2819  -19.0368 H   0  0  0  0  0  0  0  0  0  0  0  0
    2.8960   -1.4033  -16.8165 H   0  0  0  0  0  0  0  0  0  0  0  0
    8.3130   -0.2276  -13.6245 H   0  0  0  0  0  0  0  0  0  0  0  0
    8.4181   -0.6265  -15.3147 H   0  0  0  0  0  0  0  0  0  0  0  0
    9.9089    1.2940  -14.7061 H   0  0  0  0  0  0  0  0  0  0  0  0
    8.7237    1.7899  -15.8966 H   0  0  0  0  0  0  0  0  0  0  0  0
   10.2295    3.4931  -14.0270 H   0  0  0  0  0  0  0  0  0  0  0  0
    8.9872    4.2539  -14.9915 H   0  0  0  0  0  0  0  0  0  0  0  0
    7.9108    5.1261  -12.9222 H   0  0  0  0  0  0  0  0  0  0  0  0
    9.0288    4.2496  -11.9067 H   0  0  0  0  0  0  0  0  0  0  0  0
   10.8820    5.6662  -12.5396 H   0  0  0  0  0  0  0  0  0  0  0  0
   10.0837    6.1714  -13.9743 H   0  0  0  0  0  0  0  0  0  0  0  0
    9.8678    8.1014  -12.6470 H   0  0  0  0  0  0  0  0  0  0  0  0
    8.3058    7.3672  -12.4460 H   0  0  0  0  0  0  0  0  0  0  0  0
    8.7499    7.1530  -10.2190 H   0  0  0  0  0  0  0  0  0  0  0  0
    9.2982    6.1340   -8.3594 H   0  0  0  0  0  0  0  0  0  0  0  0
    9.4154    6.3344   -5.8815 H   0  0  0  0  0  0  0  0  0  0  0  0
   13.0882   10.2201   -6.1394 H   0  0  0  0  0  0  0  0  0  0  0  0
   12.2426    9.3124   -8.7665 H   0  0  0  0  0  0  0  0  0  0  0  0
    6.5329    3.4500  -13.3313 H   0  0  0  0  0  0  0  0  0  0  0  0
    6.6632    3.1514  -15.0442 H   0  0  0  0  0  0  0  0  0  0  0  0
    5.0557    1.6031  -14.1507 H   0  0  0  0  0  0  0  0  0  0  0  0
    6.0946    1.1058  -12.8438 H   0  0  0  0  0  0  0  0  0  0  0  0
    7.5360    0.3117  -17.2304 H   0  0  0  0  0  0  0  0  0  0  0  0
    8.5275    2.1599  -13.0221 H   0  0  0  0  0  0  0  0  0  0  0  0
  2  1  1  0
  3  2  1  0
  4  3  2  0
  5  4  1  0
  6  5  1  0
  7  5  2  0
  8  7  1  0
  9  8  1  0
 10  9  1  0
 11 10  1  0
 12 11  1  0
 13 12  1  0
 14 13  1  0
 15 14  1  0
 16 15  1  0
 17 16  1  0
 18 17  2  0
 19 17  1  0
 20 19  2  0
 21 20  1  0
 22 21  2  0
 23 22  1  0
 24 23  1  0
 25 24  2  0
 26 24  1  0
 27 22  1  0
 27 26  1  0
 28 19  1  0
 28 27  2  0
 29 11  1  0
 30  8  1  0
 30 29  1  0
 31  2  2  0
 31  7  1  0
 32  1  1  0
 33  1  1  0
 34  1  1  0
 35  3  1  0
 36  4  1  0
 37  9  1  0
 38  9  1  0
 39 10  1  0
 40 10  1  0
 41 12  1  0
 42 12  1  0
 43 13  1  0
 44 13  1  0
 45 14  1  0
 46 14  1  0
 47 15  1  0
 48 15  1  0
 49 16  1  0
 50 20  1  0
 51 21  1  0
 52 26  1  0
 53 28  1  0
 54 29  1  0
 55 29  1  0
 56 30  1  0
 57 30  1  0
 58 31  1  0
 59 11  1  0
M  CHG  1  11   1
M  END
>  <b_m_subgroup_collapsed>  (894) 
0

>  <r_i_docking_score>  (894) 
-7.1721762541021201

>  <s_m_subgroup_title>  (894) 
glide-dock_SP_D22_pv

>  <s_m_subgroupid>  (894) 
glide-dock_SP_D22_pv

>  <Molecule ChEMBL ID>  (894) 
CHEMBL3590086

>  <Standard Type>  (894) 
Ki

>  <Standard Value>  (894) 
46.9

>  <label>  (894) 
1

$$$$
CHEMBL2298799
     RDKit          3D

 46 48  0  0  1  0  0  0  0  0999 V2000
    7.6199    2.1726  -15.7200 O   0  0  0  0  0  0  0  0  0  0  0  0
    8.5605    2.2529  -14.9351 N   0  0  0  0  0  0  0  0  0  0  0  0
    9.5054    1.4674  -14.9237 O   0  0  0  0  0  0  0  0  0  0  0  0
    8.5986    3.3737  -13.9741 C   0  0  0  0  0  0  0  0  0  0  0  0
    9.8357    4.0181  -13.7417 C   0  0  0  0  0  0  0  0  0  0  0  0
    9.9454    5.0740  -12.8168 C   0  0  0  0  0  0  0  0  0  0  0  0
    8.8154    5.4987  -12.0857 C   0  0  0  0  0  0  0  0  0  0  0  0
    8.8907    6.5750  -11.0097 C   0  0  0  0  0  0  0  0  0  0  0  0
   10.2198    6.6128  -10.2348 C   0  0  0  0  0  0  0  0  0  0  0  0
   10.1372    7.4941   -9.0685 N   0  0  0  0  0  0  0  0  0  0  0  0
   11.4811    7.9345   -8.6765 C   0  0  0  0  0  0  0  0  0  0  0  0
   11.4103    8.8874   -7.4703 C   0  0  0  0  0  0  0  0  0  0  0  0
   10.7471    8.2028   -6.3743 N   0  0  0  0  0  0  0  0  0  0  0  0
   11.2867    8.1899   -5.0829 C   0  0  0  0  0  0  0  0  0  0  0  0
   11.4544    6.9703   -4.3962 C   0  0  0  0  0  0  0  0  0  0  0  0
   11.9920    6.9505   -3.0930 C   0  0  0  0  0  0  0  0  0  0  0  0
   12.3544    8.1548   -2.4643 C   0  0  0  0  0  0  0  0  0  0  0  0
   12.1990    9.3723   -3.1489 C   0  0  0  0  0  0  0  0  0  0  0  0
   11.6845    9.3902   -4.4606 C   0  0  0  0  0  0  0  0  0  0  0  0
    9.4483    7.6183   -6.6758 C   0  0  0  0  0  0  0  0  0  0  0  0
    9.5434    6.7496   -7.9435 C   0  0  0  0  0  0  0  0  0  0  0  0
    7.5740    4.8874  -12.3411 C   0  0  0  0  0  0  0  0  0  0  0  0
    7.4472    3.8300  -13.2694 C   0  0  0  0  0  0  0  0  0  0  0  0
    6.1196    3.2128  -13.4201 N   0  0  0  0  0  0  0  0  0  0  0  0
    5.1574    3.9709  -13.4462 O   0  0  0  0  0  0  0  0  0  0  0  0
    6.0389    1.9897  -13.4460 O   0  0  0  0  0  0  0  0  0  0  0  0
   10.7194    3.6949  -14.2737 H   0  0  0  0  0  0  0  0  0  0  0  0
   10.9071    5.5315  -12.6567 H   0  0  0  0  0  0  0  0  0  0  0  0
    8.0858    6.3762  -10.3086 H   0  0  0  0  0  0  0  0  0  0  0  0
    8.6800    7.5461  -11.4531 H   0  0  0  0  0  0  0  0  0  0  0  0
   11.0057    6.9645  -10.9058 H   0  0  0  0  0  0  0  0  0  0  0  0
   10.4863    5.6062   -9.9164 H   0  0  0  0  0  0  0  0  0  0  0  0
   11.9691    8.4416   -9.5101 H   0  0  0  0  0  0  0  0  0  0  0  0
   12.0845    7.0698   -8.4174 H   0  0  0  0  0  0  0  0  0  0  0  0
   10.8359    9.7729   -7.7273 H   0  0  0  0  0  0  0  0  0  0  0  0
   12.4096    9.2109   -7.1801 H   0  0  0  0  0  0  0  0  0  0  0  0
   11.1690    6.0397   -4.8662 H   0  0  0  0  0  0  0  0  0  0  0  0
   12.1134    6.0101   -2.5729 H   0  0  0  0  0  0  0  0  0  0  0  0
   12.7529    8.1512   -1.4603 H   0  0  0  0  0  0  0  0  0  0  0  0
   12.4794   10.2955   -2.6653 H   0  0  0  0  0  0  0  0  0  0  0  0
   11.5644   10.3317   -4.9776 H   0  0  0  0  0  0  0  0  0  0  0  0
    9.0875    7.0143   -5.8458 H   0  0  0  0  0  0  0  0  0  0  0  0
    8.7252    8.4221   -6.8263 H   0  0  0  0  0  0  0  0  0  0  0  0
    8.5413    6.4023   -8.1986 H   0  0  0  0  0  0  0  0  0  0  0  0
   10.1391    5.8628   -7.7268 H   0  0  0  0  0  0  0  0  0  0  0  0
    6.7069    5.2178  -11.7811 H   0  0  0  0  0  0  0  0  0  0  0  0
  2  1  2  0
  3  2  1  0
  4  2  1  0
  5  4  1  0
  6  5  2  0
  7  6  1  0
  8  7  1  0
  9  8  1  0
 10  9  1  0
 11 10  1  0
 12 11  1  0
 13 12  1  0
 14 13  1  0
 15 14  2  0
 16 15  1  0
 17 16  2  0
 18 17  1  0
 19 14  1  0
 19 18  2  0
 20 13  1  0
 21 10  1  0
 21 20  1  0
 22  7  2  0
 23  4  2  0
 23 22  1  0
 24 23  1  0
 25 24  2  0
 26 24  1  0
 27  5  1  0
 28  6  1  0
 29  8  1  0
 30  8  1  0
 31  9  1  0
 32  9  1  0
 33 11  1  0
 34 11  1  0
 35 12  1  0
 36 12  1  0
 37 15  1  0
 38 16  1  0
 39 17  1  0
 40 18  1  0
 41 19  1  0
 42 20  1  0
 43 20  1  0
 44 21  1  0
 45 21  1  0
 46 22  1  0
M  CHG  4   2   1   3  -1  24   1  26  -1
M  END
>  <b_m_subgroup_collapsed>  (895) 
0

>  <r_i_docking_score>  (895) 
-7.1701586422828498

>  <s_m_subgroup_title>  (895) 
glide-dock_SP_D22_pv

>  <s_m_subgroupid>  (895) 
glide-dock_SP_D22_pv

>  <Molecule ChEMBL ID>  (895) 
CHEMBL2298799

>  <Standard Type>  (895) 
Ki

>  <Standard Value>  (895) 
51.3

>  <label>  (895) 
1

$$$$
CHEMBL4245622
     RDKit          3D

 66 71  0  0  1  0  0  0  0  0999 V2000
    7.1929    1.4101  -18.6289 O   0  0  0  0  0  0  0  0  0  0  0  0
    7.5650    0.3167  -17.7168 S   0  0  0  0  0  0  0  0  0  0  0  0
    7.2719   -1.0769  -18.0837 O   0  0  0  0  0  0  0  0  0  0  0  0
    6.8244    0.6934  -16.1047 C   0  0  0  0  0  0  0  0  0  0  0  0
    7.3867    1.7791  -15.4088 C   0  0  0  0  0  0  0  0  0  0  0  0
    6.9109    2.1462  -14.1423 C   0  0  0  0  0  0  0  0  0  0  0  0
    5.8656    1.4213  -13.5493 C   0  0  0  0  0  0  0  0  0  0  0  0
    5.2178    0.3866  -14.2477 C   0  0  0  0  0  0  0  0  0  0  0  0
    4.1193   -0.1671  -13.6875 N   0  0  0  0  0  0  0  0  0  0  0  0
    3.3838   -1.0274  -14.4088 C   0  0  0  0  0  0  0  0  0  0  0  0
    3.7417   -1.4277  -15.7024 C   0  0  0  0  0  0  0  0  0  0  0  0
    4.9131   -0.9073  -16.2762 C   0  0  0  0  0  0  0  0  0  0  0  0
    5.6849    0.0336  -15.5540 C   0  0  0  0  0  0  0  0  0  0  0  0
    9.3003    0.4070  -17.4441 N   0  0  0  0  0  0  0  0  0  0  0  0
   10.1207   -0.8065  -17.6193 C   0  0  0  0  0  0  0  0  0  0  0  0
   11.4511   -0.3375  -18.2189 C   0  0  0  0  0  0  0  0  0  0  0  0
   11.1294    1.0374  -18.7991 C   0  0  0  0  0  0  0  0  0  0  0  0
   10.0856    1.5979  -17.8291 C   0  0  2  0  0  0  0  0  0  0  0  0
   10.7400    2.2642  -16.5895 C   0  0  0  0  0  0  0  0  0  0  0  0
   10.8395    3.7969  -16.7322 C   0  0  0  0  0  0  0  0  0  0  0  0
   11.1788    4.4937  -15.4636 N   0  0  2  0  0  0  0  0  0  0  0  0
   10.0522    4.4921  -14.4907 C   0  0  0  0  0  0  0  0  0  0  0  0
   10.3163    5.3724  -13.2814 C   0  0  0  0  0  0  0  0  0  0  0  0
   11.2856    6.3045  -13.1932 C   0  0  0  0  0  0  0  0  0  0  0  0
   11.5078    7.1144  -11.9635 C   0  0  0  0  0  0  0  0  0  0  0  0
   12.5514    7.9908  -11.8452 C   0  0  0  0  0  0  0  0  0  0  0  0
   12.4977    8.5720  -10.5954 N   0  0  0  0  0  0  0  0  0  0  0  0
   11.5020    8.0280   -9.8350 C   0  0  0  0  0  0  0  0  0  0  0  0
   11.1522    8.2654   -8.4953 C   0  0  0  0  0  0  0  0  0  0  0  0
   10.1693    7.4661   -7.9006 C   0  0  0  0  0  0  0  0  0  0  0  0
    9.5523    6.4679   -8.6703 C   0  0  0  0  0  0  0  0  0  0  0  0
    8.4860    5.3724   -7.9205 Cl  0  0  0  0  0  0  0  0  0  0  0  0
    9.8375    6.3033  -10.0356 C   0  0  0  0  0  0  0  0  0  0  0  0
   10.8495    7.0630  -10.6677 C   0  0  0  0  0  0  0  0  0  0  0  0
   12.2018    6.5106  -14.4011 C   0  0  0  0  0  0  0  0  0  0  0  0
   11.6829    5.8691  -15.6995 C   0  0  0  0  0  0  0  0  0  0  0  0
    8.1589    2.3660  -15.8712 H   0  0  0  0  0  0  0  0  0  0  0  0
    7.3514    2.9810  -13.6192 H   0  0  0  0  0  0  0  0  0  0  0  0
    5.5032    1.7109  -12.5738 H   0  0  0  0  0  0  0  0  0  0  0  0
    2.5027   -1.4259  -13.9222 H   0  0  0  0  0  0  0  0  0  0  0  0
    3.1357   -2.1444  -16.2415 H   0  0  0  0  0  0  0  0  0  0  0  0
    5.1409   -1.2120  -17.2834 H   0  0  0  0  0  0  0  0  0  0  0  0
   10.2502   -1.3231  -16.6694 H   0  0  0  0  0  0  0  0  0  0  0  0
    9.6469   -1.4961  -18.3151 H   0  0  0  0  0  0  0  0  0  0  0  0
   12.2069   -0.2390  -17.4430 H   0  0  0  0  0  0  0  0  0  0  0  0
   11.8388   -1.0262  -18.9704 H   0  0  0  0  0  0  0  0  0  0  0  0
   10.6889    0.9224  -19.7897 H   0  0  0  0  0  0  0  0  0  0  0  0
   12.0131    1.6682  -18.8989 H   0  0  0  0  0  0  0  0  0  0  0  0
    9.4517    2.3165  -18.3435 H   0  0  0  0  0  0  0  0  0  0  0  0
   11.7350    1.8539  -16.4159 H   0  0  0  0  0  0  0  0  0  0  0  0
   10.1914    1.9890  -15.6918 H   0  0  0  0  0  0  0  0  0  0  0  0
    9.9052    4.2088  -17.1156 H   0  0  0  0  0  0  0  0  0  0  0  0
   11.5974    4.0144  -17.4862 H   0  0  0  0  0  0  0  0  0  0  0  0
    9.8708    3.4814  -14.1252 H   0  0  0  0  0  0  0  0  0  0  0  0
    9.1311    4.8403  -14.9661 H   0  0  0  0  0  0  0  0  0  0  0  0
    9.6285    5.2083  -12.4768 H   0  0  0  0  0  0  0  0  0  0  0  0
   13.3144    8.2829  -12.5528 H   0  0  0  0  0  0  0  0  0  0  0  0
   13.1494    9.2882  -10.2648 H   0  0  0  0  0  0  0  0  0  0  0  0
   11.6744    9.0113   -7.9154 H   0  0  0  0  0  0  0  0  0  0  0  0
    9.9197    7.5827   -6.8568 H   0  0  0  0  0  0  0  0  0  0  0  0
    9.3054    5.5212  -10.5469 H   0  0  0  0  0  0  0  0  0  0  0  0
   12.3152    7.5793  -14.5827 H   0  0  0  0  0  0  0  0  0  0  0  0
   13.1942    6.1247  -14.1750 H   0  0  0  0  0  0  0  0  0  0  0  0
   10.8866    6.4814  -16.1230 H   0  0  0  0  0  0  0  0  0  0  0  0
   12.4895    5.8560  -16.4354 H   0  0  0  0  0  0  0  0  0  0  0  0
   11.9449    3.9900  -15.0381 H   0  0  0  0  0  0  0  0  0  0  0  0
  2  1  2  0
  3  2  2  0
  4  2  1  0
  5  4  1  0
  6  5  2  0
  7  6  1  0
  8  7  2  0
  9  8  1  0
 10  9  2  0
 11 10  1  0
 12 11  2  0
 13  4  2  0
 13  8  1  0
 13 12  1  0
 14  2  1  0
 15 14  1  0
 16 15  1  0
 17 16  1  0
 18 14  1  0
 18 17  1  0
 19 18  1  0
 20 19  1  0
 21 20  1  0
 22 21  1  0
 23 22  1  0
 24 23  2  0
 25 24  1  0
 26 25  2  0
 27 26  1  0
 28 27  1  0
 29 28  2  0
 30 29  1  0
 31 30  2  0
 32 31  1  0
 33 31  1  0
 34 25  1  0
 34 28  1  0
 34 33  2  0
 35 24  1  0
 36 21  1  0
 36 35  1  0
 37  5  1  0
 38  6  1  0
 39  7  1  0
 40 10  1  0
 41 11  1  0
 42 12  1  0
 43 15  1  0
 44 15  1  0
 45 16  1  0
 46 16  1  0
 47 17  1  0
 48 17  1  0
 18 49  1  6
 50 19  1  0
 51 19  1  0
 52 20  1  0
 53 20  1  0
 54 22  1  0
 55 22  1  0
 56 23  1  0
 57 26  1  0
 58 27  1  0
 59 29  1  0
 60 30  1  0
 61 33  1  0
 62 35  1  0
 63 35  1  0
 64 36  1  0
 65 36  1  0
 21 66  1  1
M  CHG  1  21   1
M  END
>  <b_m_subgroup_collapsed>  (896) 
0

>  <r_i_docking_score>  (896) 
-7.1699640144046199

>  <s_m_subgroup_title>  (896) 
glide-dock_SP_D22_pv

>  <s_m_subgroupid>  (896) 
glide-dock_SP_D22_pv

>  <Molecule ChEMBL ID>  (896) 
CHEMBL4245622

>  <Standard Type>  (896) 
Ki

>  <Standard Value>  (896) 
15.0

>  <label>  (896) 
1

$$$$
CHEMBL423890
     RDKit          3D

 38 40  0  0  1  0  0  0  0  0999 V2000
   11.6866   10.1723   -3.0472 O   0  0  0  0  0  0  0  0  0  0  0  0
   11.5467    9.2408   -4.0252 C   0  0  0  0  0  0  0  0  0  0  0  0
   11.8427    7.9021   -3.7169 C   0  0  0  0  0  0  0  0  0  0  0  0
   11.6306    6.9025   -4.6784 C   0  0  0  0  0  0  0  0  0  0  0  0
   11.1433    7.2414   -5.9545 C   0  0  0  0  0  0  0  0  0  0  0  0
   10.8480    8.5936   -6.2718 C   0  0  0  0  0  0  0  0  0  0  0  0
   11.0683    9.5945   -5.3039 C   0  0  0  0  0  0  0  0  0  0  0  0
   10.3465    8.9437   -7.5082 O   0  0  0  0  0  0  0  0  0  0  0  0
    9.8192    7.8578   -8.2698 C   0  0  1  0  0  0  0  0  0  0  0  0
    9.6198    8.3098   -9.7260 C   0  0  0  0  0  0  0  0  0  0  0  0
    8.8860    7.2751  -10.4845 N   0  0  0  0  0  0  0  0  0  0  0  0
    8.9508    7.3722  -11.9499 C   0  0  0  0  0  0  0  0  0  0  0  0
    8.4326    6.0816  -12.5576 C   0  0  0  0  0  0  0  0  0  0  0  0
    9.3260    5.1653  -13.1529 C   0  0  0  0  0  0  0  0  0  0  0  0
    8.8417    3.9635  -13.7052 C   0  0  0  0  0  0  0  0  0  0  0  0
    7.4654    3.6688  -13.6566 C   0  0  0  0  0  0  0  0  0  0  0  0
    6.5727    4.5700  -13.0469 C   0  0  0  0  0  0  0  0  0  0  0  0
    7.0551    5.7761  -12.5056 C   0  0  0  0  0  0  0  0  0  0  0  0
   10.8153    6.6864   -8.2059 C   0  0  0  0  0  0  0  0  0  0  0  0
   10.9685    6.2384   -6.8733 O   0  0  0  0  0  0  0  0  0  0  0  0
   11.4489   11.0601   -3.2790 H   0  0  0  0  0  0  0  0  0  0  0  0
   12.2053    7.6377   -2.7341 H   0  0  0  0  0  0  0  0  0  0  0  0
   11.8437    5.8709   -4.4398 H   0  0  0  0  0  0  0  0  0  0  0  0
   10.8384   10.6238   -5.5367 H   0  0  0  0  0  0  0  0  0  0  0  0
    8.8594    7.5659   -7.8378 H   0  0  0  0  0  0  0  0  0  0  0  0
    9.0463    9.2371   -9.7630 H   0  0  0  0  0  0  0  0  0  0  0  0
   10.5877    8.5120  -10.1872 H   0  0  0  0  0  0  0  0  0  0  0  0
    9.1952    6.3530  -10.2169 H   0  0  0  0  0  0  0  0  0  0  0  0
    8.3543    8.2191  -12.2924 H   0  0  0  0  0  0  0  0  0  0  0  0
    9.9800    7.5428  -12.2682 H   0  0  0  0  0  0  0  0  0  0  0  0
   10.3845    5.3780  -13.1927 H   0  0  0  0  0  0  0  0  0  0  0  0
    9.5267    3.2635  -14.1613 H   0  0  0  0  0  0  0  0  0  0  0  0
    7.0962    2.7444  -14.0763 H   0  0  0  0  0  0  0  0  0  0  0  0
    5.5182    4.3405  -12.9991 H   0  0  0  0  0  0  0  0  0  0  0  0
    6.3607    6.4638  -12.0430 H   0  0  0  0  0  0  0  0  0  0  0  0
   10.4778    5.8420   -8.8068 H   0  0  0  0  0  0  0  0  0  0  0  0
   11.7797    6.9994   -8.6003 H   0  0  0  0  0  0  0  0  0  0  0  0
    7.8866    7.3723  -10.2467 H   0  0  0  0  0  0  0  0  0  0  0  0
  2  1  1  0
  3  2  1  0
  4  3  2  0
  5  4  1  0
  6  5  2  0
  7  2  2  0
  7  6  1  0
  8  6  1  0
  9  8  1  0
 10  9  1  0
 11 10  1  0
 12 11  1  0
 13 12  1  0
 14 13  2  0
 15 14  1  0
 16 15  2  0
 17 16  1  0
 18 13  1  0
 18 17  2  0
 19  9  1  0
 20  5  1  0
 20 19  1  0
 21  1  1  0
 22  3  1  0
 23  4  1  0
 24  7  1  0
  9 25  1  1
 26 10  1  0
 27 10  1  0
 28 11  1  0
 29 12  1  0
 30 12  1  0
 31 14  1  0
 32 15  1  0
 33 16  1  0
 34 17  1  0
 35 18  1  0
 36 19  1  0
 37 19  1  0
 38 11  1  0
M  CHG  1  11   1
M  END
>  <b_m_subgroup_collapsed>  (897) 
0

>  <r_i_docking_score>  (897) 
-7.1690613441862796

>  <s_m_subgroup_title>  (897) 
glide-dock_SP_D22_pv

>  <s_m_subgroupid>  (897) 
glide-dock_SP_D22_pv

>  <Molecule ChEMBL ID>  (897) 
CHEMBL423890

>  <Standard Type>  (897) 
Ki

>  <Standard Value>  (897) 
7.2

>  <label>  (897) 
1

$$$$
CHEMBL87137
     RDKit          3D

 38 40  0  0  1  0  0  0  0  0999 V2000
   10.8922    8.9065   -7.7511 C   0  0  0  0  0  0  0  0  0  0  0  0
    9.7824    8.3500   -7.0892 C   0  0  0  0  0  0  0  0  0  0  0  0
    9.1316    7.2202   -7.6241 C   0  0  0  0  0  0  0  0  0  0  0  0
    9.5834    6.6462   -8.8314 C   0  0  0  0  0  0  0  0  0  0  0  0
    8.8885    5.4238   -9.4096 C   0  0  0  0  0  0  0  0  0  0  0  0
    8.0907    5.7723  -10.6029 N   0  0  0  0  0  0  0  0  0  0  0  0
    7.6673    4.6068  -11.4103 C   0  0  0  0  0  0  0  0  0  0  0  0
    6.8242    5.0259  -12.6270 C   0  0  0  0  0  0  0  0  0  0  0  0
    6.2157    3.8948  -13.2440 O   0  0  0  0  0  0  0  0  0  0  0  0
    7.0142    2.9429  -13.8469 C   0  0  0  0  0  0  0  0  0  0  0  0
    8.3127    3.2041  -14.3553 C   0  0  0  0  0  0  0  0  0  0  0  0
    9.0826    2.1751  -14.9343 C   0  0  0  0  0  0  0  0  0  0  0  0
    8.5686    0.8676  -15.0174 C   0  0  0  0  0  0  0  0  0  0  0  0
    7.2820    0.6117  -14.5166 C   0  0  0  0  0  0  0  0  0  0  0  0
    6.4860   -0.5186  -14.4364 N   0  0  0  0  0  0  0  0  0  0  0  0
    5.2831   -0.2996  -13.8475 N   0  0  0  0  0  0  0  0  0  0  0  0
    5.2770    0.9735  -13.5285 C   0  0  0  0  0  0  0  0  0  0  0  0
    6.4847    1.6308  -13.9278 C   0  0  0  0  0  0  0  0  0  0  0  0
   10.6920    7.2137   -9.4964 C   0  0  0  0  0  0  0  0  0  0  0  0
   11.3473    8.3398   -8.9566 C   0  0  0  0  0  0  0  0  0  0  0  0
   11.3909    9.7719   -7.3382 H   0  0  0  0  0  0  0  0  0  0  0  0
    9.4226    8.7909   -6.1729 H   0  0  0  0  0  0  0  0  0  0  0  0
    8.2751    6.8087   -7.1083 H   0  0  0  0  0  0  0  0  0  0  0  0
    9.6508    4.6870   -9.6708 H   0  0  0  0  0  0  0  0  0  0  0  0
    8.2414    4.9614   -8.6607 H   0  0  0  0  0  0  0  0  0  0  0  0
    7.2926    6.3459  -10.3100 H   0  0  0  0  0  0  0  0  0  0  0  0
    8.5578    4.0682  -11.7343 H   0  0  0  0  0  0  0  0  0  0  0  0
    7.0996    3.9150  -10.7857 H   0  0  0  0  0  0  0  0  0  0  0  0
    6.0112    5.6752  -12.2952 H   0  0  0  0  0  0  0  0  0  0  0  0
    7.4038    5.6129  -13.3385 H   0  0  0  0  0  0  0  0  0  0  0  0
    8.7426    4.1937  -14.3211 H   0  0  0  0  0  0  0  0  0  0  0  0
   10.0720    2.3895  -15.3145 H   0  0  0  0  0  0  0  0  0  0  0  0
    9.1551    0.0721  -15.4538 H   0  0  0  0  0  0  0  0  0  0  0  0
    6.7334   -1.4406  -14.7818 H   0  0  0  0  0  0  0  0  0  0  0  0
    4.4107    1.3998  -13.0471 H   0  0  0  0  0  0  0  0  0  0  0  0
   11.0512    6.7867  -10.4205 H   0  0  0  0  0  0  0  0  0  0  0  0
   12.1977    8.7701   -9.4664 H   0  0  0  0  0  0  0  0  0  0  0  0
    8.6622    6.3713  -11.1817 H   0  0  0  0  0  0  0  0  0  0  0  0
  2  1  2  0
  3  2  1  0
  4  3  2  0
  5  4  1  0
  6  5  1  0
  7  6  1  0
  8  7  1  0
  9  8  1  0
 10  9  1  0
 11 10  1  0
 12 11  2  0
 13 12  1  0
 14 13  2  0
 15 14  1  0
 16 15  1  0
 17 16  2  0
 18 10  2  0
 18 14  1  0
 18 17  1  0
 19  4  1  0
 20  1  1  0
 20 19  2  0
 21  1  1  0
 22  2  1  0
 23  3  1  0
 24  5  1  0
 25  5  1  0
 26  6  1  0
 27  7  1  0
 28  7  1  0
 29  8  1  0
 30  8  1  0
 31 11  1  0
 32 12  1  0
 33 13  1  0
 34 15  1  0
 35 17  1  0
 36 19  1  0
 37 20  1  0
 38  6  1  0
M  CHG  1   6   1
M  END
>  <b_m_subgroup_collapsed>  (898) 
0

>  <r_i_docking_score>  (898) 
-7.1680256830281603

>  <s_m_subgroup_title>  (898) 
glide-dock_SP_D22_pv

>  <s_m_subgroupid>  (898) 
glide-dock_SP_D22_pv

>  <Molecule ChEMBL ID>  (898) 
CHEMBL87137

>  <Standard Type>  (898) 
Ki

>  <Standard Value>  (898) 
79.8

>  <label>  (898) 
1

$$$$
CHEMBL15928
     RDKit          3D

 69 73  0  0  1  0  0  0  0  0999 V2000
    9.8482   -1.1543  -18.9182 C   0  0  0  0  0  0  0  0  0  0  0  0
    8.6660   -0.7576  -18.2436 O   0  0  0  0  0  0  0  0  0  0  0  0
    8.7629    0.1948  -17.2503 C   0  0  0  0  0  0  0  0  0  0  0  0
    9.9956    0.7396  -16.8148 C   0  0  0  0  0  0  0  0  0  0  0  0
   10.0307    1.7166  -15.8035 C   0  0  0  0  0  0  0  0  0  0  0  0
    8.8402    2.1719  -15.2036 C   0  0  0  0  0  0  0  0  0  0  0  0
    8.9723    3.1698  -14.1956 N   0  0  0  0  0  0  0  0  0  0  0  0
    8.0263    3.8989  -13.5768 C   0  0  0  0  0  0  0  0  0  0  0  0
    6.8204    3.8629  -13.8248 O   0  0  0  0  0  0  0  0  0  0  0  0
    8.5419    4.7560  -12.4650 C   0  0  0  0  0  0  0  0  0  0  0  0
    9.6103    5.6566  -12.6459 C   0  0  0  0  0  0  0  0  0  0  0  0
   10.0922    6.4111  -11.5533 C   0  0  0  0  0  0  0  0  0  0  0  0
    9.5769    6.2536  -10.2433 C   0  0  0  0  0  0  0  0  0  0  0  0
   10.1206    6.9161   -9.0198 C   0  0  0  0  0  0  0  0  0  0  0  0
   10.0886    6.1870   -7.8063 C   0  0  0  0  0  0  0  0  0  0  0  0
   10.4812    6.7538   -6.5806 C   0  0  0  0  0  0  0  0  0  0  0  0
   10.9345    8.0806   -6.5116 C   0  0  0  0  0  0  0  0  0  0  0  0
   11.2876    8.7079   -5.2266 C   0  0  0  0  0  0  0  0  0  0  0  0
   10.9872    9.9731   -4.9682 N   0  0  0  0  0  0  0  0  0  0  0  0
   11.4155   10.1239   -3.6416 O   0  0  0  0  0  0  0  0  0  0  0  0
   11.9478    8.9290   -3.2813 C   0  0  0  0  0  0  0  0  0  0  0  0
   12.4923    8.7705   -1.9043 C   0  0  0  0  0  0  0  0  0  0  0  0
   11.8830    7.9980   -4.2299 N   0  0  0  0  0  0  0  0  0  0  0  0
   11.0286    8.7998   -7.7145 C   0  0  0  0  0  0  0  0  0  0  0  0
   10.6419    8.2411   -8.9510 C   0  0  0  0  0  0  0  0  0  0  0  0
   10.7859    9.1283  -10.1612 C   0  0  0  0  0  0  0  0  0  0  0  0
    8.4859    5.3717  -10.1041 C   0  0  0  0  0  0  0  0  0  0  0  0
    7.9591    4.6547  -11.1929 C   0  0  0  0  0  0  0  0  0  0  0  0
    7.6074    1.6010  -15.6085 C   0  0  0  0  0  0  0  0  0  0  0  0
    7.5643    0.6287  -16.6302 C   0  0  0  0  0  0  0  0  0  0  0  0
    6.3286    0.1007  -17.0347 N   0  0  0  0  0  0  0  0  0  0  0  0
    5.8371    0.3596  -18.3798 C   0  0  0  0  0  0  0  0  0  0  0  0
    5.2343   -0.9242  -18.9726 C   0  0  0  0  0  0  0  0  0  0  0  0
    4.2459   -1.5402  -18.0499 N   0  0  0  0  0  0  0  0  0  0  0  0
    3.6143   -2.7362  -18.6468 C   0  0  0  0  0  0  0  0  0  0  0  0
    4.8095   -1.8061  -16.6972 C   0  0  0  0  0  0  0  0  0  0  0  0
    5.4346   -0.5357  -16.0778 C   0  0  0  0  0  0  0  0  0  0  0  0
    9.5795   -1.8276  -19.7319 H   0  0  0  0  0  0  0  0  0  0  0  0
   10.3658   -0.3045  -19.3614 H   0  0  0  0  0  0  0  0  0  0  0  0
   10.5244   -1.6897  -18.2514 H   0  0  0  0  0  0  0  0  0  0  0  0
   10.9362    0.4281  -17.2404 H   0  0  0  0  0  0  0  0  0  0  0  0
   10.9862    2.1187  -15.4958 H   0  0  0  0  0  0  0  0  0  0  0  0
    9.9157    3.3346  -13.8703 H   0  0  0  0  0  0  0  0  0  0  0  0
   10.0712    5.7731  -13.6160 H   0  0  0  0  0  0  0  0  0  0  0  0
   10.9395    7.0539  -11.7268 H   0  0  0  0  0  0  0  0  0  0  0  0
    9.7354    5.1682   -7.7989 H   0  0  0  0  0  0  0  0  0  0  0  0
   10.4057    6.1722   -5.6741 H   0  0  0  0  0  0  0  0  0  0  0  0
   12.4385    7.7265   -1.5950 H   0  0  0  0  0  0  0  0  0  0  0  0
   13.5333    9.0894   -1.8697 H   0  0  0  0  0  0  0  0  0  0  0  0
   11.9198    9.3723   -1.1965 H   0  0  0  0  0  0  0  0  0  0  0  0
   11.3932    9.8153   -7.6785 H   0  0  0  0  0  0  0  0  0  0  0  0
   10.8847   10.1693   -9.8467 H   0  0  0  0  0  0  0  0  0  0  0  0
   11.6906    8.8735  -10.7146 H   0  0  0  0  0  0  0  0  0  0  0  0
    9.9144    9.0336  -10.8103 H   0  0  0  0  0  0  0  0  0  0  0  0
    8.0165    5.2372   -9.1424 H   0  0  0  0  0  0  0  0  0  0  0  0
    7.1229    3.9893  -11.0373 H   0  0  0  0  0  0  0  0  0  0  0  0
    6.6756    1.9027  -15.1562 H   0  0  0  0  0  0  0  0  0  0  0  0
    5.0748    1.1417  -18.3257 H   0  0  0  0  0  0  0  0  0  0  0  0
    6.6325    0.7379  -19.0240 H   0  0  0  0  0  0  0  0  0  0  0  0
    4.7611   -0.6943  -19.9291 H   0  0  0  0  0  0  0  0  0  0  0  0
    6.0318   -1.6420  -19.1760 H   0  0  0  0  0  0  0  0  0  0  0  0
    4.3060   -3.5806  -18.6738 H   0  0  0  0  0  0  0  0  0  0  0  0
    2.7390   -3.0278  -18.0744 H   0  0  0  0  0  0  0  0  0  0  0  0
    3.2861   -2.5366  -19.6661 H   0  0  0  0  0  0  0  0  0  0  0  0
    4.0331   -2.1973  -16.0390 H   0  0  0  0  0  0  0  0  0  0  0  0
    5.5755   -2.5789  -16.7747 H   0  0  0  0  0  0  0  0  0  0  0  0
    5.9720   -0.7888  -15.1616 H   0  0  0  0  0  0  0  0  0  0  0  0
    4.6486    0.1723  -15.8065 H   0  0  0  0  0  0  0  0  0  0  0  0
    3.5097   -0.8614  -17.9225 H   0  0  0  0  0  0  0  0  0  0  0  0
  2  1  1  0
  3  2  1  0
  4  3  1  0
  5  4  2  0
  6  5  1  0
  7  6  1  0
  8  7  1  0
  9  8  2  0
 10  8  1  0
 11 10  1  0
 12 11  2  0
 13 12  1  0
 14 13  1  0
 15 14  1  0
 16 15  2  0
 17 16  1  0
 18 17  1  0
 19 18  2  0
 20 19  1  0
 21 20  1  0
 22 21  1  0
 23 18  1  0
 23 21  2  0
 24 17  2  0
 25 14  2  0
 25 24  1  0
 26 25  1  0
 27 13  2  0
 28 10  2  0
 28 27  1  0
 29  6  2  0
 30  3  2  0
 30 29  1  0
 31 30  1  0
 32 31  1  0
 33 32  1  0
 34 33  1  0
 35 34  1  0
 36 34  1  0
 37 31  1  0
 37 36  1  0
 38  1  1  0
 39  1  1  0
 40  1  1  0
 41  4  1  0
 42  5  1  0
 43  7  1  0
 44 11  1  0
 45 12  1  0
 46 15  1  0
 47 16  1  0
 48 22  1  0
 49 22  1  0
 50 22  1  0
 51 24  1  0
 52 26  1  0
 53 26  1  0
 54 26  1  0
 55 27  1  0
 56 28  1  0
 57 29  1  0
 58 32  1  0
 59 32  1  0
 60 33  1  0
 61 33  1  0
 62 35  1  0
 63 35  1  0
 64 35  1  0
 65 36  1  0
 66 36  1  0
 67 37  1  0
 68 37  1  0
 69 34  1  0
M  CHG  1  34   1
M  END
>  <b_m_subgroup_collapsed>  (899) 
0

>  <r_i_docking_score>  (899) 
-7.1675984485594002

>  <s_m_subgroup_title>  (899) 
glide-dock_SP_D22_pv

>  <s_m_subgroupid>  (899) 
glide-dock_SP_D22_pv

>  <Molecule ChEMBL ID>  (899) 
CHEMBL15928

>  <Standard Type>  (899) 
Ki

>  <Standard Value>  (899) 
10000.0

>  <label>  (899) 
0

$$$$
CHEMBL2420770
     RDKit          3D

 37 39  0  0  1  0  0  0  0  0999 V2000
   10.9523   10.5584   -4.6304 F   0  0  0  0  0  0  0  0  0  0  0  0
   11.4321    9.3855   -4.1441 C   0  0  0  0  0  0  0  0  0  0  0  0
   12.0287    9.3800   -2.8679 C   0  0  0  0  0  0  0  0  0  0  0  0
   12.4542    8.1793   -2.2778 C   0  0  0  0  0  0  0  0  0  0  0  0
   12.2646    6.9707   -2.9693 C   0  0  0  0  0  0  0  0  0  0  0  0
   11.6892    6.9711   -4.2536 C   0  0  0  0  0  0  0  0  0  0  0  0
   11.2865    8.1761   -4.8718 C   0  0  0  0  0  0  0  0  0  0  0  0
   10.7593    8.1452   -6.1769 N   0  0  0  0  0  0  0  0  0  0  0  0
    9.7773    7.1482   -6.5880 C   0  0  0  0  0  0  0  0  0  0  0  0
   10.0746    6.6631   -8.0187 C   0  0  0  0  0  0  0  0  0  0  0  0
   10.3001    7.7869   -8.9763 N   0  0  0  0  0  0  0  0  0  0  0  0
   10.7225    7.3390  -10.3225 C   0  0  0  0  0  0  0  0  0  0  0  0
    9.6462    6.6728  -11.0997 C   0  0  0  0  0  0  0  0  0  0  0  0
    8.8447    7.2583  -12.0404 C   0  0  0  0  0  0  0  0  0  0  0  0
    7.9504    6.3404  -12.6538 C   0  0  0  0  0  0  0  0  0  0  0  0
    8.0575    5.0683  -12.1627 C   0  0  0  0  0  0  0  0  0  0  0  0
    9.2850    4.9723  -10.9365 S   0  0  0  0  0  0  0  0  0  0  0  0
   11.2599    8.8012   -8.4698 C   0  0  0  0  0  0  0  0  0  0  0  0
   10.8966    9.2802   -7.0675 C   0  0  0  0  0  0  0  0  0  0  0  0
   12.1196   10.3066   -2.3233 H   0  0  0  0  0  0  0  0  0  0  0  0
   12.8862    8.1844   -1.2885 H   0  0  0  0  0  0  0  0  0  0  0  0
   12.5687    6.0384   -2.5174 H   0  0  0  0  0  0  0  0  0  0  0  0
   11.5878    6.0282   -4.7716 H   0  0  0  0  0  0  0  0  0  0  0  0
    8.7916    7.6121   -6.5592 H   0  0  0  0  0  0  0  0  0  0  0  0
    9.7346    6.3039   -5.9035 H   0  0  0  0  0  0  0  0  0  0  0  0
    9.2379    6.0470   -8.3531 H   0  0  0  0  0  0  0  0  0  0  0  0
   10.9541    6.0188   -8.0010 H   0  0  0  0  0  0  0  0  0  0  0  0
   11.5870    6.6835  -10.2362 H   0  0  0  0  0  0  0  0  0  0  0  0
   11.0644    8.2000  -10.8999 H   0  0  0  0  0  0  0  0  0  0  0  0
    8.8757    8.2999  -12.3226 H   0  0  0  0  0  0  0  0  0  0  0  0
    7.2845    6.6515  -13.4433 H   0  0  0  0  0  0  0  0  0  0  0  0
    7.4973    4.1891  -12.4441 H   0  0  0  0  0  0  0  0  0  0  0  0
   12.2674    8.3791   -8.4588 H   0  0  0  0  0  0  0  0  0  0  0  0
   11.2840    9.6585   -9.1461 H   0  0  0  0  0  0  0  0  0  0  0  0
    9.9342    9.7811   -7.0894 H   0  0  0  0  0  0  0  0  0  0  0  0
   11.6553    9.9858   -6.7315 H   0  0  0  0  0  0  0  0  0  0  0  0
    9.4059    8.2484   -9.0845 H   0  0  0  0  0  0  0  0  0  0  0  0
  2  1  1  0
  3  2  2  0
  4  3  1  0
  5  4  2  0
  6  5  1  0
  7  2  1  0
  7  6  2  0
  8  7  1  0
  9  8  1  0
 10  9  1  0
 11 10  1  0
 12 11  1  0
 13 12  1  0
 14 13  2  0
 15 14  1  0
 16 15  2  0
 17 13  1  0
 17 16  1  0
 18 11  1  0
 19  8  1  0
 19 18  1  0
 20  3  1  0
 21  4  1  0
 22  5  1  0
 23  6  1  0
 24  9  1  0
 25  9  1  0
 26 10  1  0
 27 10  1  0
 28 12  1  0
 29 12  1  0
 30 14  1  0
 31 15  1  0
 32 16  1  0
 33 18  1  0
 34 18  1  0
 35 19  1  0
 36 19  1  0
 37 11  1  0
M  CHG  1  11   1
M  END
>  <b_m_subgroup_collapsed>  (900) 
0

>  <r_i_docking_score>  (900) 
-7.1645434394766596

>  <s_m_subgroup_title>  (900) 
glide-dock_SP_D22_pv

>  <s_m_subgroupid>  (900) 
glide-dock_SP_D22_pv

>  <Molecule ChEMBL ID>  (900) 
CHEMBL2420770

>  <Standard Type>  (900) 
Ki

>  <Standard Value>  (900) 
10000.0

>  <label>  (900) 
0

$$$$
CHEMBL2106804
     RDKit          3D

 40 42  0  0  1  0  0  0  0  0999 V2000
   11.8709    7.1745  -12.7888 C   0  0  0  0  0  0  0  0  0  0  0  0
   10.6880    7.2453  -11.8109 C   0  0  0  0  0  0  0  0  0  0  0  0
   11.1208    7.4322  -10.3415 C   0  0  0  0  0  0  0  0  0  0  0  0
    9.9774    7.7027   -9.4227 N   0  0  1  0  0  0  0  0  0  0  0  0
    9.0209    6.5714   -9.2781 C   0  0  0  0  0  0  0  0  0  0  0  0
    9.5101    5.5260   -8.2662 C   0  0  0  0  0  0  0  0  0  0  0  0
    9.7607    6.1724   -7.0224 O   0  0  0  0  0  0  0  0  0  0  0  0
   10.8047    7.1247   -7.1069 C   0  0  2  0  0  0  0  0  0  0  0  0
   11.1914    7.6696   -5.7309 C   0  0  0  0  0  0  0  0  0  0  0  0
   11.3714    6.7838   -4.6471 C   0  0  0  0  0  0  0  0  0  0  0  0
   11.7519    7.2562   -3.3738 C   0  0  0  0  0  0  0  0  0  0  0  0
   11.9546    6.4048   -2.3305 O   0  0  0  0  0  0  0  0  0  0  0  0
   11.8894    8.6343   -3.1586 C   0  0  0  0  0  0  0  0  0  0  0  0
   11.6867    9.5213   -4.2254 C   0  0  0  0  0  0  0  0  0  0  0  0
   11.4135    9.0522   -5.5233 C   0  0  0  0  0  0  0  0  0  0  0  0
   11.3724   10.0446   -6.6712 C   0  0  0  0  0  0  0  0  0  0  0  0
   11.3626    9.3724   -8.0563 C   0  0  0  0  0  0  0  0  0  0  0  0
   10.3367    8.2347   -8.0725 C   0  0  1  0  0  0  0  0  0  0  0  0
   11.5201    7.1544  -13.8206 H   0  0  0  0  0  0  0  0  0  0  0  0
   12.4775    6.2793  -12.6466 H   0  0  0  0  0  0  0  0  0  0  0  0
   12.5245    8.0404  -12.6869 H   0  0  0  0  0  0  0  0  0  0  0  0
   10.0443    8.0754  -12.1033 H   0  0  0  0  0  0  0  0  0  0  0  0
   10.0952    6.3406  -11.9344 H   0  0  0  0  0  0  0  0  0  0  0  0
   11.6857    6.5738   -9.9837 H   0  0  0  0  0  0  0  0  0  0  0  0
   11.8122    8.2736  -10.3303 H   0  0  0  0  0  0  0  0  0  0  0  0
    8.0861    6.9716   -8.8976 H   0  0  0  0  0  0  0  0  0  0  0  0
    8.7682    6.1108  -10.2311 H   0  0  0  0  0  0  0  0  0  0  0  0
    8.7407    4.7663   -8.1198 H   0  0  0  0  0  0  0  0  0  0  0  0
   10.4022    5.0083   -8.6228 H   0  0  0  0  0  0  0  0  0  0  0  0
   11.6984    6.6372   -7.4994 H   0  0  0  0  0  0  0  0  0  0  0  0
   11.2271    5.7333   -4.8040 H   0  0  0  0  0  0  0  0  0  0  0  0
   11.6848    5.5113   -2.4952 H   0  0  0  0  0  0  0  0  0  0  0  0
   12.1288    9.0144   -2.1754 H   0  0  0  0  0  0  0  0  0  0  0  0
   11.7414   10.5722   -4.0366 H   0  0  0  0  0  0  0  0  0  0  0  0
   10.4863   10.6570   -6.5377 H   0  0  0  0  0  0  0  0  0  0  0  0
   12.2275   10.7166   -6.5904 H   0  0  0  0  0  0  0  0  0  0  0  0
   11.1871   10.0947   -8.8529 H   0  0  0  0  0  0  0  0  0  0  0  0
   12.3593    8.9697   -8.2419 H   0  0  0  0  0  0  0  0  0  0  0  0
    9.4046    8.6433   -7.6753 H   0  0  0  0  0  0  0  0  0  0  0  0
    9.4469    8.4372   -9.8735 H   0  0  0  0  0  0  0  0  0  0  0  0
  2  1  1  0
  3  2  1  0
  4  3  1  0
  5  4  1  0
  6  5  1  0
  7  6  1  0
  8  7  1  0
  9  8  1  0
 10  9  1  0
 11 10  2  0
 12 11  1  0
 13 11  1  0
 14 13  2  0
 15  9  2  0
 15 14  1  0
 16 15  1  0
 17 16  1  0
 18  4  1  0
 18  8  1  0
 18 17  1  0
 19  1  1  0
 20  1  1  0
 21  1  1  0
 22  2  1  0
 23  2  1  0
 24  3  1  0
 25  3  1  0
 26  5  1  0
 27  5  1  0
 28  6  1  0
 29  6  1  0
  8 30  1  6
 31 10  1  0
 32 12  1  0
 33 13  1  0
 34 14  1  0
 35 16  1  0
 36 16  1  0
 37 17  1  0
 38 17  1  0
 18 39  1  1
  4 40  1  6
M  CHG  1   4   1
M  END
>  <b_m_subgroup_collapsed>  (901) 
0

>  <r_i_docking_score>  (901) 
-7.1639467862965196

>  <s_m_subgroup_title>  (901) 
glide-dock_SP_D22_pv

>  <s_m_subgroupid>  (901) 
glide-dock_SP_D22_pv

>  <Molecule ChEMBL ID>  (901) 
CHEMBL2106804

>  <Standard Type>  (901) 
Ki

>  <Standard Value>  (901) 
0.3388

>  <label>  (901) 
1

$$$$
CHEMBL4570554
     RDKit          3D

 68 71  0  0  1  0  0  0  0  0999 V2000
    4.8107    0.7593  -20.2325 C   0  0  0  0  0  0  0  0  0  0  0  0
    6.0259    0.1343  -19.5319 C   0  0  0  0  0  0  0  0  0  0  0  0
    5.8791    0.1077  -18.0206 C   0  0  0  0  0  0  0  0  0  0  0  0
    4.8325   -0.6260  -17.4336 C   0  0  0  0  0  0  0  0  0  0  0  0
    4.6711   -0.6329  -16.0367 C   0  0  0  0  0  0  0  0  0  0  0  0
    3.2968   -1.4176  -15.3594 Cl  0  0  0  0  0  0  0  0  0  0  0  0
    5.5898    0.0359  -15.2038 C   0  0  0  0  0  0  0  0  0  0  0  0
    5.4471   -0.0743  -13.8420 O   0  0  0  0  0  0  0  0  0  0  0  0
    6.5234   -0.7620  -13.2141 C   0  0  0  0  0  0  0  0  0  0  0  0
    6.5917    0.8545  -15.7934 C   0  0  0  0  0  0  0  0  0  0  0  0
    7.3327    1.7735  -15.0304 N   0  0  0  0  0  0  0  0  0  0  0  0
    6.6554    2.5414  -13.9927 C   0  0  0  0  0  0  0  0  0  0  0  0
    7.2715    3.9377  -13.8371 C   0  0  0  0  0  0  0  0  0  0  0  0
    8.7603    3.9432  -13.8587 N   0  0  0  0  0  0  0  0  0  0  0  0
    9.2852    5.3315  -13.8040 C   0  0  0  0  0  0  0  0  0  0  0  0
   10.4726    5.4742  -12.8364 C   0  0  1  0  0  0  0  0  0  0  0  0
   11.6070    4.9399  -13.4878 O   0  0  0  0  0  0  0  0  0  0  0  0
   10.7774    6.9427  -12.4925 C   0  0  0  0  0  0  0  0  0  0  0  0
    9.7138    7.6294  -11.6008 C   0  0  0  0  0  0  0  0  0  0  0  0
    9.9889    7.4574  -10.1802 N   0  0  0  0  0  0  0  0  0  0  0  0
   10.9209    8.1651   -9.5328 C   0  0  0  0  0  0  0  0  0  0  0  0
   11.6560    8.9722  -10.0976 O   0  0  0  0  0  0  0  0  0  0  0  0
   10.9904    7.9971   -8.0761 C   0  0  0  0  0  0  0  0  0  0  0  0
   10.8058    6.9376   -7.2234 C   0  0  0  0  0  0  0  0  0  0  0  0
   11.1738    7.3998   -5.9108 C   0  0  0  0  0  0  0  0  0  0  0  0
   11.2866    6.8114   -4.6317 C   0  0  0  0  0  0  0  0  0  0  0  0
   11.7230    7.5506   -3.5112 C   0  0  0  0  0  0  0  0  0  0  0  0
   12.0275    8.9190   -3.6402 C   0  0  0  0  0  0  0  0  0  0  0  0
   11.9107    9.5333   -4.8999 C   0  0  0  0  0  0  0  0  0  0  0  0
   11.5130    8.7772   -6.0091 C   0  0  0  0  0  0  0  0  0  0  0  0
   11.3991    9.0913   -7.3406 N   0  0  0  0  0  0  0  0  0  0  0  0
    9.3359    3.1647  -14.9905 C   0  0  0  0  0  0  0  0  0  0  0  0
    8.7852    1.7338  -15.0402 C   0  0  0  0  0  0  0  0  0  0  0  0
    6.7499    0.8532  -17.1980 C   0  0  0  0  0  0  0  0  0  0  0  0
    4.9608    0.8000  -21.3104 H   0  0  0  0  0  0  0  0  0  0  0  0
    3.9015    0.1844  -20.0544 H   0  0  0  0  0  0  0  0  0  0  0  0
    4.6345    1.7729  -19.8776 H   0  0  0  0  0  0  0  0  0  0  0  0
    6.9276    0.6829  -19.8042 H   0  0  0  0  0  0  0  0  0  0  0  0
    6.1689   -0.8875  -19.8850 H   0  0  0  0  0  0  0  0  0  0  0  0
    4.1289   -1.1657  -18.0516 H   0  0  0  0  0  0  0  0  0  0  0  0
    6.4799   -0.6264  -12.1344 H   0  0  0  0  0  0  0  0  0  0  0  0
    6.4714   -1.8299  -13.4297 H   0  0  0  0  0  0  0  0  0  0  0  0
    7.5031   -0.4115  -13.5318 H   0  0  0  0  0  0  0  0  0  0  0  0
    6.6699    2.0076  -13.0469 H   0  0  0  0  0  0  0  0  0  0  0  0
    5.6027    2.6583  -14.2463 H   0  0  0  0  0  0  0  0  0  0  0  0
    6.9082    4.3913  -12.9114 H   0  0  0  0  0  0  0  0  0  0  0  0
    6.9156    4.5699  -14.6455 H   0  0  0  0  0  0  0  0  0  0  0  0
    8.4829    5.9931  -13.4800 H   0  0  0  0  0  0  0  0  0  0  0  0
    9.5505    5.6858  -14.8021 H   0  0  0  0  0  0  0  0  0  0  0  0
   10.2837    4.9171  -11.9182 H   0  0  0  0  0  0  0  0  0  0  0  0
   12.3918    5.2353  -13.0471 H   0  0  0  0  0  0  0  0  0  0  0  0
   11.7540    7.0141  -12.0146 H   0  0  0  0  0  0  0  0  0  0  0  0
   10.8874    7.5044  -13.4169 H   0  0  0  0  0  0  0  0  0  0  0  0
    9.6849    8.6974  -11.8244 H   0  0  0  0  0  0  0  0  0  0  0  0
    8.7039    7.2753  -11.7940 H   0  0  0  0  0  0  0  0  0  0  0  0
    9.3638    6.8735   -9.6418 H   0  0  0  0  0  0  0  0  0  0  0  0
   10.5030    5.9327   -7.4793 H   0  0  0  0  0  0  0  0  0  0  0  0
   11.0342    5.7727   -4.5106 H   0  0  0  0  0  0  0  0  0  0  0  0
   11.8006    7.0698   -2.5468 H   0  0  0  0  0  0  0  0  0  0  0  0
   12.3475    9.4914   -2.7803 H   0  0  0  0  0  0  0  0  0  0  0  0
   12.1420   10.5723   -5.0467 H   0  0  0  0  0  0  0  0  0  0  0  0
   11.6204    9.9735   -7.7781 H   0  0  0  0  0  0  0  0  0  0  0  0
    9.1089    3.6696  -15.9308 H   0  0  0  0  0  0  0  0  0  0  0  0
   10.4218    3.1260  -14.9097 H   0  0  0  0  0  0  0  0  0  0  0  0
    9.1320    1.1703  -14.1718 H   0  0  0  0  0  0  0  0  0  0  0  0
    9.1583    1.2141  -15.9237 H   0  0  0  0  0  0  0  0  0  0  0  0
    7.5099    1.4717  -17.6501 H   0  0  0  0  0  0  0  0  0  0  0  0
    9.0557    3.4760  -13.0133 H   0  0  0  0  0  0  0  0  0  0  0  0
  2  1  1  0
  3  2  1  0
  4  3  1  0
  5  4  2  0
  6  5  1  0
  7  5  1  0
  8  7  1  0
  9  8  1  0
 10  7  2  0
 11 10  1  0
 12 11  1  0
 13 12  1  0
 14 13  1  0
 15 14  1  0
 16 15  1  0
 17 16  1  0
 18 16  1  0
 19 18  1  0
 20 19  1  0
 21 20  1  0
 22 21  2  0
 23 21  1  0
 24 23  2  0
 25 24  1  0
 26 25  2  0
 27 26  1  0
 28 27  2  0
 29 28  1  0
 30 25  1  0
 30 29  2  0
 31 23  1  0
 31 30  1  0
 32 14  1  0
 33 11  1  0
 33 32  1  0
 34  3  2  0
 34 10  1  0
 35  1  1  0
 36  1  1  0
 37  1  1  0
 38  2  1  0
 39  2  1  0
 40  4  1  0
 41  9  1  0
 42  9  1  0
 43  9  1  0
 44 12  1  0
 45 12  1  0
 46 13  1  0
 47 13  1  0
 48 15  1  0
 49 15  1  0
 16 50  1  1
 51 17  1  0
 52 18  1  0
 53 18  1  0
 54 19  1  0
 55 19  1  0
 56 20  1  0
 57 24  1  0
 58 26  1  0
 59 27  1  0
 60 28  1  0
 61 29  1  0
 62 31  1  0
 63 32  1  0
 64 32  1  0
 65 33  1  0
 66 33  1  0
 67 34  1  0
 68 14  1  0
M  CHG  1  14   1
M  END
>  <b_m_subgroup_collapsed>  (902) 
0

>  <r_i_docking_score>  (902) 
-7.1639029695521899

>  <s_m_subgroup_title>  (902) 
glide-dock_SP_D22_pv

>  <s_m_subgroupid>  (902) 
glide-dock_SP_D22_pv

>  <Molecule ChEMBL ID>  (902) 
CHEMBL4570554

>  <Standard Type>  (902) 
Ki

>  <Standard Value>  (902) 
13500.0

>  <label>  (902) 
0

$$$$
CHEMBL908
     RDKit          3D

 40 42  0  0  1  0  0  0  0  0999 V2000
    8.6381    5.6948   -8.0786 C   0  0  0  0  0  0  0  0  0  0  0  0
    8.8860    6.9923   -8.7466 N   0  0  0  0  0  0  0  0  0  0  0  0
    9.1171    8.0779   -7.7681 C   0  0  0  0  0  0  0  0  0  0  0  0
    9.9261    6.9229   -9.8024 C   0  0  0  0  0  0  0  0  0  0  0  0
    9.3505    6.3631  -11.1117 C   0  0  0  0  0  0  0  0  0  0  0  0
   10.3620    6.3338  -12.2475 C   0  0  0  0  0  0  0  0  0  0  0  0
   10.3946    5.5196  -13.3349 C   0  0  0  0  0  0  0  0  0  0  0  0
   11.4793    5.7060  -14.3365 C   0  0  0  0  0  0  0  0  0  0  0  0
   12.0861    6.9692  -14.5595 C   0  0  0  0  0  0  0  0  0  0  0  0
   13.1087    7.1319  -15.5124 C   0  0  0  0  0  0  0  0  0  0  0  0
   13.5655    6.0263  -16.2480 C   0  0  0  0  0  0  0  0  0  0  0  0
   12.9878    4.7640  -16.0320 C   0  0  0  0  0  0  0  0  0  0  0  0
   11.9550    4.6039  -15.0878 C   0  0  0  0  0  0  0  0  0  0  0  0
   11.2845    2.9895  -14.8690 S   0  0  0  0  0  0  0  0  0  0  0  0
    9.6397    3.3343  -14.3447 C   0  0  0  0  0  0  0  0  0  0  0  0
    8.6508    2.3723  -14.6338 C   0  0  0  0  0  0  0  0  0  0  0  0
    7.3176    2.5859  -14.2469 C   0  0  0  0  0  0  0  0  0  0  0  0
    6.9764    3.7725  -13.5766 C   0  0  0  0  0  0  0  0  0  0  0  0
    5.3562    4.0286  -13.0468 Cl  0  0  0  0  0  0  0  0  0  0  0  0
    7.9591    4.7486  -13.3242 C   0  0  0  0  0  0  0  0  0  0  0  0
    9.3187    4.5385  -13.6674 C   0  0  0  0  0  0  0  0  0  0  0  0
    9.5195    5.3731   -7.5234 H   0  0  0  0  0  0  0  0  0  0  0  0
    7.8051    5.7732   -7.3781 H   0  0  0  0  0  0  0  0  0  0  0  0
    8.3799    4.9164   -8.7963 H   0  0  0  0  0  0  0  0  0  0  0  0
   10.0447    7.9211   -7.2160 H   0  0  0  0  0  0  0  0  0  0  0  0
    9.1713    9.0456   -8.2692 H   0  0  0  0  0  0  0  0  0  0  0  0
    8.2950    8.1296   -7.0514 H   0  0  0  0  0  0  0  0  0  0  0  0
   10.7769    6.3327   -9.4581 H   0  0  0  0  0  0  0  0  0  0  0  0
   10.3053    7.9270  -10.0003 H   0  0  0  0  0  0  0  0  0  0  0  0
    8.5181    7.0011  -11.4132 H   0  0  0  0  0  0  0  0  0  0  0  0
    8.9610    5.3589  -10.9473 H   0  0  0  0  0  0  0  0  0  0  0  0
   11.1514    7.0587  -12.1208 H   0  0  0  0  0  0  0  0  0  0  0  0
   11.7513    7.8452  -14.0268 H   0  0  0  0  0  0  0  0  0  0  0  0
   13.5426    8.1069  -15.6790 H   0  0  0  0  0  0  0  0  0  0  0  0
   14.3557    6.1453  -16.9746 H   0  0  0  0  0  0  0  0  0  0  0  0
   13.3431    3.9115  -16.5929 H   0  0  0  0  0  0  0  0  0  0  0  0
    8.9181    1.4604  -15.1479 H   0  0  0  0  0  0  0  0  0  0  0  0
    6.5647    1.8385  -14.4510 H   0  0  0  0  0  0  0  0  0  0  0  0
    7.6350    5.6622  -12.8551 H   0  0  0  0  0  0  0  0  0  0  0  0
    8.0096    7.2382   -9.2096 H   0  0  0  0  0  0  0  0  0  0  0  0
  2  1  1  0
  3  2  1  0
  4  2  1  0
  5  4  1  0
  6  5  1  0
  7  6  2  0
  8  7  1  0
  9  8  2  0
 10  9  1  0
 11 10  2  0
 12 11  1  0
 13  8  1  0
 13 12  2  0
 14 13  1  0
 15 14  1  0
 16 15  1  0
 17 16  2  0
 18 17  1  0
 19 18  1  0
 20 18  2  0
 21  7  1  0
 21 15  2  0
 21 20  1  0
 22  1  1  0
 23  1  1  0
 24  1  1  0
 25  3  1  0
 26  3  1  0
 27  3  1  0
 28  4  1  0
 29  4  1  0
 30  5  1  0
 31  5  1  0
 32  6  1  0
 33  9  1  0
 34 10  1  0
 35 11  1  0
 36 12  1  0
 37 16  1  0
 38 17  1  0
 39 20  1  0
 40  2  1  0
M  CHG  1   2   1
M  END
>  <b_m_subgroup_collapsed>  (903) 
0

>  <r_i_docking_score>  (903) 
-7.16389265372867

>  <s_m_subgroup_title>  (903) 
glide-dock_SP_D22_pv

>  <s_m_subgroupid>  (903) 
glide-dock_SP_D22_pv

>  <Molecule ChEMBL ID>  (903) 
CHEMBL908

>  <Standard Type>  (903) 
Ki

>  <Standard Value>  (903) 
2.96

>  <label>  (903) 
1

$$$$
CHEMBL286080
     RDKit          3D

 37 39  0  0  1  0  0  0  0  0999 V2000
    6.4797   -0.6326  -14.6390 O   0  0  0  0  0  0  0  0  0  0  0  0
    7.0780    0.5832  -14.4998 C   0  0  0  0  0  0  0  0  0  0  0  0
    6.3169    1.6436  -13.9857 C   0  0  0  0  0  0  0  0  0  0  0  0
    6.8619    2.9383  -13.8470 C   0  0  0  0  0  0  0  0  0  0  0  0
    8.2104    3.1780  -14.2156 C   0  0  0  0  0  0  0  0  0  0  0  0
    8.9789    2.0841  -14.7059 C   0  0  0  0  0  0  0  0  0  0  0  0
    8.4228    0.7965  -14.8586 C   0  0  0  0  0  0  0  0  0  0  0  0
    9.1937   -0.2224  -15.3556 O   0  0  0  0  0  0  0  0  0  0  0  0
    8.8202    4.5872  -14.0893 C   0  0  2  0  0  0  0  0  0  0  0  0
   10.1714    4.7108  -14.7972 C   0  0  0  0  0  0  0  0  0  0  0  0
   10.2061    4.9715  -16.1868 C   0  0  0  0  0  0  0  0  0  0  0  0
   11.4362    5.0907  -16.8643 C   0  0  0  0  0  0  0  0  0  0  0  0
   12.6455    4.9542  -16.1569 C   0  0  0  0  0  0  0  0  0  0  0  0
   12.6203    4.6883  -14.7771 C   0  0  0  0  0  0  0  0  0  0  0  0
   11.3927    4.5602  -14.1001 C   0  0  0  0  0  0  0  0  0  0  0  0
    8.8579    5.1197  -12.6293 C   0  0  0  0  0  0  0  0  0  0  0  0
    7.5526    5.5957  -12.1160 N   0  0  0  0  0  0  0  0  0  0  0  0
    6.4895    4.5914  -11.9431 C   0  0  0  0  0  0  0  0  0  0  0  0
    5.9668    4.0218  -13.2672 C   0  0  0  0  0  0  0  0  0  0  0  0
    6.9987   -1.3130  -15.0476 H   0  0  0  0  0  0  0  0  0  0  0  0
    5.2882    1.4540  -13.7095 H   0  0  0  0  0  0  0  0  0  0  0  0
   10.0156    2.2078  -14.9834 H   0  0  0  0  0  0  0  0  0  0  0  0
    8.7594   -1.0607  -15.4466 H   0  0  0  0  0  0  0  0  0  0  0  0
    8.1597    5.2512  -14.6468 H   0  0  0  0  0  0  0  0  0  0  0  0
    9.2860    5.0744  -16.7449 H   0  0  0  0  0  0  0  0  0  0  0  0
   11.4547    5.2898  -17.9267 H   0  0  0  0  0  0  0  0  0  0  0  0
   13.5921    5.0460  -16.6721 H   0  0  0  0  0  0  0  0  0  0  0  0
   13.5469    4.5757  -14.2350 H   0  0  0  0  0  0  0  0  0  0  0  0
   11.4033    4.3411  -13.0466 H   0  0  0  0  0  0  0  0  0  0  0  0
    9.2878    4.3784  -11.9535 H   0  0  0  0  0  0  0  0  0  0  0  0
    9.5089    5.9917  -12.5886 H   0  0  0  0  0  0  0  0  0  0  0  0
    7.6977    6.0188  -11.2071 H   0  0  0  0  0  0  0  0  0  0  0  0
    6.8080    3.7952  -11.2658 H   0  0  0  0  0  0  0  0  0  0  0  0
    5.6678    5.1088  -11.4469 H   0  0  0  0  0  0  0  0  0  0  0  0
    5.8104    4.8087  -14.0031 H   0  0  0  0  0  0  0  0  0  0  0  0
    4.9782    3.5967  -13.0853 H   0  0  0  0  0  0  0  0  0  0  0  0
    7.2060    6.3293  -12.7155 H   0  0  0  0  0  0  0  0  0  0  0  0
  2  1  1  0
  3  2  2  0
  4  3  1  0
  5  4  2  0
  6  5  1  0
  7  2  1  0
  7  6  2  0
  8  7  1  0
  9  5  1  0
 10  9  1  0
 11 10  2  0
 12 11  1  0
 13 12  2  0
 14 13  1  0
 15 10  1  0
 15 14  2  0
 16  9  1  0
 17 16  1  0
 18 17  1  0
 19  4  1  0
 19 18  1  0
 20  1  1  0
 21  3  1  0
 22  6  1  0
 23  8  1  0
  9 24  1  6
 25 11  1  0
 26 12  1  0
 27 13  1  0
 28 14  1  0
 29 15  1  0
 30 16  1  0
 31 16  1  0
 32 17  1  0
 33 18  1  0
 34 18  1  0
 35 19  1  0
 36 19  1  0
 37 17  1  0
M  CHG  1  17   1
M  END
>  <b_m_subgroup_collapsed>  (904) 
0

>  <r_i_docking_score>  (904) 
-7.1637135817037096

>  <s_m_subgroup_title>  (904) 
glide-dock_SP_D22_pv

>  <s_m_subgroupid>  (904) 
glide-dock_SP_D22_pv

>  <Molecule ChEMBL ID>  (904) 
CHEMBL286080

>  <Standard Type>  (904) 
Ki

>  <Standard Value>  (904) 
720000.0

>  <label>  (904) 
0

$$$$
CHEMBL2031737
     RDKit          3D

 51 54  0  0  1  0  0  0  0  0999 V2000
    6.2569    3.6417  -13.4942 C   0  0  0  0  0  0  0  0  0  0  0  0
    6.9207    2.5774  -14.3862 C   0  0  2  0  0  0  0  0  0  0  0  0
    6.4703    1.1527  -14.0342 C   0  0  0  0  0  0  0  0  0  0  0  0
    7.7131    0.2666  -14.1705 C   0  0  0  0  0  0  0  0  0  0  0  0
    8.8484    1.2069  -14.5805 C   0  0  0  0  0  0  0  0  0  0  0  0
    8.3939    2.5744  -14.2467 N   0  0  1  0  0  0  0  0  0  0  0  0
    9.1095    3.6560  -14.9700 C   0  0  0  0  0  0  0  0  0  0  0  0
   10.3755    4.0980  -14.2285 C   0  0  0  0  0  0  0  0  0  0  0  0
   10.0964    4.8992  -12.9958 C   0  0  0  0  0  0  0  0  0  0  0  0
   10.4859    6.1715  -12.6468 C   0  0  0  0  0  0  0  0  0  0  0  0
   10.0341    6.3685  -11.2983 C   0  0  0  0  0  0  0  0  0  0  0  0
   10.1427    7.3776  -10.3125 C   0  0  0  0  0  0  0  0  0  0  0  0
    9.5890    7.1973   -9.0233 C   0  0  0  0  0  0  0  0  0  0  0  0
    9.6249    8.3229   -8.0633 C   0  0  0  0  0  0  0  0  0  0  0  0
    9.0624    9.3705   -8.3600 O   0  0  0  0  0  0  0  0  0  0  0  0
   10.3863    8.1921   -6.7819 C   0  0  0  0  0  0  0  0  0  0  0  0
   10.7354    9.3625   -6.0648 C   0  0  0  0  0  0  0  0  0  0  0  0
   11.3785    9.2826   -4.8153 C   0  0  0  0  0  0  0  0  0  0  0  0
   11.6861    8.0284   -4.2456 C   0  0  0  0  0  0  0  0  0  0  0  0
   12.2705    7.9340   -2.8957 N   0  0  0  0  0  0  0  0  0  0  0  0
   12.4875    8.9723   -2.2825 O   0  0  0  0  0  0  0  0  0  0  0  0
   12.4857    6.8157   -2.4399 O   0  0  0  0  0  0  0  0  0  0  0  0
   11.3680    6.8625   -4.9765 C   0  0  0  0  0  0  0  0  0  0  0  0
   10.7468    6.9425   -6.2347 C   0  0  0  0  0  0  0  0  0  0  0  0
    8.8866    6.0117   -8.7131 C   0  0  0  0  0  0  0  0  0  0  0  0
    8.7581    4.9965   -9.6770 C   0  0  0  0  0  0  0  0  0  0  0  0
    9.3355    5.1855  -10.9418 C   0  0  0  0  0  0  0  0  0  0  0  0
    9.3713    4.2953  -11.9997 O   0  0  0  0  0  0  0  0  0  0  0  0
    5.1709    3.6036  -13.5874 H   0  0  0  0  0  0  0  0  0  0  0  0
    6.5030    3.4927  -12.4420 H   0  0  0  0  0  0  0  0  0  0  0  0
    6.5685    4.6514  -13.7606 H   0  0  0  0  0  0  0  0  0  0  0  0
    6.6728    2.7616  -15.4319 H   0  0  0  0  0  0  0  0  0  0  0  0
    5.6610    0.8192  -14.6856 H   0  0  0  0  0  0  0  0  0  0  0  0
    6.0933    1.1026  -13.0110 H   0  0  0  0  0  0  0  0  0  0  0  0
    7.5666   -0.5247  -14.9072 H   0  0  0  0  0  0  0  0  0  0  0  0
    7.9285   -0.2221  -13.2200 H   0  0  0  0  0  0  0  0  0  0  0  0
    9.0075    1.1153  -15.6564 H   0  0  0  0  0  0  0  0  0  0  0  0
    9.7897    0.9637  -14.0903 H   0  0  0  0  0  0  0  0  0  0  0  0
    8.4849    4.5413  -15.0484 H   0  0  0  0  0  0  0  0  0  0  0  0
    9.3395    3.3413  -15.9890 H   0  0  0  0  0  0  0  0  0  0  0  0
   10.9820    4.6986  -14.9064 H   0  0  0  0  0  0  0  0  0  0  0  0
   10.9889    3.2312  -13.9730 H   0  0  0  0  0  0  0  0  0  0  0  0
   11.0695    6.8680  -13.2293 H   0  0  0  0  0  0  0  0  0  0  0  0
   10.6486    8.2998  -10.5570 H   0  0  0  0  0  0  0  0  0  0  0  0
   10.4921   10.3380   -6.4605 H   0  0  0  0  0  0  0  0  0  0  0  0
   11.6099   10.1937   -4.2839 H   0  0  0  0  0  0  0  0  0  0  0  0
   11.5861    5.8846   -4.5709 H   0  0  0  0  0  0  0  0  0  0  0  0
   10.5243    6.0177   -6.7428 H   0  0  0  0  0  0  0  0  0  0  0  0
    8.3972    5.8986   -7.7551 H   0  0  0  0  0  0  0  0  0  0  0  0
    8.1920    4.1107   -9.4468 H   0  0  0  0  0  0  0  0  0  0  0  0
    8.5765    2.7127  -13.2618 H   0  0  0  0  0  0  0  0  0  0  0  0
  2  1  1  0
  3  2  1  0
  4  3  1  0
  5  4  1  0
  6  2  1  0
  6  5  1  0
  7  6  1  0
  8  7  1  0
  9  8  1  0
 10  9  2  0
 11 10  1  0
 12 11  2  0
 13 12  1  0
 14 13  1  0
 15 14  2  0
 16 14  1  0
 17 16  1  0
 18 17  2  0
 19 18  1  0
 20 19  1  0
 21 20  2  0
 22 20  1  0
 23 19  2  0
 24 16  2  0
 24 23  1  0
 25 13  2  0
 26 25  1  0
 27 11  1  0
 27 26  2  0
 28  9  1  0
 28 27  1  0
 29  1  1  0
 30  1  1  0
 31  1  1  0
  2 32  1  6
 33  3  1  0
 34  3  1  0
 35  4  1  0
 36  4  1  0
 37  5  1  0
 38  5  1  0
 39  7  1  0
 40  7  1  0
 41  8  1  0
 42  8  1  0
 43 10  1  0
 44 12  1  0
 45 17  1  0
 46 18  1  0
 47 23  1  0
 48 24  1  0
 49 25  1  0
 50 26  1  0
  6 51  1  1
M  CHG  3   6   1  20   1  22  -1
M  END
>  <b_m_subgroup_collapsed>  (905) 
0

>  <r_i_docking_score>  (905) 
-7.1624638747609897

>  <s_m_subgroup_title>  (905) 
glide-dock_SP_D22_pv

>  <s_m_subgroupid>  (905) 
glide-dock_SP_D22_pv

>  <Molecule ChEMBL ID>  (905) 
CHEMBL2031737

>  <Standard Type>  (905) 
Ki

>  <Standard Value>  (905) 
10000.0

>  <label>  (905) 
0

$$$$
CHEMBL5172819
     RDKit          3D

 58 61  0  0  1  0  0  0  0  0999 V2000
   10.0851   -1.1325  -17.0702 O   0  0  0  0  0  0  0  0  0  0  0  0
   10.1726    0.0660  -16.8244 C   0  0  0  0  0  0  0  0  0  0  0  0
   11.0617    0.9651  -17.6950 C   0  0  0  0  0  0  0  0  0  0  0  0
   11.7028    2.0986  -16.8775 C   0  0  0  0  0  0  0  0  0  0  0  0
   10.6935    2.7762  -15.9721 C   0  0  0  0  0  0  0  0  0  0  0  0
   10.8263    4.1289  -15.6132 C   0  0  0  0  0  0  0  0  0  0  0  0
    9.8802    4.7227  -14.7574 C   0  0  0  0  0  0  0  0  0  0  0  0
    8.7931    3.9704  -14.2461 C   0  0  0  0  0  0  0  0  0  0  0  0
    7.8109    4.4791  -13.4219 O   0  0  0  0  0  0  0  0  0  0  0  0
    7.8672    5.8419  -13.0120 C   0  0  0  0  0  0  0  0  0  0  0  0
    8.8684    6.0614  -11.8683 C   0  0  0  0  0  0  0  0  0  0  0  0
    8.4400    5.3308  -10.5915 C   0  0  0  0  0  0  0  0  0  0  0  0
    9.4713    5.3739   -9.4578 C   0  0  0  0  0  0  0  0  0  0  0  0
    9.3666    6.6349   -8.7310 N   0  0  0  0  0  0  0  0  0  0  0  0
   10.3982    7.5920   -9.1303 C   0  0  0  0  0  0  0  0  0  0  0  0
   10.1647    8.9204   -8.3913 C   0  0  0  0  0  0  0  0  0  0  0  0
   10.2750    8.6741   -6.9509 N   0  0  0  0  0  0  0  0  0  0  0  0
   11.1444    9.3521   -6.1663 C   0  0  0  0  0  0  0  0  0  0  0  0
   11.6863   10.3889   -6.5454 O   0  0  0  0  0  0  0  0  0  0  0  0
   11.4723    8.8339   -4.7882 C   0  0  0  0  0  0  0  0  0  0  0  0
   11.6859    7.4567   -4.5385 C   0  0  0  0  0  0  0  0  0  0  0  0
   12.0876    7.0506   -3.2513 C   0  0  0  0  0  0  0  0  0  0  0  0
   12.3030    8.0340   -2.2693 C   0  0  0  0  0  0  0  0  0  0  0  0
   12.0858    9.3777   -2.6148 C   0  0  0  0  0  0  0  0  0  0  0  0
   11.6712    9.7698   -3.8336 N   0  0  0  0  0  0  0  0  0  0  0  0
    9.2542    7.7150   -6.5133 C   0  0  0  0  0  0  0  0  0  0  0  0
    9.3961    6.3964   -7.2904 C   0  0  0  0  0  0  0  0  0  0  0  0
    8.6804    2.6085  -14.6016 C   0  0  0  0  0  0  0  0  0  0  0  0
    9.6210    2.0113  -15.4634 C   0  0  0  0  0  0  0  0  0  0  0  0
    9.4938    0.6425  -15.8193 N   0  0  0  0  0  0  0  0  0  0  0  0
   11.8326    0.3721  -18.1883 H   0  0  0  0  0  0  0  0  0  0  0  0
   10.4342    1.3866  -18.4789 H   0  0  0  0  0  0  0  0  0  0  0  0
   12.1637    2.8309  -17.5417 H   0  0  0  0  0  0  0  0  0  0  0  0
   12.4876    1.6935  -16.2463 H   0  0  0  0  0  0  0  0  0  0  0  0
   11.6507    4.7163  -15.9897 H   0  0  0  0  0  0  0  0  0  0  0  0
   10.0192    5.7629  -14.5068 H   0  0  0  0  0  0  0  0  0  0  0  0
    6.8706    6.1242  -12.6738 H   0  0  0  0  0  0  0  0  0  0  0  0
    8.0854    6.5028  -13.8458 H   0  0  0  0  0  0  0  0  0  0  0  0
    8.9174    7.1300  -11.6667 H   0  0  0  0  0  0  0  0  0  0  0  0
    9.8693    5.7486  -12.1599 H   0  0  0  0  0  0  0  0  0  0  0  0
    8.2468    4.2851  -10.8362 H   0  0  0  0  0  0  0  0  0  0  0  0
    7.4892    5.7442  -10.2478 H   0  0  0  0  0  0  0  0  0  0  0  0
   10.4848    5.1989   -9.8145 H   0  0  0  0  0  0  0  0  0  0  0  0
    9.2348    4.5456   -8.7870 H   0  0  0  0  0  0  0  0  0  0  0  0
   10.3662    7.7624  -10.2031 H   0  0  0  0  0  0  0  0  0  0  0  0
   11.3897    7.1955   -8.9012 H   0  0  0  0  0  0  0  0  0  0  0  0
    9.1779    9.3254   -8.6260 H   0  0  0  0  0  0  0  0  0  0  0  0
   10.8908    9.6496   -8.7536 H   0  0  0  0  0  0  0  0  0  0  0  0
   11.5687    6.7163   -5.3158 H   0  0  0  0  0  0  0  0  0  0  0  0
   12.2524    6.0060   -3.0312 H   0  0  0  0  0  0  0  0  0  0  0  0
   12.6299    7.7709   -1.2763 H   0  0  0  0  0  0  0  0  0  0  0  0
   12.2245   10.1636   -1.8884 H   0  0  0  0  0  0  0  0  0  0  0  0
    9.2855    7.4984   -5.4476 H   0  0  0  0  0  0  0  0  0  0  0  0
    8.2664    8.1442   -6.6952 H   0  0  0  0  0  0  0  0  0  0  0  0
    8.5513    5.7527   -7.0404 H   0  0  0  0  0  0  0  0  0  0  0  0
   10.3091    5.8693   -7.0140 H   0  0  0  0  0  0  0  0  0  0  0  0
    7.8561    2.0272  -14.2114 H   0  0  0  0  0  0  0  0  0  0  0  0
    8.8496    0.0706  -15.2915 H   0  0  0  0  0  0  0  0  0  0  0  0
  2  1  2  0
  3  2  1  0
  4  3  1  0
  5  4  1  0
  6  5  1  0
  7  6  2  0
  8  7  1  0
  9  8  1  0
 10  9  1  0
 11 10  1  0
 12 11  1  0
 13 12  1  0
 14 13  1  0
 15 14  1  0
 16 15  1  0
 17 16  1  0
 18 17  1  0
 19 18  2  0
 20 18  1  0
 21 20  2  0
 22 21  1  0
 23 22  2  0
 24 23  1  0
 25 20  1  0
 25 24  2  0
 26 17  1  0
 27 14  1  0
 27 26  1  0
 28  8  2  0
 29  5  2  0
 29 28  1  0
 30  2  1  0
 30 29  1  0
 31  3  1  0
 32  3  1  0
 33  4  1  0
 34  4  1  0
 35  6  1  0
 36  7  1  0
 37 10  1  0
 38 10  1  0
 39 11  1  0
 40 11  1  0
 41 12  1  0
 42 12  1  0
 43 13  1  0
 44 13  1  0
 45 15  1  0
 46 15  1  0
 47 16  1  0
 48 16  1  0
 49 21  1  0
 50 22  1  0
 51 23  1  0
 52 24  1  0
 53 26  1  0
 54 26  1  0
 55 27  1  0
 56 27  1  0
 57 28  1  0
 58 30  1  0
M  END
>  <b_m_subgroup_collapsed>  (906) 
0

>  <r_i_docking_score>  (906) 
-7.1600543495435902

>  <s_m_subgroup_title>  (906) 
glide-dock_SP_D22_pv

>  <s_m_subgroupid>  (906) 
glide-dock_SP_D22_pv

>  <Molecule ChEMBL ID>  (906) 
CHEMBL5172819

>  <Standard Type>  (906) 
Ki

>  <Standard Value>  (906) 
9.0

>  <label>  (906) 
1

$$$$
CHEMBL1744088
     RDKit          3D

 70 73  0  0  1  0  0  0  0  0999 V2000
    5.3459    8.2185  -12.6470 C   0  0  0  0  0  0  0  0  0  0  0  0
    6.8512    7.9666  -12.6468 C   0  0  0  0  0  0  0  0  0  0  0  0
    7.1774    6.4609  -12.5866 C   0  0  0  0  0  0  0  0  0  0  0  0
    8.6397    6.1699  -12.6712 N   0  0  1  0  0  0  0  0  0  0  0  0
    9.3969    6.5773  -11.4604 C   0  0  0  0  0  0  0  0  0  0  0  0
    9.0469    5.7665  -10.1923 C   0  0  0  0  0  0  0  0  0  0  0  0
    9.8809    6.2171   -8.9993 C   0  0  0  0  0  0  0  0  0  0  0  0
    9.3445    7.5166   -8.3751 C   0  0  0  0  0  0  0  0  0  0  0  0
   10.2834    8.0321   -7.3671 N   0  0  0  0  0  0  0  0  0  0  0  0
   11.1765    8.9817   -7.7267 C   0  0  0  0  0  0  0  0  0  0  0  0
   11.2860    9.3705   -8.8901 O   0  0  0  0  0  0  0  0  0  0  0  0
   12.1036    9.6216   -6.6784 C   0  0  0  0  0  0  0  0  0  0  0  0
   11.7751    9.3041   -5.2075 C   0  0  0  0  0  0  0  0  0  0  0  0
   13.0632    9.4153   -4.3930 C   0  0  0  0  0  0  0  0  0  0  0  0
   10.7345   10.2975   -4.6439 C   0  0  0  0  0  0  0  0  0  0  0  0
   11.2862    7.8535   -5.0826 C   0  0  0  0  0  0  0  0  0  0  0  0
   10.2682    7.4618   -6.1430 C   0  0  0  0  0  0  0  0  0  0  0  0
    9.4883    6.5725   -5.8483 O   0  0  0  0  0  0  0  0  0  0  0  0
    9.0665    4.8252  -13.1850 C   0  0  2  0  0  0  0  0  0  0  0  0
   10.0956    4.9612  -14.3172 C   0  0  0  0  0  0  0  0  0  0  0  0
   10.7220    3.5993  -14.6667 C   0  0  0  0  0  0  0  0  0  0  0  0
    9.7143    2.4600  -14.7519 C   0  0  0  0  0  0  0  0  0  0  0  0
   10.1106    1.2372  -15.3307 C   0  0  0  0  0  0  0  0  0  0  0  0
    9.1974    0.1723  -15.4273 C   0  0  0  0  0  0  0  0  0  0  0  0
    7.8878    0.3312  -14.9398 C   0  0  0  0  0  0  0  0  0  0  0  0
    6.7865   -0.5065  -14.9151 N   0  0  0  0  0  0  0  0  0  0  0  0
    5.7153    0.1558  -14.3504 C   0  0  0  0  0  0  0  0  0  0  0  0
    4.4155   -0.3680  -14.2475 C   0  0  0  0  0  0  0  0  0  0  0  0
    3.3441   -0.7931  -14.1596 N   0  0  0  0  0  0  0  0  0  0  0  0
    6.0860    1.4003  -13.9309 C   0  0  0  0  0  0  0  0  0  0  0  0
    7.4595    1.5471  -14.3318 C   0  0  0  0  0  0  0  0  0  0  0  0
    8.3971    2.6011  -14.2475 C   0  0  0  0  0  0  0  0  0  0  0  0
    7.9249    3.8994  -13.6335 C   0  0  0  0  0  0  0  0  0  0  0  0
    5.0857    9.2535  -12.4463 H   0  0  0  0  0  0  0  0  0  0  0  0
    4.9160    7.9578  -13.6101 H   0  0  0  0  0  0  0  0  0  0  0  0
    4.8860    7.6312  -11.8560 H   0  0  0  0  0  0  0  0  0  0  0  0
    7.3109    8.5261  -11.8471 H   0  0  0  0  0  0  0  0  0  0  0  0
    7.3157    8.4711  -13.4469 H   0  0  0  0  0  0  0  0  0  0  0  0
    6.6373    6.0190  -13.4152 H   0  0  0  0  0  0  0  0  0  0  0  0
    6.7404    6.0054  -11.6993 H   0  0  0  0  0  0  0  0  0  0  0  0
   10.4619    6.4753  -11.6724 H   0  0  0  0  0  0  0  0  0  0  0  0
    9.2461    7.6404  -11.2837 H   0  0  0  0  0  0  0  0  0  0  0  0
    7.9928    5.8544   -9.9319 H   0  0  0  0  0  0  0  0  0  0  0  0
    9.2285    4.7035  -10.3401 H   0  0  0  0  0  0  0  0  0  0  0  0
    9.8732    5.4256   -8.2487 H   0  0  0  0  0  0  0  0  0  0  0  0
   10.9211    6.3364   -9.3018 H   0  0  0  0  0  0  0  0  0  0  0  0
    9.1278    8.2646   -9.1390 H   0  0  0  0  0  0  0  0  0  0  0  0
    8.3715    7.3254   -7.9237 H   0  0  0  0  0  0  0  0  0  0  0  0
   13.1187    9.3148   -6.9319 H   0  0  0  0  0  0  0  0  0  0  0  0
   12.0811   10.7037   -6.7942 H   0  0  0  0  0  0  0  0  0  0  0  0
   12.8844    9.4028   -3.3169 H   0  0  0  0  0  0  0  0  0  0  0  0
   13.6861    8.5723   -4.6419 H   0  0  0  0  0  0  0  0  0  0  0  0
   13.6779   10.2720   -4.6470 H   0  0  0  0  0  0  0  0  0  0  0  0
   10.6207   10.1752   -3.5670 H   0  0  0  0  0  0  0  0  0  0  0  0
   11.0275   11.3307   -4.8252 H   0  0  0  0  0  0  0  0  0  0  0  0
    9.7469   10.1724   -5.0758 H   0  0  0  0  0  0  0  0  0  0  0  0
   12.0860    7.1289   -5.1946 H   0  0  0  0  0  0  0  0  0  0  0  0
   10.8860    7.6704   -4.0892 H   0  0  0  0  0  0  0  0  0  0  0  0
    9.5787    4.2893  -12.3875 H   0  0  0  0  0  0  0  0  0  0  0  0
    9.6024    5.3695  -15.2002 H   0  0  0  0  0  0  0  0  0  0  0  0
   10.8870    5.6628  -14.0516 H   0  0  0  0  0  0  0  0  0  0  0  0
   11.4527    3.3297  -13.9033 H   0  0  0  0  0  0  0  0  0  0  0  0
   11.2707    3.6742  -15.6062 H   0  0  0  0  0  0  0  0  0  0  0  0
   11.1167    1.1156  -15.7071 H   0  0  0  0  0  0  0  0  0  0  0  0
    9.4986   -0.7602  -15.8791 H   0  0  0  0  0  0  0  0  0  0  0  0
    6.7644   -1.4607  -15.2657 H   0  0  0  0  0  0  0  0  0  0  0  0
    5.4687    2.1455  -13.4503 H   0  0  0  0  0  0  0  0  0  0  0  0
    7.3271    4.3592  -14.4147 H   0  0  0  0  0  0  0  0  0  0  0  0
    7.2663    3.6868  -12.7903 H   0  0  0  0  0  0  0  0  0  0  0  0
    8.9528    6.8036  -13.3913 H   0  0  0  0  0  0  0  0  0  0  0  0
  2  1  1  0
  3  2  1  0
  4  3  1  0
  5  4  1  0
  6  5  1  0
  7  6  1  0
  8  7  1  0
  9  8  1  0
 10  9  1  0
 11 10  2  0
 12 10  1  0
 13 12  1  0
 14 13  1  0
 15 13  1  0
 16 13  1  0
 17  9  1  0
 17 16  1  0
 18 17  2  0
 19  4  1  0
 20 19  1  0
 21 20  1  0
 22 21  1  0
 23 22  2  0
 24 23  1  0
 25 24  2  0
 26 25  1  0
 27 26  1  0
 28 27  1  0
 29 28  3  0
 30 27  2  0
 31 25  1  0
 31 30  1  0
 32 22  1  0
 32 31  2  0
 33 19  1  0
 33 32  1  0
 34  1  1  0
 35  1  1  0
 36  1  1  0
 37  2  1  0
 38  2  1  0
 39  3  1  0
 40  3  1  0
 41  5  1  0
 42  5  1  0
 43  6  1  0
 44  6  1  0
 45  7  1  0
 46  7  1  0
 47  8  1  0
 48  8  1  0
 49 12  1  0
 50 12  1  0
 51 14  1  0
 52 14  1  0
 53 14  1  0
 54 15  1  0
 55 15  1  0
 56 15  1  0
 57 16  1  0
 58 16  1  0
 19 59  1  1
 60 20  1  0
 61 20  1  0
 62 21  1  0
 63 21  1  0
 64 23  1  0
 65 24  1  0
 66 26  1  0
 67 30  1  0
 68 33  1  0
 69 33  1  0
  4 70  1  6
M  CHG  1   4   1
M  END
>  <b_m_subgroup_collapsed>  (907) 
0

>  <r_i_docking_score>  (907) 
-7.15865548012796

>  <s_m_subgroup_title>  (907) 
glide-dock_SP_D22_pv

>  <s_m_subgroupid>  (907) 
glide-dock_SP_D22_pv

>  <Molecule ChEMBL ID>  (907) 
CHEMBL1744088

>  <Standard Type>  (907) 
Ki

>  <Standard Value>  (907) 
44.0

>  <label>  (907) 
1

$$$$
CHEMBL5859405
     RDKit          3D

 70 73  0  0  1  0  0  0  0  0999 V2000
   12.6058    8.4877   -1.5110 C   0  0  0  0  0  0  0  0  0  0  0  0
   11.8918    7.3201   -2.2199 C   0  0  0  0  0  0  0  0  0  0  0  0
   12.0072    7.3171   -3.7561 C   0  0  0  0  0  0  0  0  0  0  0  0
   11.5084    6.1755   -4.2264 F   0  0  0  0  0  0  0  0  0  0  0  0
   13.2960    7.3721   -4.0166 F   0  0  0  0  0  0  0  0  0  0  0  0
   11.4195    8.4841   -4.4957 C   0  0  0  0  0  0  0  0  0  0  0  0
   11.3389    9.7765   -4.0655 C   0  0  0  0  0  0  0  0  0  0  0  0
   10.7956   10.5730   -5.0024 O   0  0  0  0  0  0  0  0  0  0  0  0
   10.4862    9.7748   -6.0971 N   0  0  0  0  0  0  0  0  0  0  0  0
   10.8693    8.5506   -5.8150 C   0  0  0  0  0  0  0  0  0  0  0  0
   10.5999    7.4958   -6.8641 C   0  0  1  0  0  0  0  0  0  0  0  0
    9.1273    7.0581   -6.8528 C   0  0  0  0  0  0  0  0  0  0  0  0
    8.8325    6.0179   -7.9461 C   0  0  0  0  0  0  0  0  0  0  0  0
    9.1999    6.4784   -9.3142 N   0  0  2  0  0  0  0  0  0  0  0  0
    8.9454    5.3868  -10.3027 C   0  0  0  0  0  0  0  0  0  0  0  0
    9.4393    5.6683  -11.7416 C   0  0  0  0  0  0  0  0  0  0  0  0
    9.3647    4.4425  -12.6765 C   0  0  1  0  0  0  0  0  0  0  0  0
    7.9729    4.2991  -13.3266 C   0  0  0  0  0  0  0  0  0  0  0  0
    7.9181    3.1346  -14.3313 C   0  0  0  0  0  0  0  0  0  0  0  0
    9.0293    3.2502  -15.3873 C   0  0  2  0  0  0  0  0  0  0  0  0
    8.9509    2.1132  -16.2927 N   0  0  0  0  0  0  0  0  0  0  0  0
    8.8122    2.1879  -17.6241 C   0  0  0  0  0  0  0  0  0  0  0  0
    8.8852    3.2393  -18.2579 O   0  0  0  0  0  0  0  0  0  0  0  0
    8.5135    0.8798  -18.3511 C   0  0  0  0  0  0  0  0  0  0  0  0
    7.0682    0.5585  -18.1354 C   0  0  0  0  0  0  0  0  0  0  0  0
    6.1176    0.8381  -19.0343 N   0  0  0  0  0  0  0  0  0  0  0  0
    4.8735    0.3614  -18.6433 N   0  0  0  0  0  0  0  0  0  0  0  0
    4.9104   -0.2508  -17.4535 C   0  0  0  0  0  0  0  0  0  0  0  0
    3.7179   -0.8772  -16.8109 C   0  0  0  0  0  0  0  0  0  0  0  0
    6.4815   -0.2302  -16.6755 S   0  0  0  0  0  0  0  0  0  0  0  0
   10.4070    3.3170  -14.7166 C   0  0  0  0  0  0  0  0  0  0  0  0
   10.4667    4.5128  -13.7577 C   0  0  0  0  0  0  0  0  0  0  0  0
   10.5953    7.0028   -9.3708 C   0  0  0  0  0  0  0  0  0  0  0  0
   10.9286    8.0165   -8.2763 C   0  0  0  0  0  0  0  0  0  0  0  0
   13.1654    8.1362   -0.6480 H   0  0  0  0  0  0  0  0  0  0  0  0
   13.3297    8.9839   -2.1569 H   0  0  0  0  0  0  0  0  0  0  0  0
   11.8987    9.2409   -1.1648 H   0  0  0  0  0  0  0  0  0  0  0  0
   10.8523    7.2784   -1.9041 H   0  0  0  0  0  0  0  0  0  0  0  0
   12.3370    6.3907   -1.8633 H   0  0  0  0  0  0  0  0  0  0  0  0
   11.6239   10.2887   -3.1601 H   0  0  0  0  0  0  0  0  0  0  0  0
   11.2306    6.6275   -6.6682 H   0  0  0  0  0  0  0  0  0  0  0  0
    8.8904    6.6329   -5.8786 H   0  0  0  0  0  0  0  0  0  0  0  0
    8.4697    7.9200   -6.9853 H   0  0  0  0  0  0  0  0  0  0  0  0
    9.3798    5.1023   -7.7207 H   0  0  0  0  0  0  0  0  0  0  0  0
    7.7735    5.7634   -7.9229 H   0  0  0  0  0  0  0  0  0  0  0  0
    9.4391    4.4810   -9.9456 H   0  0  0  0  0  0  0  0  0  0  0  0
    7.8759    5.1704  -10.3204 H   0  0  0  0  0  0  0  0  0  0  0  0
    8.9075    6.5189  -12.1723 H   0  0  0  0  0  0  0  0  0  0  0  0
   10.4855    5.9561  -11.7182 H   0  0  0  0  0  0  0  0  0  0  0  0
    9.5612    3.5439  -12.0894 H   0  0  0  0  0  0  0  0  0  0  0  0
    7.2118    4.1534  -12.5583 H   0  0  0  0  0  0  0  0  0  0  0  0
    7.7147    5.2229  -13.8442 H   0  0  0  0  0  0  0  0  0  0  0  0
    6.9382    3.1123  -14.8108 H   0  0  0  0  0  0  0  0  0  0  0  0
    8.0172    2.1808  -13.8144 H   0  0  0  0  0  0  0  0  0  0  0  0
    8.8864    4.1813  -15.9384 H   0  0  0  0  0  0  0  0  0  0  0  0
    8.8998    1.2008  -15.8658 H   0  0  0  0  0  0  0  0  0  0  0  0
    8.7182    0.9788  -19.4172 H   0  0  0  0  0  0  0  0  0  0  0  0
    9.1340    0.0699  -17.9679 H   0  0  0  0  0  0  0  0  0  0  0  0
    3.3961   -0.2654  -15.9671 H   0  0  0  0  0  0  0  0  0  0  0  0
    2.8929   -0.9587  -17.5208 H   0  0  0  0  0  0  0  0  0  0  0  0
    3.9588   -1.8784  -16.4540 H   0  0  0  0  0  0  0  0  0  0  0  0
   11.1870    3.4115  -15.4734 H   0  0  0  0  0  0  0  0  0  0  0  0
   10.6083    2.3942  -14.1705 H   0  0  0  0  0  0  0  0  0  0  0  0
   10.3635    5.4358  -14.3290 H   0  0  0  0  0  0  0  0  0  0  0  0
   11.4541    4.5450  -13.2940 H   0  0  0  0  0  0  0  0  0  0  0  0
   11.2855    6.1701   -9.3076 H   0  0  0  0  0  0  0  0  0  0  0  0
   10.7738    7.5063  -10.3200 H   0  0  0  0  0  0  0  0  0  0  0  0
   10.3611    8.9229   -8.4931 H   0  0  0  0  0  0  0  0  0  0  0  0
   11.9830    8.2917   -8.3358 H   0  0  0  0  0  0  0  0  0  0  0  0
    8.5691    7.2399   -9.5444 H   0  0  0  0  0  0  0  0  0  0  0  0
  2  1  1  0
  3  2  1  0
  4  3  1  0
  5  3  1  0
  6  3  1  0
  7  6  2  0
  8  7  1  0
  9  8  1  0
 10  6  1  0
 10  9  2  0
 11 10  1  0
 12 11  1  0
 13 12  1  0
 14 13  1  0
 15 14  1  0
 16 15  1  0
 17 16  1  0
 18 17  1  0
 19 18  1  0
 20 19  1  0
 21 20  1  0
 22 21  1  0
 23 22  2  0
 24 22  1  0
 25 24  1  0
 26 25  2  0
 27 26  1  0
 28 27  2  0
 29 28  1  0
 30 25  1  0
 30 28  1  0
 31 20  1  0
 32 17  1  0
 32 31  1  0
 33 14  1  0
 34 11  1  0
 34 33  1  0
 35  1  1  0
 36  1  1  0
 37  1  1  0
 38  2  1  0
 39  2  1  0
 40  7  1  0
 11 41  1  1
 42 12  1  0
 43 12  1  0
 44 13  1  0
 45 13  1  0
 46 15  1  0
 47 15  1  0
 48 16  1  0
 49 16  1  0
 17 50  1  1
 51 18  1  0
 52 18  1  0
 53 19  1  0
 54 19  1  0
 20 55  1  6
 56 21  1  0
 57 24  1  0
 58 24  1  0
 59 29  1  0
 60 29  1  0
 61 29  1  0
 62 31  1  0
 63 31  1  0
 64 32  1  0
 65 32  1  0
 66 33  1  0
 67 33  1  0
 68 34  1  0
 69 34  1  0
 14 70  1  6
M  CHG  1  14   1
M  END
>  <b_m_subgroup_collapsed>  (908) 
0

>  <r_i_docking_score>  (908) 
-7.1584325103852198

>  <s_m_subgroup_title>  (908) 
glide-dock_SP_D22_pv

>  <s_m_subgroupid>  (908) 
glide-dock_SP_D22_pv

>  <Molecule ChEMBL ID>  (908) 
CHEMBL5859405

>  <Standard Type>  (908) 
Ki

>  <Standard Value>  (908) 
67.0

>  <label>  (908) 
1

$$$$
CHEMBL253319
     RDKit          3D

 38 42  0  0  1  0  0  0  0  0999 V2000
   10.2816    6.3388  -12.6705 C   0  0  0  0  0  0  0  0  0  0  0  0
    8.9524    5.7774  -13.0110 N   0  0  2  0  0  0  0  0  0  0  0  0
    8.0352    5.9420  -11.8653 C   0  0  0  0  0  0  0  0  0  0  0  0
    6.6107    5.6384  -12.2988 C   0  0  0  0  0  0  0  0  0  0  0  0
    6.4690    4.2441  -12.8740 C   0  0  0  0  0  0  0  0  0  0  0  0
    5.3497    3.4118  -12.7760 C   0  0  0  0  0  0  0  0  0  0  0  0
    5.3754    2.1080  -13.3095 C   0  0  0  0  0  0  0  0  0  0  0  0
    6.4861    1.5994  -14.0304 C   0  0  0  0  0  0  0  0  0  0  0  0
    6.5000    0.1715  -14.5021 C   0  0  0  0  0  0  0  0  0  0  0  0
    5.5520   -0.5831  -14.2858 O   0  0  0  0  0  0  0  0  0  0  0  0
    7.6103   -0.2274  -15.1289 N   0  0  0  0  0  0  0  0  0  0  0  0
    8.7055    0.6161  -15.4105 C   0  0  0  0  0  0  0  0  0  0  0  0
    9.8003    0.1225  -16.1503 C   0  0  0  0  0  0  0  0  0  0  0  0
   10.8856    0.9480  -16.4943 C   0  0  0  0  0  0  0  0  0  0  0  0
   10.8949    2.2997  -16.1071 C   0  0  0  0  0  0  0  0  0  0  0  0
    9.8241    2.8257  -15.3590 C   0  0  0  0  0  0  0  0  0  0  0  0
    8.7522    1.9741  -15.0052 C   0  0  0  0  0  0  0  0  0  0  0  0
    7.5971    2.4714  -14.2012 C   0  0  0  0  0  0  0  0  0  0  0  0
    7.5855    3.7363  -13.5633 C   0  0  0  0  0  0  0  0  0  0  0  0
    8.9820    4.3752  -13.5256 C   0  0  1  0  0  0  0  0  0  0  0  0
    9.6995    4.2570  -14.8795 C   0  0  0  0  0  0  0  0  0  0  0  0
   10.7177    5.7785  -11.8479 H   0  0  0  0  0  0  0  0  0  0  0  0
   10.1913    7.3770  -12.3503 H   0  0  0  0  0  0  0  0  0  0  0  0
   10.9770    6.3303  -13.5077 H   0  0  0  0  0  0  0  0  0  0  0  0
    8.3313    5.2807  -11.0477 H   0  0  0  0  0  0  0  0  0  0  0  0
    8.0861    6.9626  -11.4801 H   0  0  0  0  0  0  0  0  0  0  0  0
    5.9403    5.7480  -11.4461 H   0  0  0  0  0  0  0  0  0  0  0  0
    6.2763    6.3598  -13.0428 H   0  0  0  0  0  0  0  0  0  0  0  0
    4.4862    3.7700  -12.2500 H   0  0  0  0  0  0  0  0  0  0  0  0
    4.5050    1.4828  -13.1658 H   0  0  0  0  0  0  0  0  0  0  0  0
    7.6820   -1.2027  -15.4150 H   0  0  0  0  0  0  0  0  0  0  0  0
    9.8075   -0.9087  -16.4718 H   0  0  0  0  0  0  0  0  0  0  0  0
   11.7127    0.5447  -17.0600 H   0  0  0  0  0  0  0  0  0  0  0  0
   11.7285    2.9288  -16.3842 H   0  0  0  0  0  0  0  0  0  0  0  0
    9.5505    3.7905  -12.7951 H   0  0  0  0  0  0  0  0  0  0  0  0
   10.7114    4.6557  -14.8307 H   0  0  0  0  0  0  0  0  0  0  0  0
    9.1755    4.8312  -15.6443 H   0  0  0  0  0  0  0  0  0  0  0  0
    8.5729    6.3474  -13.7540 H   0  0  0  0  0  0  0  0  0  0  0  0
  2  1  1  0
  3  2  1  0
  4  3  1  0
  5  4  1  0
  6  5  2  0
  7  6  1  0
  8  7  2  0
  9  8  1  0
 10  9  2  0
 11  9  1  0
 12 11  1  0
 13 12  2  0
 14 13  1  0
 15 14  2  0
 16 15  1  0
 17 12  1  0
 17 16  2  0
 18  8  1  0
 18 17  1  0
 19  5  1  0
 19 18  2  0
 20  2  1  0
 20 19  1  0
 21 16  1  0
 21 20  1  0
 22  1  1  0
 23  1  1  0
 24  1  1  0
 25  3  1  0
 26  3  1  0
 27  4  1  0
 28  4  1  0
 29  6  1  0
 30  7  1  0
 31 11  1  0
 32 13  1  0
 33 14  1  0
 34 15  1  0
 20 35  1  1
 36 21  1  0
 37 21  1  0
  2 38  1  6
M  CHG  1   2   1
M  END
>  <b_m_subgroup_collapsed>  (909) 
0

>  <r_i_docking_score>  (909) 
-7.1582152153156802

>  <s_m_subgroup_title>  (909) 
glide-dock_SP_D22_pv

>  <s_m_subgroupid>  (909) 
glide-dock_SP_D22_pv

>  <Molecule ChEMBL ID>  (909) 
CHEMBL253319

>  <Standard Type>  (909) 
Ki

>  <Standard Value>  (909) 
54.6

>  <label>  (909) 
1

$$$$
CHEMBL1082211
     RDKit          3D

 57 61  0  0  1  0  0  0  0  0999 V2000
    9.6864    4.3934  -17.1667 C   0  0  0  0  0  0  0  0  0  0  0  0
   10.8421    3.4895  -16.7123 C   0  0  1  0  0  0  0  0  0  0  0  0
   12.0024    4.2702  -16.0612 C   0  0  0  0  0  0  0  0  0  0  0  0
   11.5969    4.7909  -14.7477 N   0  0  0  0  0  0  0  0  0  0  0  0
   11.6866    6.1094  -14.4423 C   0  0  0  0  0  0  0  0  0  0  0  0
   12.0862    6.9477  -15.2527 O   0  0  0  0  0  0  0  0  0  0  0  0
   11.3781    6.5782  -13.0461 C   0  0  0  0  0  0  0  0  0  0  0  0
   12.3335    7.3724  -12.3928 C   0  0  0  0  0  0  0  0  0  0  0  0
   12.1006    7.8644  -11.0986 C   0  0  0  0  0  0  0  0  0  0  0  0
   10.9081    7.5790  -10.3968 C   0  0  0  0  0  0  0  0  0  0  0  0
   10.7242    8.0647   -9.0039 C   0  0  0  0  0  0  0  0  0  0  0  0
    9.4471    8.1140   -8.3950 C   0  0  0  0  0  0  0  0  0  0  0  0
    9.2863    8.5517   -7.0676 C   0  0  0  0  0  0  0  0  0  0  0  0
   10.3996    8.9728   -6.3197 C   0  0  0  0  0  0  0  0  0  0  0  0
   11.6733    8.9535   -6.9054 C   0  0  0  0  0  0  0  0  0  0  0  0
   11.8317    8.4902   -8.2246 C   0  0  0  0  0  0  0  0  0  0  0  0
    9.9272    6.8138  -11.0802 C   0  0  0  0  0  0  0  0  0  0  0  0
   10.1485    6.3327  -12.3906 C   0  0  0  0  0  0  0  0  0  0  0  0
   11.2189    3.6933  -13.8510 C   0  0  0  0  0  0  0  0  0  0  0  0
   10.0329    2.9219  -14.4534 C   0  0  0  0  0  0  0  0  0  0  0  0
   10.3842    2.4161  -15.7962 N   0  0  0  0  0  0  0  0  0  0  0  0
   10.2849    1.0919  -16.0985 C   0  0  0  0  0  0  0  0  0  0  0  0
    9.8390    0.2517  -15.3148 O   0  0  0  0  0  0  0  0  0  0  0  0
   10.7335    0.6202  -17.4526 C   0  0  0  0  0  0  0  0  0  0  0  0
    9.8075    0.0130  -18.3298 C   0  0  0  0  0  0  0  0  0  0  0  0
   10.2108   -0.4282  -19.6073 C   0  0  0  0  0  0  0  0  0  0  0  0
   11.5524   -0.2950  -20.0376 C   0  0  0  0  0  0  0  0  0  0  0  0
   12.2685   -0.6275  -21.2390 C   0  0  0  0  0  0  0  0  0  0  0  0
   13.5801   -0.2804  -21.0291 C   0  0  0  0  0  0  0  0  0  0  0  0
   13.7017    0.2613  -19.7614 N   0  0  0  0  0  0  0  0  0  0  0  0
   12.4795    0.2777  -19.1184 C   0  0  0  0  0  0  0  0  0  0  0  0
   12.0856    0.7270  -17.8468 C   0  0  0  0  0  0  0  0  0  0  0  0
   10.0280    5.1138  -17.9103 H   0  0  0  0  0  0  0  0  0  0  0  0
    8.8844    3.8081  -17.6186 H   0  0  0  0  0  0  0  0  0  0  0  0
    9.2664    4.9664  -16.3407 H   0  0  0  0  0  0  0  0  0  0  0  0
   11.2446    3.0886  -17.6375 H   0  0  0  0  0  0  0  0  0  0  0  0
   12.3373    5.0498  -16.7475 H   0  0  0  0  0  0  0  0  0  0  0  0
   12.8658    3.6141  -15.9280 H   0  0  0  0  0  0  0  0  0  0  0  0
   13.2631    7.6161  -12.8891 H   0  0  0  0  0  0  0  0  0  0  0  0
   12.8718    8.4847  -10.6706 H   0  0  0  0  0  0  0  0  0  0  0  0
    8.5581    7.8183   -8.9337 H   0  0  0  0  0  0  0  0  0  0  0  0
    8.2973    8.5711   -6.6302 H   0  0  0  0  0  0  0  0  0  0  0  0
   10.2769    9.3213   -5.3058 H   0  0  0  0  0  0  0  0  0  0  0  0
   12.5337    9.2838   -6.3420 H   0  0  0  0  0  0  0  0  0  0  0  0
   12.8378    8.4683   -8.6118 H   0  0  0  0  0  0  0  0  0  0  0  0
    8.9864    6.5748  -10.6071 H   0  0  0  0  0  0  0  0  0  0  0  0
    9.3718    5.7654  -12.8812 H   0  0  0  0  0  0  0  0  0  0  0  0
   12.0738    3.0228  -13.7770 H   0  0  0  0  0  0  0  0  0  0  0  0
   10.9770    3.9996  -12.8374 H   0  0  0  0  0  0  0  0  0  0  0  0
    9.7535    2.1239  -13.7651 H   0  0  0  0  0  0  0  0  0  0  0  0
    9.1545    3.5639  -14.5221 H   0  0  0  0  0  0  0  0  0  0  0  0
    8.7756   -0.1044  -18.0263 H   0  0  0  0  0  0  0  0  0  0  0  0
    9.4852   -0.8774  -20.2700 H   0  0  0  0  0  0  0  0  0  0  0  0
   11.8489   -1.0763  -22.1282 H   0  0  0  0  0  0  0  0  0  0  0  0
   14.4368   -0.3785  -21.6819 H   0  0  0  0  0  0  0  0  0  0  0  0
   14.5778    0.5928  -19.3818 H   0  0  0  0  0  0  0  0  0  0  0  0
   12.8180    1.1573  -17.1766 H   0  0  0  0  0  0  0  0  0  0  0  0
  2  1  1  0
  3  2  1  0
  4  3  1  0
  5  4  1  0
  6  5  2  0
  7  5  1  0
  8  7  1  0
  9  8  2  0
 10  9  1  0
 11 10  1  0
 12 11  2  0
 13 12  1  0
 14 13  2  0
 15 14  1  0
 16 11  1  0
 16 15  2  0
 17 10  2  0
 18  7  2  0
 18 17  1  0
 19  4  1  0
 20 19  1  0
 21  2  1  0
 21 20  1  0
 22 21  1  0
 23 22  2  0
 24 22  1  0
 25 24  2  0
 26 25  1  0
 27 26  2  0
 28 27  1  0
 29 28  2  0
 30 29  1  0
 31 27  1  0
 31 30  1  0
 32 24  1  0
 32 31  2  0
 33  1  1  0
 34  1  1  0
 35  1  1  0
  2 36  1  6
 37  3  1  0
 38  3  1  0
 39  8  1  0
 40  9  1  0
 41 12  1  0
 42 13  1  0
 43 14  1  0
 44 15  1  0
 45 16  1  0
 46 17  1  0
 47 18  1  0
 48 19  1  0
 49 19  1  0
 50 20  1  0
 51 20  1  0
 52 25  1  0
 53 26  1  0
 54 28  1  0
 55 29  1  0
 56 30  1  0
 57 32  1  0
M  END
>  <b_m_subgroup_collapsed>  (910) 
0

>  <r_i_docking_score>  (910) 
-7.1572201583325503

>  <s_m_subgroup_title>  (910) 
glide-dock_SP_D22_pv

>  <s_m_subgroupid>  (910) 
glide-dock_SP_D22_pv

>  <Molecule ChEMBL ID>  (910) 
CHEMBL1082211

>  <Standard Type>  (910) 
Ki

>  <Standard Value>  (910) 
10000.0

>  <label>  (910) 
0

$$$$
CHEMBL1713
     RDKit          3D

 41 43  0  0  1  0  0  0  0  0999 V2000
    8.6855    5.0170   -8.8252 C   0  0  0  0  0  0  0  0  0  0  0  0
    8.4860    6.1720   -9.7272 N   0  0  0  0  0  0  0  0  0  0  0  0
    9.3039    7.3348   -9.3161 C   0  0  0  0  0  0  0  0  0  0  0  0
    8.6393    5.8430  -11.1647 C   0  0  0  0  0  0  0  0  0  0  0  0
    7.4161    5.1079  -11.7546 C   0  0  0  0  0  0  0  0  0  0  0  0
    7.4042    5.0033  -13.3021 C   0  0  0  0  0  0  0  0  0  0  0  0
    8.1294    3.8373  -13.8506 N   0  0  0  0  0  0  0  0  0  0  0  0
    7.3785    2.6330  -13.9752 C   0  0  0  0  0  0  0  0  0  0  0  0
    6.0835    2.4907  -13.3968 C   0  0  0  0  0  0  0  0  0  0  0  0
    5.3594    1.2851  -13.4622 C   0  0  0  0  0  0  0  0  0  0  0  0
    5.8993    0.1772  -14.1304 C   0  0  0  0  0  0  0  0  0  0  0  0
    7.1681    0.2852  -14.7164 C   0  0  0  0  0  0  0  0  0  0  0  0
    7.9006    1.4885  -14.6414 C   0  0  0  0  0  0  0  0  0  0  0  0
    9.4877    1.4609  -15.3890 S   0  0  0  0  0  0  0  0  0  0  0  0
   10.1848    3.0210  -14.9925 C   0  0  0  0  0  0  0  0  0  0  0  0
   11.5100    3.2292  -15.4267 C   0  0  0  0  0  0  0  0  0  0  0  0
   12.1713    4.4402  -15.1766 C   0  0  0  0  0  0  0  0  0  0  0  0
   11.4947    5.4535  -14.4856 C   0  0  0  0  0  0  0  0  0  0  0  0
   12.2725    6.9626  -14.1747 Cl  0  0  0  0  0  0  0  0  0  0  0  0
   10.1734    5.2439  -14.0513 C   0  0  0  0  0  0  0  0  0  0  0  0
    9.4717    4.0291  -14.2873 C   0  0  0  0  0  0  0  0  0  0  0  0
    9.7301    4.7003   -8.8170 H   0  0  0  0  0  0  0  0  0  0  0  0
    8.3967    5.2793   -7.8066 H   0  0  0  0  0  0  0  0  0  0  0  0
    8.0857    4.1633   -9.1287 H   0  0  0  0  0  0  0  0  0  0  0  0
   10.3692    7.1314   -9.4378 H   0  0  0  0  0  0  0  0  0  0  0  0
    9.0494    8.2148   -9.9088 H   0  0  0  0  0  0  0  0  0  0  0  0
    9.1161    7.5847   -8.2706 H   0  0  0  0  0  0  0  0  0  0  0  0
    9.5558    5.2707  -11.3180 H   0  0  0  0  0  0  0  0  0  0  0  0
    8.7495    6.7830  -11.7064 H   0  0  0  0  0  0  0  0  0  0  0  0
    6.5276    5.6691  -11.4583 H   0  0  0  0  0  0  0  0  0  0  0  0
    7.3010    4.1213  -11.3060 H   0  0  0  0  0  0  0  0  0  0  0  0
    7.7184    5.9412  -13.7486 H   0  0  0  0  0  0  0  0  0  0  0  0
    6.3730    4.9732  -13.6493 H   0  0  0  0  0  0  0  0  0  0  0  0
    5.6052    3.2825  -12.8421 H   0  0  0  0  0  0  0  0  0  0  0  0
    4.3765    1.2207  -13.0241 H   0  0  0  0  0  0  0  0  0  0  0  0
    5.3449   -0.7481  -14.2013 H   0  0  0  0  0  0  0  0  0  0  0  0
    7.5855   -0.5725  -15.2256 H   0  0  0  0  0  0  0  0  0  0  0  0
   12.0293    2.4470  -15.9610 H   0  0  0  0  0  0  0  0  0  0  0  0
   13.1860    4.5891  -15.5139 H   0  0  0  0  0  0  0  0  0  0  0  0
    9.7268    6.0763  -13.5409 H   0  0  0  0  0  0  0  0  0  0  0  0
    7.5249    6.5036   -9.6305 H   0  0  0  0  0  0  0  0  0  0  0  0
  2  1  1  0
  3  2  1  0
  4  2  1  0
  5  4  1  0
  6  5  1  0
  7  6  1  0
  8  7  1  0
  9  8  2  0
 10  9  1  0
 11 10  2  0
 12 11  1  0
 13  8  1  0
 13 12  2  0
 14 13  1  0
 15 14  1  0
 16 15  1  0
 17 16  2  0
 18 17  1  0
 19 18  1  0
 20 18  2  0
 21  7  1  0
 21 15  2  0
 21 20  1  0
 22  1  1  0
 23  1  1  0
 24  1  1  0
 25  3  1  0
 26  3  1  0
 27  3  1  0
 28  4  1  0
 29  4  1  0
 30  5  1  0
 31  5  1  0
 32  6  1  0
 33  6  1  0
 34  9  1  0
 35 10  1  0
 36 11  1  0
 37 12  1  0
 38 16  1  0
 39 17  1  0
 40 20  1  0
 41  2  1  0
M  CHG  1   2   1
M  END
>  <b_m_subgroup_collapsed>  (911) 
0

>  <r_i_docking_score>  (911) 
-7.1552955792676602

>  <s_m_subgroup_title>  (911) 
glide-dock_SP_D22_pv

>  <s_m_subgroupid>  (911) 
glide-dock_SP_D22_pv

>  <Molecule ChEMBL ID>  (911) 
CHEMBL1713

>  <Standard Type>  (911) 
Ki

>  <Standard Value>  (911) 
3.0

>  <label>  (911) 
1

$$$$
CHEMBL5817624
     RDKit          3D

 55 58  0  0  1  0  0  0  0  0999 V2000
   12.3925    7.1013   -2.6965 C   0  0  0  0  0  0  0  0  0  0  0  0
   11.8167    7.9532   -3.8055 C   0  0  0  0  0  0  0  0  0  0  0  0
   11.6891    9.3493   -3.6617 C   0  0  0  0  0  0  0  0  0  0  0  0
   11.1567   10.0810   -4.7370 C   0  0  0  0  0  0  0  0  0  0  0  0
   10.7754    9.3985   -5.9025 C   0  0  0  0  0  0  0  0  0  0  0  0
   10.9228    7.9982   -5.9482 C   0  0  0  0  0  0  0  0  0  0  0  0
   10.4833    7.1831   -7.1532 C   0  0  1  0  0  0  0  0  0  0  0  0
    9.0437    6.6806   -7.0066 C   0  0  0  0  0  0  0  0  0  0  0  0
    8.7073    5.7228   -8.1576 C   0  0  0  0  0  0  0  0  0  0  0  0
    8.8727    6.3659   -9.4905 N   0  0  2  0  0  0  0  0  0  0  0  0
    8.5605    5.4104  -10.5824 C   0  0  0  0  0  0  0  0  0  0  0  0
    8.2346    6.1033  -11.9214 C   0  0  0  0  0  0  0  0  0  0  0  0
    8.2363    5.1421  -13.0191 N   0  0  0  0  0  0  0  0  0  0  0  0
    9.3625    4.6331  -13.5466 C   0  0  0  0  0  0  0  0  0  0  0  0
   10.4787    4.9663  -13.1492 O   0  0  0  0  0  0  0  0  0  0  0  0
    9.2051    3.5691  -14.6428 C   0  0  2  0  0  0  0  0  0  0  0  0
   10.0401    2.3041  -14.3932 C   0  0  0  0  0  0  0  0  0  0  0  0
   10.8570    2.1943  -15.6852 C   0  0  2  0  0  0  0  0  0  0  0  0
   11.9543    3.2661  -15.7714 C   0  0  0  0  0  0  0  0  0  0  0  0
   11.1477    4.5103  -16.1287 C   0  0  0  0  0  0  0  0  0  0  0  0
    9.7054    3.9833  -16.0489 C   0  0  1  0  0  0  0  0  0  0  0  0
    9.9142    2.6990  -16.6136 O   0  0  0  0  0  0  0  0  0  0  0  0
   10.2132    6.9841   -9.6601 C   0  0  0  0  0  0  0  0  0  0  0  0
   10.5948    7.9189   -8.5015 C   0  0  0  0  0  0  0  0  0  0  0  0
   11.4261    7.2891   -4.9145 N   0  0  0  0  0  0  0  0  0  0  0  0
   12.6727    7.7113   -1.8359 H   0  0  0  0  0  0  0  0  0  0  0  0
   11.6626    6.3592   -2.3706 H   0  0  0  0  0  0  0  0  0  0  0  0
   13.2839    6.5783   -3.0459 H   0  0  0  0  0  0  0  0  0  0  0  0
   11.9977    9.8513   -2.7542 H   0  0  0  0  0  0  0  0  0  0  0  0
   11.0362   11.1525   -4.6713 H   0  0  0  0  0  0  0  0  0  0  0  0
   10.3633    9.9543   -6.7306 H   0  0  0  0  0  0  0  0  0  0  0  0
   11.1463    6.3161   -7.1911 H   0  0  0  0  0  0  0  0  0  0  0  0
    8.9194    6.1730   -6.0506 H   0  0  0  0  0  0  0  0  0  0  0  0
    8.3464    7.5216   -6.9937 H   0  0  0  0  0  0  0  0  0  0  0  0
    9.3491    4.8423   -8.0997 H   0  0  0  0  0  0  0  0  0  0  0  0
    7.6852    5.3741   -8.0383 H   0  0  0  0  0  0  0  0  0  0  0  0
    9.3901    4.7079  -10.6793 H   0  0  0  0  0  0  0  0  0  0  0  0
    7.6890    4.8112  -10.3100 H   0  0  0  0  0  0  0  0  0  0  0  0
    7.2517    6.5700  -11.8523 H   0  0  0  0  0  0  0  0  0  0  0  0
    8.9298    6.9085  -12.1617 H   0  0  0  0  0  0  0  0  0  0  0  0
    7.3443    4.8211  -13.3633 H   0  0  0  0  0  0  0  0  0  0  0  0
    8.1567    3.2794  -14.7118 H   0  0  0  0  0  0  0  0  0  0  0  0
   10.6833    2.3481  -13.5144 H   0  0  0  0  0  0  0  0  0  0  0  0
    9.3892    1.4387  -14.2763 H   0  0  0  0  0  0  0  0  0  0  0  0
   11.2087    1.1834  -15.8980 H   0  0  0  0  0  0  0  0  0  0  0  0
   12.4871    3.3774  -14.8285 H   0  0  0  0  0  0  0  0  0  0  0  0
   12.6791    3.0363  -16.5516 H   0  0  0  0  0  0  0  0  0  0  0  0
   11.3706    4.8148  -17.1508 H   0  0  0  0  0  0  0  0  0  0  0  0
   11.3503    5.3664  -15.4848 H   0  0  0  0  0  0  0  0  0  0  0  0
    8.9964    4.5934  -16.6071 H   0  0  0  0  0  0  0  0  0  0  0  0
   10.9322    6.1765   -9.7333 H   0  0  0  0  0  0  0  0  0  0  0  0
   10.2729    7.5406  -10.5939 H   0  0  0  0  0  0  0  0  0  0  0  0
    9.9362    8.7878   -8.5306 H   0  0  0  0  0  0  0  0  0  0  0  0
   11.6113    8.2887   -8.6469 H   0  0  0  0  0  0  0  0  0  0  0  0
    8.1659    7.0950   -9.5420 H   0  0  0  0  0  0  0  0  0  0  0  0
  2  1  1  0
  3  2  1  0
  4  3  2  0
  5  4  1  0
  6  5  2  0
  7  6  1  0
  8  7  1  0
  9  8  1  0
 10  9  1  0
 11 10  1  0
 12 11  1  0
 13 12  1  0
 14 13  1  0
 15 14  2  0
 16 14  1  0
 17 16  1  0
 18 17  1  0
 19 18  1  0
 20 19  1  0
 21 16  1  0
 21 20  1  0
 22 18  1  0
 22 21  1  0
 23 10  1  0
 24  7  1  0
 24 23  1  0
 25  2  2  0
 25  6  1  0
 26  1  1  0
 27  1  1  0
 28  1  1  0
 29  3  1  0
 30  4  1  0
 31  5  1  0
  7 32  1  6
 33  8  1  0
 34  8  1  0
 35  9  1  0
 36  9  1  0
 37 11  1  0
 38 11  1  0
 39 12  1  0
 40 12  1  0
 41 13  1  0
 16 42  1  6
 43 17  1  0
 44 17  1  0
 18 45  1  6
 46 19  1  0
 47 19  1  0
 48 20  1  0
 49 20  1  0
 21 50  1  6
 51 23  1  0
 52 23  1  0
 53 24  1  0
 54 24  1  0
 10 55  1  1
M  CHG  1  10   1
M  END
>  <b_m_subgroup_collapsed>  (912) 
0

>  <r_i_docking_score>  (912) 
-7.1524230881498099

>  <s_m_subgroup_title>  (912) 
glide-dock_SP_D22_pv

>  <s_m_subgroupid>  (912) 
glide-dock_SP_D22_pv

>  <Molecule ChEMBL ID>  (912) 
CHEMBL5817624

>  <Standard Type>  (912) 
Ki

>  <Standard Value>  (912) 
7.1

>  <label>  (912) 
1

$$$$
CHEMBL3084520
     RDKit          3D

 53 57  0  0  1  0  0  0  0  0999 V2000
    5.7626    4.4657  -12.5130 C   0  0  0  0  0  0  0  0  0  0  0  0
    6.7363    3.8306  -13.3276 O   0  0  0  0  0  0  0  0  0  0  0  0
    8.0173    4.3374  -13.3245 C   0  0  0  0  0  0  0  0  0  0  0  0
    8.9740    3.6367  -14.0897 C   0  0  0  0  0  0  0  0  0  0  0  0
   10.3018    4.0926  -14.1698 C   0  0  0  0  0  0  0  0  0  0  0  0
   10.6542    5.2512  -13.4637 C   0  0  0  0  0  0  0  0  0  0  0  0
   11.8828    5.8726  -13.4472 O   0  0  0  0  0  0  0  0  0  0  0  0
   11.7524    6.9723  -12.6466 C   0  0  0  0  0  0  0  0  0  0  0  0
   10.4957    7.0720  -12.0915 C   0  0  0  0  0  0  0  0  0  0  0  0
    9.9983    8.1628  -11.1783 C   0  0  0  0  0  0  0  0  0  0  0  0
   10.2772    8.0455   -9.7128 N   0  0  2  0  0  0  0  0  0  0  0  0
   10.9644    6.8357   -9.2178 C   0  0  2  0  0  0  0  0  0  0  0  0
    9.8894    5.7470   -9.1756 C   0  0  0  0  0  0  0  0  0  0  0  0
    8.6047    6.5692   -9.0261 C   0  0  0  0  0  0  0  0  0  0  0  0
    9.0582    8.0536   -8.8960 C   0  0  1  0  0  0  0  0  0  0  0  0
    9.4380    8.5604   -7.4701 C   0  0  0  0  0  0  0  0  0  0  0  0
   10.4292    7.6013   -6.7707 C   0  0  2  0  0  0  0  0  0  0  0  0
    9.5821    6.5663   -6.3723 O   0  0  0  0  0  0  0  0  0  0  0  0
   11.1121    8.0548   -5.4911 C   0  0  0  0  0  0  0  0  0  0  0  0
   11.1345    9.3914   -5.0372 C   0  0  0  0  0  0  0  0  0  0  0  0
   11.6860    9.6768   -3.7722 C   0  0  0  0  0  0  0  0  0  0  0  0
   12.2291    8.6450   -2.9858 C   0  0  0  0  0  0  0  0  0  0  0  0
   12.8859    8.9723   -1.4469 Cl  0  0  0  0  0  0  0  0  0  0  0  0
   12.2394    7.3250   -3.4418 C   0  0  0  0  0  0  0  0  0  0  0  0
   11.6855    7.0366   -4.6901 C   0  0  0  0  0  0  0  0  0  0  0  0
   11.5033    7.1159   -7.7916 C   0  0  0  0  0  0  0  0  0  0  0  0
    9.7443    5.9770  -12.6537 C   0  0  0  0  0  0  0  0  0  0  0  0
    8.4097    5.5045  -12.6148 C   0  0  0  0  0  0  0  0  0  0  0  0
    4.8170    3.9352  -12.6149 H   0  0  0  0  0  0  0  0  0  0  0  0
    6.0466    4.4409  -11.4602 H   0  0  0  0  0  0  0  0  0  0  0  0
    5.5969    5.4988  -12.8199 H   0  0  0  0  0  0  0  0  0  0  0  0
    8.6797    2.7467  -14.6268 H   0  0  0  0  0  0  0  0  0  0  0  0
   11.0332    3.5696  -14.7680 H   0  0  0  0  0  0  0  0  0  0  0  0
   12.6459    7.5750  -12.5594 H   0  0  0  0  0  0  0  0  0  0  0  0
    8.9383    8.3375  -11.3704 H   0  0  0  0  0  0  0  0  0  0  0  0
   10.4841    9.0832  -11.4468 H   0  0  0  0  0  0  0  0  0  0  0  0
   11.7928    6.5724   -9.8651 H   0  0  0  0  0  0  0  0  0  0  0  0
   10.0403    5.0355   -8.3636 H   0  0  0  0  0  0  0  0  0  0  0  0
    9.8704    5.1579  -10.0910 H   0  0  0  0  0  0  0  0  0  0  0  0
    7.9574    6.1915   -8.2362 H   0  0  0  0  0  0  0  0  0  0  0  0
    8.0851    6.4453   -9.9637 H   0  0  0  0  0  0  0  0  0  0  0  0
    8.3418    8.7644   -9.3013 H   0  0  0  0  0  0  0  0  0  0  0  0
    8.5395    8.7137   -6.8678 H   0  0  0  0  0  0  0  0  0  0  0  0
    9.8930    9.5429   -7.5810 H   0  0  0  0  0  0  0  0  0  0  0  0
    8.9313    6.9074   -5.7750 H   0  0  0  0  0  0  0  0  0  0  0  0
   10.7005   10.1926   -5.6152 H   0  0  0  0  0  0  0  0  0  0  0  0
   11.6794   10.6800   -3.3814 H   0  0  0  0  0  0  0  0  0  0  0  0
   12.6553    6.5342   -2.8346 H   0  0  0  0  0  0  0  0  0  0  0  0
   11.6768    6.0080   -5.0216 H   0  0  0  0  0  0  0  0  0  0  0  0
   12.2796    7.8788   -7.8713 H   0  0  0  0  0  0  0  0  0  0  0  0
   12.0029    6.2254   -7.4165 H   0  0  0  0  0  0  0  0  0  0  0  0
    7.6892    6.0672  -12.0420 H   0  0  0  0  0  0  0  0  0  0  0  0
   10.8323    8.8519   -9.4668 H   0  0  0  0  0  0  0  0  0  0  0  0
  2  1  1  0
  3  2  1  0
  4  3  2  0
  5  4  1  0
  6  5  2  0
  7  6  1  0
  8  7  1  0
  9  8  2  0
 10  9  1  0
 11 10  1  0
 12 11  1  0
 13 12  1  0
 14 13  1  0
 15 11  1  0
 15 14  1  0
 16 15  1  0
 17 16  1  0
 17 18  1  1
 19 17  1  0
 20 19  1  0
 21 20  2  0
 22 21  1  0
 23 22  1  0
 24 22  2  0
 25 19  2  0
 25 24  1  0
 26 12  1  0
 26 17  1  0
 27  6  1  0
 27  9  1  0
 28  3  1  0
 28 27  2  0
 29  1  1  0
 30  1  1  0
 31  1  1  0
 32  4  1  0
 33  5  1  0
 34  8  1  0
 35 10  1  0
 36 10  1  0
 12 37  1  6
 38 13  1  0
 39 13  1  0
 40 14  1  0
 41 14  1  0
 15 42  1  6
 43 16  1  0
 44 16  1  0
 45 18  1  0
 46 20  1  0
 47 21  1  0
 48 24  1  0
 49 25  1  0
 50 26  1  0
 51 26  1  0
 52 28  1  0
 11 53  1  1
M  CHG  1  11   1
M  END
>  <b_m_subgroup_collapsed>  (913) 
0

>  <r_i_docking_score>  (913) 
-7.1509635536920397

>  <s_m_subgroup_title>  (913) 
glide-dock_SP_D22_pv

>  <s_m_subgroupid>  (913) 
glide-dock_SP_D22_pv

>  <Molecule ChEMBL ID>  (913) 
CHEMBL3084520

>  <Standard Type>  (913) 
Ki

>  <Standard Value>  (913) 
1.5

>  <label>  (913) 
1

$$$$
CHEMBL4463034
     RDKit          3D

 53 57  0  0  1  0  0  0  0  0999 V2000
    3.0196   -0.8525  -13.9615 C   0  0  0  0  0  0  0  0  0  0  0  0
    4.1363   -0.1442  -13.4488 O   0  0  0  0  0  0  0  0  0  0  0  0
    5.1757    0.1283  -14.3095 C   0  0  0  0  0  0  0  0  0  0  0  0
    5.3870   -0.5535  -15.5330 C   0  0  0  0  0  0  0  0  0  0  0  0
    6.4875   -0.2283  -16.3466 C   0  0  0  0  0  0  0  0  0  0  0  0
    7.3719    0.7824  -15.9430 C   0  0  0  0  0  0  0  0  0  0  0  0
    8.5317    1.2849  -16.5114 N   0  0  0  0  0  0  0  0  0  0  0  0
    9.0406    2.3318  -15.7593 C   0  0  0  0  0  0  0  0  0  0  0  0
    8.1958    2.5220  -14.7000 C   0  0  0  0  0  0  0  0  0  0  0  0
    8.3124    3.6130  -13.7301 C   0  0  0  0  0  0  0  0  0  0  0  0
    7.2458    4.3839  -13.4470 C   0  0  0  0  0  0  0  0  0  0  0  0
    7.2710    5.5509  -12.4727 C   0  0  0  0  0  0  0  0  0  0  0  0
    8.6617    5.9128  -12.0858 N   0  0  1  0  0  0  0  0  0  0  0  0
    8.6699    6.9721  -11.0485 C   0  0  0  0  0  0  0  0  0  0  0  0
   10.0494    7.4183  -10.5612 C   0  0  0  0  0  0  0  0  0  0  0  0
   11.0590    7.6326  -11.4381 C   0  0  0  0  0  0  0  0  0  0  0  0
   12.3620    8.1713  -11.0469 C   0  0  0  0  0  0  0  0  0  0  0  0
   13.2841    8.3869  -11.8377 O   0  0  0  0  0  0  0  0  0  0  0  0
   12.4864    8.4607   -9.7430 N   0  0  0  0  0  0  0  0  0  0  0  0
   11.5008    8.2792   -8.7566 C   0  0  0  0  0  0  0  0  0  0  0  0
   11.7925    8.6297   -7.4265 C   0  0  0  0  0  0  0  0  0  0  0  0
   10.8264    8.4415   -6.4245 C   0  0  0  0  0  0  0  0  0  0  0  0
    9.5740    7.9034   -6.7671 C   0  0  0  0  0  0  0  0  0  0  0  0
    9.2861    7.5600   -8.1011 C   0  0  0  0  0  0  0  0  0  0  0  0
   10.2469    7.7474   -9.1234 C   0  0  0  0  0  0  0  0  0  0  0  0
    9.4427    4.7022  -11.7427 C   0  0  0  0  0  0  0  0  0  0  0  0
    9.6182    3.8208  -12.9876 C   0  0  0  0  0  0  0  0  0  0  0  0
    7.1659    1.5237  -14.7432 C   0  0  0  0  0  0  0  0  0  0  0  0
    6.0690    1.1542  -13.9288 C   0  0  0  0  0  0  0  0  0  0  0  0
    2.3147   -1.0283  -13.1507 H   0  0  0  0  0  0  0  0  0  0  0  0
    2.5116   -0.2794  -14.7365 H   0  0  0  0  0  0  0  0  0  0  0  0
    3.2868   -1.8276  -14.3593 H   0  0  0  0  0  0  0  0  0  0  0  0
    4.7347   -1.3450  -15.8674 H   0  0  0  0  0  0  0  0  0  0  0  0
    6.6580   -0.7710  -17.2633 H   0  0  0  0  0  0  0  0  0  0  0  0
    8.9635    0.9547  -17.3612 H   0  0  0  0  0  0  0  0  0  0  0  0
    9.9297    2.8687  -16.0585 H   0  0  0  0  0  0  0  0  0  0  0  0
    6.3007    4.2041  -13.9416 H   0  0  0  0  0  0  0  0  0  0  0  0
    6.7893    6.4152  -12.9335 H   0  0  0  0  0  0  0  0  0  0  0  0
    6.6811    5.2853  -11.5932 H   0  0  0  0  0  0  0  0  0  0  0  0
    8.1478    7.8463  -11.4457 H   0  0  0  0  0  0  0  0  0  0  0  0
    8.0886    6.5662  -10.2269 H   0  0  0  0  0  0  0  0  0  0  0  0
   10.9038    7.4423  -12.4901 H   0  0  0  0  0  0  0  0  0  0  0  0
   13.3466    8.9194   -9.4690 H   0  0  0  0  0  0  0  0  0  0  0  0
   12.7610    9.0288   -7.1657 H   0  0  0  0  0  0  0  0  0  0  0  0
   11.0441    8.7016   -5.3996 H   0  0  0  0  0  0  0  0  0  0  0  0
    8.8243    7.7510   -6.0045 H   0  0  0  0  0  0  0  0  0  0  0  0
    8.3070    7.1597   -8.2952 H   0  0  0  0  0  0  0  0  0  0  0  0
    8.9290    4.1705  -10.9415 H   0  0  0  0  0  0  0  0  0  0  0  0
   10.4244    4.9518  -11.3632 H   0  0  0  0  0  0  0  0  0  0  0  0
   10.0075    2.8537  -12.6731 H   0  0  0  0  0  0  0  0  0  0  0  0
   10.3519    4.2466  -13.6738 H   0  0  0  0  0  0  0  0  0  0  0  0
    5.8963    1.6844  -13.0039 H   0  0  0  0  0  0  0  0  0  0  0  0
    9.0989    6.3107  -12.9038 H   0  0  0  0  0  0  0  0  0  0  0  0
  2  1  1  0
  3  2  1  0
  4  3  2  0
  5  4  1  0
  6  5  2  0
  7  6  1  0
  8  7  1  0
  9  8  2  0
 10  9  1  0
 11 10  2  0
 12 11  1  0
 13 12  1  0
 14 13  1  0
 15 14  1  0
 16 15  2  0
 17 16  1  0
 18 17  2  0
 19 17  1  0
 20 19  1  0
 21 20  2  0
 22 21  1  0
 23 22  2  0
 24 23  1  0
 25 15  1  0
 25 20  1  0
 25 24  2  0
 26 13  1  0
 27 10  1  0
 27 26  1  0
 28  6  1  0
 28  9  1  0
 29  3  1  0
 29 28  2  0
 30  1  1  0
 31  1  1  0
 32  1  1  0
 33  4  1  0
 34  5  1  0
 35  7  1  0
 36  8  1  0
 37 11  1  0
 38 12  1  0
 39 12  1  0
 40 14  1  0
 41 14  1  0
 42 16  1  0
 43 19  1  0
 44 21  1  0
 45 22  1  0
 46 23  1  0
 47 24  1  0
 48 26  1  0
 49 26  1  0
 50 27  1  0
 51 27  1  0
 52 29  1  0
 13 53  1  6
M  CHG  1  13   1
M  END
>  <b_m_subgroup_collapsed>  (914) 
0

>  <r_i_docking_score>  (914) 
-7.1487091578320996

>  <s_m_subgroup_title>  (914) 
glide-dock_SP_D22_pv

>  <s_m_subgroupid>  (914) 
glide-dock_SP_D22_pv

>  <Molecule ChEMBL ID>  (914) 
CHEMBL4463034

>  <Standard Type>  (914) 
Ki

>  <Standard Value>  (914) 
58.0

>  <label>  (914) 
1

$$$$
CHEMBL5421925
     RDKit          3D

 75 79  0  0  1  0  0  0  0  0999 V2000
    4.0760    0.6994  -20.2489 C   0  0  0  0  0  0  0  0  0  0  0  0
    4.7233   -0.6135  -19.8134 C   0  0  0  0  0  0  0  0  0  0  0  0
    4.7379   -0.7644  -18.3017 C   0  0  0  0  0  0  0  0  0  0  0  0
    3.6895   -1.4781  -17.6871 C   0  0  0  0  0  0  0  0  0  0  0  0
    3.6847   -1.6463  -16.2954 C   0  0  0  0  0  0  0  0  0  0  0  0
    4.7089   -1.1097  -15.5070 C   0  0  0  0  0  0  0  0  0  0  0  0
    5.7588   -0.3809  -16.0985 C   0  0  0  0  0  0  0  0  0  0  0  0
    6.7327    0.1585  -15.2401 N   0  0  0  0  0  0  0  0  0  0  0  0
    6.3155    1.0008  -14.1414 C   0  0  0  0  0  0  0  0  0  0  0  0
    6.9209    2.3861  -14.3487 C   0  0  0  0  0  0  0  0  0  0  0  0
    8.4081    2.3355  -14.4929 N   0  0  0  0  0  0  0  0  0  0  0  0
    9.0295    3.6632  -14.7551 C   0  0  0  0  0  0  0  0  0  0  0  0
    8.4013    4.8641  -14.0163 C   0  0  0  0  0  0  0  0  0  0  0  0
    8.5754    4.8990  -12.4826 C   0  0  1  0  0  0  0  0  0  0  0  0
   10.0429    5.0708  -12.0493 C   0  0  0  0  0  0  0  0  0  0  0  0
   10.6026    6.4633  -12.4090 C   0  0  0  0  0  0  0  0  0  0  0  0
    9.7210    7.5952  -11.8473 C   0  0  2  0  0  0  0  0  0  0  0  0
    9.8435    7.6811  -10.3927 N   0  0  0  0  0  0  0  0  0  0  0  0
   10.9190    8.1742   -9.7627 C   0  0  0  0  0  0  0  0  0  0  0  0
   11.9172    8.5727  -10.3597 O   0  0  0  0  0  0  0  0  0  0  0  0
   10.7743    8.2242   -8.3231 C   0  0  0  0  0  0  0  0  0  0  0  0
   10.5335    7.1653   -7.5286 C   0  0  0  0  0  0  0  0  0  0  0  0
   10.6068    7.6265   -6.0964 C   0  0  1  0  0  0  0  0  0  0  0  0
   11.2862    6.8516   -4.9824 C   0  0  0  0  0  0  0  0  0  0  0  0
   11.7805    7.5494   -3.9290 C   0  0  0  0  0  0  0  0  0  0  0  0
   11.6869    9.0198   -3.8984 C   0  0  0  0  0  0  0  0  0  0  0  0
   11.4838    9.7055   -5.0461 C   0  0  0  0  0  0  0  0  0  0  0  0
   11.4435    8.8815   -6.3085 C   0  0  2  0  0  0  0  0  0  0  0  0
   11.0938    9.3720   -7.6182 N   0  0  0  0  0  0  0  0  0  0  0  0
    8.2477    7.4074  -12.2479 C   0  0  0  0  0  0  0  0  0  0  0  0
    7.7175    6.0169  -11.8505 C   0  0  0  0  0  0  0  0  0  0  0  0
    8.8799    1.3423  -15.5088 C   0  0  0  0  0  0  0  0  0  0  0  0
    8.1596   -0.0219  -15.4508 C   0  0  0  0  0  0  0  0  0  0  0  0
    5.7656   -0.1921  -17.5097 C   0  0  0  0  0  0  0  0  0  0  0  0
    6.9662    0.7941  -18.2804 Cl  0  0  0  0  0  0  0  0  0  0  0  0
    4.0902    0.7752  -21.3337 H   0  0  0  0  0  0  0  0  0  0  0  0
    3.0369    0.7450  -19.9200 H   0  0  0  0  0  0  0  0  0  0  0  0
    4.5964    1.5673  -19.8437 H   0  0  0  0  0  0  0  0  0  0  0  0
    5.7355   -0.6878  -20.2089 H   0  0  0  0  0  0  0  0  0  0  0  0
    4.1734   -1.4466  -20.2537 H   0  0  0  0  0  0  0  0  0  0  0  0
    2.8905   -1.9074  -18.2772 H   0  0  0  0  0  0  0  0  0  0  0  0
    2.8906   -2.2107  -15.8323 H   0  0  0  0  0  0  0  0  0  0  0  0
    4.6868   -1.2716  -14.4396 H   0  0  0  0  0  0  0  0  0  0  0  0
    6.6542    0.5649  -13.2009 H   0  0  0  0  0  0  0  0  0  0  0  0
    5.2295    1.0785  -14.0841 H   0  0  0  0  0  0  0  0  0  0  0  0
    6.6303    2.9998  -13.4957 H   0  0  0  0  0  0  0  0  0  0  0  0
    6.4860    2.8434  -15.2383 H   0  0  0  0  0  0  0  0  0  0  0  0
    8.9458    3.8806  -15.8208 H   0  0  0  0  0  0  0  0  0  0  0  0
   10.1000    3.6026  -14.5569 H   0  0  0  0  0  0  0  0  0  0  0  0
    7.3399    4.9466  -14.2467 H   0  0  0  0  0  0  0  0  0  0  0  0
    8.8314    5.7613  -14.4551 H   0  0  0  0  0  0  0  0  0  0  0  0
    8.2214    3.9520  -12.0785 H   0  0  0  0  0  0  0  0  0  0  0  0
   10.0860    4.9327  -10.9682 H   0  0  0  0  0  0  0  0  0  0  0  0
   10.6671    4.2875  -12.4792 H   0  0  0  0  0  0  0  0  0  0  0  0
   10.6819    6.5606  -13.4882 H   0  0  0  0  0  0  0  0  0  0  0  0
   11.6281    6.5725  -12.0566 H   0  0  0  0  0  0  0  0  0  0  0  0
   10.0573    8.5492  -12.2583 H   0  0  0  0  0  0  0  0  0  0  0  0
    9.0325    7.4269   -9.8457 H   0  0  0  0  0  0  0  0  0  0  0  0
   10.3252    6.1494   -7.8321 H   0  0  0  0  0  0  0  0  0  0  0  0
    9.5856    7.8615   -5.7940 H   0  0  0  0  0  0  0  0  0  0  0  0
   11.3238    5.7736   -5.0308 H   0  0  0  0  0  0  0  0  0  0  0  0
   12.2570    7.0245   -3.1146 H   0  0  0  0  0  0  0  0  0  0  0  0
   11.7326    9.5464   -2.9561 H   0  0  0  0  0  0  0  0  0  0  0  0
   11.3765   10.7775   -5.0931 H   0  0  0  0  0  0  0  0  0  0  0  0
   12.4835    8.5958   -6.4579 H   0  0  0  0  0  0  0  0  0  0  0  0
   11.7371    9.9984   -8.0789 H   0  0  0  0  0  0  0  0  0  0  0  0
    7.6715    8.2318  -11.8469 H   0  0  0  0  0  0  0  0  0  0  0  0
    8.0856    7.5213  -13.3150 H   0  0  0  0  0  0  0  0  0  0  0  0
    7.7211    5.9101  -10.7659 H   0  0  0  0  0  0  0  0  0  0  0  0
    6.6744    5.9184  -12.1520 H   0  0  0  0  0  0  0  0  0  0  0  0
    8.7304    1.7655  -16.4993 H   0  0  0  0  0  0  0  0  0  0  0  0
    9.9555    1.1932  -15.4035 H   0  0  0  0  0  0  0  0  0  0  0  0
    8.5478   -0.6154  -14.6274 H   0  0  0  0  0  0  0  0  0  0  0  0
    8.3529   -0.6234  -16.3417 H   0  0  0  0  0  0  0  0  0  0  0  0
    8.7570    2.0123  -13.6003 H   0  0  0  0  0  0  0  0  0  0  0  0
  2  1  1  0
  3  2  1  0
  4  3  2  0
  5  4  1  0
  6  5  2  0
  7  6  1  0
  8  7  1  0
  9  8  1  0
 10  9  1  0
 11 10  1  0
 12 11  1  0
 13 12  1  0
 14 13  1  0
 15 14  1  0
 16 15  1  0
 17 16  1  0
 18 17  1  0
 19 18  1  0
 20 19  2  0
 21 19  1  0
 22 21  2  0
 23 22  1  0
 24 23  1  0
 25 24  2  0
 26 25  1  0
 27 26  2  0
 28 23  1  0
 28 27  1  0
 29 21  1  0
 29 28  1  0
 30 17  1  0
 31 14  1  0
 31 30  1  0
 32 11  1  0
 33  8  1  0
 33 32  1  0
 34  3  1  0
 34  7  2  0
 35 34  1  0
 36  1  1  0
 37  1  1  0
 38  1  1  0
 39  2  1  0
 40  2  1  0
 41  4  1  0
 42  5  1  0
 43  6  1  0
 44  9  1  0
 45  9  1  0
 46 10  1  0
 47 10  1  0
 48 12  1  0
 49 12  1  0
 50 13  1  0
 51 13  1  0
 14 52  1  1
 53 15  1  0
 54 15  1  0
 55 16  1  0
 56 16  1  0
 17 57  1  6
 58 18  1  0
 59 22  1  0
 23 60  1  1
 61 24  1  0
 62 25  1  0
 63 26  1  0
 64 27  1  0
 28 65  1  6
 66 29  1  0
 67 30  1  0
 68 30  1  0
 69 31  1  0
 70 31  1  0
 71 32  1  0
 72 32  1  0
 73 33  1  0
 74 33  1  0
 75 11  1  0
M  CHG  1  11   1
M  END
>  <b_m_subgroup_collapsed>  (915) 
0

>  <r_i_docking_score>  (915) 
-7.1426749856044101

>  <s_m_subgroup_title>  (915) 
glide-dock_SP_D22_pv

>  <s_m_subgroupid>  (915) 
glide-dock_SP_D22_pv

>  <Molecule ChEMBL ID>  (915) 
CHEMBL5421925

>  <Standard Type>  (915) 
Ki

>  <Standard Value>  (915) 
5.76

>  <label>  (915) 
1

$$$$
CHEMBL3646151
     RDKit          3D

 42 45  0  0  1  0  0  0  0  0999 V2000
    9.1137    7.0675   -6.9244 C   0  0  0  0  0  0  0  0  0  0  0  0
    8.8860    6.8495   -8.3688 N   0  0  0  0  0  0  0  0  0  0  0  0
    8.9975    5.4260   -8.7536 C   0  0  0  0  0  0  0  0  0  0  0  0
    8.6326    5.2363  -10.2300 C   0  0  0  0  0  0  0  0  0  0  0  0
    9.4113    6.1066  -11.1145 N   0  0  0  0  0  0  0  0  0  0  0  0
    9.7724    5.7304  -12.4128 C   0  0  0  0  0  0  0  0  0  0  0  0
   10.8858    6.1716  -12.9225 N   0  0  0  0  0  0  0  0  0  0  0  0
   11.4378    5.8417  -14.1720 C   0  0  0  0  0  0  0  0  0  0  0  0
   12.0872    6.8891  -14.8655 C   0  0  0  0  0  0  0  0  0  0  0  0
   12.7096    6.6682  -16.1084 C   0  0  0  0  0  0  0  0  0  0  0  0
   12.7202    5.3786  -16.6673 C   0  0  0  0  0  0  0  0  0  0  0  0
   12.1238    4.3129  -15.9700 C   0  0  0  0  0  0  0  0  0  0  0  0
   11.5029    4.5369  -14.7249 C   0  0  0  0  0  0  0  0  0  0  0  0
   10.8847    3.1499  -13.8520 S   0  0  0  0  0  0  0  0  0  0  0  0
    9.2021    3.5989  -13.7506 C   0  0  0  0  0  0  0  0  0  0  0  0
    8.2519    2.7062  -14.2830 C   0  0  0  0  0  0  0  0  0  0  0  0
    6.8800    2.9833  -14.1671 C   0  0  0  0  0  0  0  0  0  0  0  0
    6.4637    4.1723  -13.5432 C   0  0  0  0  0  0  0  0  0  0  0  0
    5.1449    4.4525  -13.4433 F   0  0  0  0  0  0  0  0  0  0  0  0
    7.4166    5.0796  -13.0429 C   0  0  0  0  0  0  0  0  0  0  0  0
    8.8033    4.7967  -13.1092 C   0  0  0  0  0  0  0  0  0  0  0  0
    9.4442    7.5167  -10.7204 C   0  0  0  0  0  0  0  0  0  0  0  0
    9.7373    7.7138   -9.2208 C   0  0  0  0  0  0  0  0  0  0  0  0
   10.1416    6.8284   -6.6464 H   0  0  0  0  0  0  0  0  0  0  0  0
    8.9126    8.1049   -6.6527 H   0  0  0  0  0  0  0  0  0  0  0  0
    8.4500    6.4373   -6.3338 H   0  0  0  0  0  0  0  0  0  0  0  0
    8.3301    4.8223   -8.1376 H   0  0  0  0  0  0  0  0  0  0  0  0
   10.0131    5.0721   -8.5698 H   0  0  0  0  0  0  0  0  0  0  0  0
    7.5750    5.4584  -10.3651 H   0  0  0  0  0  0  0  0  0  0  0  0
    8.7753    4.1898  -10.5011 H   0  0  0  0  0  0  0  0  0  0  0  0
   12.0951    7.8847  -14.4462 H   0  0  0  0  0  0  0  0  0  0  0  0
   13.1811    7.4891  -16.6289 H   0  0  0  0  0  0  0  0  0  0  0  0
   13.2028    5.2038  -17.6175 H   0  0  0  0  0  0  0  0  0  0  0  0
   12.1657    3.3143  -16.3798 H   0  0  0  0  0  0  0  0  0  0  0  0
    8.5759    1.7912  -14.7574 H   0  0  0  0  0  0  0  0  0  0  0  0
    6.1490    2.2915  -14.5579 H   0  0  0  0  0  0  0  0  0  0  0  0
    7.0660    5.9857  -12.5683 H   0  0  0  0  0  0  0  0  0  0  0  0
   10.1889    8.0659  -11.2980 H   0  0  0  0  0  0  0  0  0  0  0  0
    8.4869    7.9652  -10.9768 H   0  0  0  0  0  0  0  0  0  0  0  0
    9.5828    8.7604   -8.9559 H   0  0  0  0  0  0  0  0  0  0  0  0
   10.7862    7.4873   -9.0232 H   0  0  0  0  0  0  0  0  0  0  0  0
    7.9170    7.1107   -8.5451 H   0  0  0  0  0  0  0  0  0  0  0  0
  2  1  1  0
  3  2  1  0
  4  3  1  0
  5  4  1  0
  6  5  1  0
  7  6  2  0
  8  7  1  0
  9  8  2  0
 10  9  1  0
 11 10  2  0
 12 11  1  0
 13  8  1  0
 13 12  2  0
 14 13  1  0
 15 14  1  0
 16 15  1  0
 17 16  2  0
 18 17  1  0
 19 18  1  0
 20 18  2  0
 21  6  1  0
 21 15  2  0
 21 20  1  0
 22  5  1  0
 23  2  1  0
 23 22  1  0
 24  1  1  0
 25  1  1  0
 26  1  1  0
 27  3  1  0
 28  3  1  0
 29  4  1  0
 30  4  1  0
 31  9  1  0
 32 10  1  0
 33 11  1  0
 34 12  1  0
 35 16  1  0
 36 17  1  0
 37 20  1  0
 38 22  1  0
 39 22  1  0
 40 23  1  0
 41 23  1  0
 42  2  1  0
M  CHG  1   2   1
M  END
>  <b_m_subgroup_collapsed>  (916) 
0

>  <r_i_docking_score>  (916) 
-7.1424788397556798

>  <s_m_subgroup_title>  (916) 
glide-dock_SP_D22_pv

>  <s_m_subgroupid>  (916) 
glide-dock_SP_D22_pv

>  <Molecule ChEMBL ID>  (916) 
CHEMBL3646151

>  <Standard Type>  (916) 
Ki

>  <Standard Value>  (916) 
1.1

>  <label>  (916) 
1

$$$$
CHEMBL3588986
     RDKit          3D

 58 62  0  0  1  0  0  0  0  0999 V2000
    5.5647   -0.4515  -19.4575 Cl  0  0  0  0  0  0  0  0  0  0  0  0
    5.4498   -0.6427  -17.7421 C   0  0  0  0  0  0  0  0  0  0  0  0
    4.5658   -1.6062  -17.2289 C   0  0  0  0  0  0  0  0  0  0  0  0
    4.4305   -1.7632  -15.8403 C   0  0  0  0  0  0  0  0  0  0  0  0
    5.1728   -0.9514  -14.9635 C   0  0  0  0  0  0  0  0  0  0  0  0
    6.0673    0.0197  -15.4580 C   0  0  0  0  0  0  0  0  0  0  0  0
    6.7240    0.8369  -14.5184 N   0  0  0  0  0  0  0  0  0  0  0  0
    5.9359    1.7227  -13.6765 C   0  0  0  0  0  0  0  0  0  0  0  0
    6.3374    3.1828  -13.9595 C   0  0  0  0  0  0  0  0  0  0  0  0
    7.7751    3.3728  -13.7088 N   0  0  0  0  0  0  0  0  0  0  0  0
    8.2288    4.7612  -13.8539 C   0  0  0  0  0  0  0  0  0  0  0  0
    7.5534    5.7331  -12.8657 C   0  0  0  0  0  0  0  0  0  0  0  0
    8.0872    5.5872  -11.4339 C   0  0  0  0  0  0  0  0  0  0  0  0
    9.2491    6.5577  -11.1481 C   0  0  0  0  0  0  0  0  0  0  0  0
    9.6303    6.5909   -9.7501 N   0  0  0  0  0  0  0  0  0  0  0  0
   10.0316    7.6754   -8.9991 C   0  0  0  0  0  0  0  0  0  0  0  0
   10.3214    7.1453   -7.7723 C   0  0  0  0  0  0  0  0  0  0  0  0
   10.7962    7.7834   -6.5389 C   0  0  0  0  0  0  0  0  0  0  0  0
   10.8356    9.1896   -6.4562 C   0  0  0  0  0  0  0  0  0  0  0  0
   11.2817    9.8281   -5.2864 C   0  0  0  0  0  0  0  0  0  0  0  0
   11.7085    9.0463   -4.1996 C   0  0  0  0  0  0  0  0  0  0  0  0
   12.2010    9.3729   -2.9526 N   0  0  0  0  0  0  0  0  0  0  0  0
   12.4838    8.2329   -2.2221 C   0  0  0  0  0  0  0  0  0  0  0  0
   12.1648    7.1330   -2.9784 C   0  0  0  0  0  0  0  0  0  0  0  0
   11.6879    7.6236   -4.2408 C   0  0  0  0  0  0  0  0  0  0  0  0
   11.2232    7.0150   -5.4292 C   0  0  0  0  0  0  0  0  0  0  0  0
   10.0859    5.7733   -7.8461 N   0  0  0  0  0  0  0  0  0  0  0  0
    9.6854    5.4511   -9.0307 N   0  0  0  0  0  0  0  0  0  0  0  0
    8.5442    2.5176  -14.6215 C   0  0  0  0  0  0  0  0  0  0  0  0
    8.1678    1.0217  -14.4783 C   0  0  0  0  0  0  0  0  0  0  0  0
    6.2106    0.1704  -16.8653 C   0  0  0  0  0  0  0  0  0  0  0  0
    7.2496    1.3719  -17.5489 Cl  0  0  0  0  0  0  0  0  0  0  0  0
    3.9805   -2.2237  -17.8956 H   0  0  0  0  0  0  0  0  0  0  0  0
    3.7441   -2.5004  -15.4477 H   0  0  0  0  0  0  0  0  0  0  0  0
    5.0548   -1.0797  -13.8979 H   0  0  0  0  0  0  0  0  0  0  0  0
    4.8693    1.5863  -13.8504 H   0  0  0  0  0  0  0  0  0  0  0  0
    6.0863    1.4765  -12.6250 H   0  0  0  0  0  0  0  0  0  0  0  0
    6.0869    3.4469  -14.9889 H   0  0  0  0  0  0  0  0  0  0  0  0
    5.7316    3.8111  -13.3102 H   0  0  0  0  0  0  0  0  0  0  0  0
    9.3079    4.7954  -13.6876 H   0  0  0  0  0  0  0  0  0  0  0  0
    8.0859    5.1075  -14.8746 H   0  0  0  0  0  0  0  0  0  0  0  0
    7.7192    6.7559  -13.2068 H   0  0  0  0  0  0  0  0  0  0  0  0
    6.4707    5.6304  -12.8651 H   0  0  0  0  0  0  0  0  0  0  0  0
    7.2754    5.7743  -10.7325 H   0  0  0  0  0  0  0  0  0  0  0  0
    8.3871    4.5551  -11.2483 H   0  0  0  0  0  0  0  0  0  0  0  0
   10.1246    6.2910  -11.7377 H   0  0  0  0  0  0  0  0  0  0  0  0
    8.9657    7.5715  -11.4354 H   0  0  0  0  0  0  0  0  0  0  0  0
   10.0646    8.6797   -9.3940 H   0  0  0  0  0  0  0  0  0  0  0  0
   10.5063    9.7740   -7.2999 H   0  0  0  0  0  0  0  0  0  0  0  0
   11.2923   10.9062   -5.2252 H   0  0  0  0  0  0  0  0  0  0  0  0
   12.3633   10.3054   -2.5945 H   0  0  0  0  0  0  0  0  0  0  0  0
   12.8802    8.2985   -1.2211 H   0  0  0  0  0  0  0  0  0  0  0  0
   12.2590    6.0953   -2.6949 H   0  0  0  0  0  0  0  0  0  0  0  0
   11.1957    5.9370   -5.4816 H   0  0  0  0  0  0  0  0  0  0  0  0
    8.3880    2.8572  -15.6436 H   0  0  0  0  0  0  0  0  0  0  0  0
    9.6085    2.6343  -14.4136 H   0  0  0  0  0  0  0  0  0  0  0  0
    8.5313    0.6434  -13.5239 H   0  0  0  0  0  0  0  0  0  0  0  0
    8.6549    0.4246  -15.2505 H   0  0  0  0  0  0  0  0  0  0  0  0
  2  1  1  0
  3  2  1  0
  4  3  2  0
  5  4  1  0
  6  5  2  0
  7  6  1  0
  8  7  1  0
  9  8  1  0
 10  9  1  0
 11 10  1  0
 12 11  1  0
 13 12  1  0
 14 13  1  0
 15 14  1  0
 16 15  1  0
 17 16  2  0
 18 17  1  0
 19 18  2  0
 20 19  1  0
 21 20  2  0
 22 21  1  0
 23 22  1  0
 24 23  2  0
 25 21  1  0
 25 24  1  0
 26 18  1  0
 26 25  2  0
 27 17  1  0
 28 15  1  0
 28 27  2  0
 29 10  1  0
 30  7  1  0
 30 29  1  0
 31  2  2  0
 31  6  1  0
 32 31  1  0
 33  3  1  0
 34  4  1  0
 35  5  1  0
 36  8  1  0
 37  8  1  0
 38  9  1  0
 39  9  1  0
 40 11  1  0
 41 11  1  0
 42 12  1  0
 43 12  1  0
 44 13  1  0
 45 13  1  0
 46 14  1  0
 47 14  1  0
 48 16  1  0
 49 19  1  0
 50 20  1  0
 51 22  1  0
 52 23  1  0
 53 24  1  0
 54 26  1  0
 55 29  1  0
 56 29  1  0
 57 30  1  0
 58 30  1  0
M  END
>  <b_m_subgroup_collapsed>  (917) 
0

>  <r_i_docking_score>  (917) 
-7.1387872846357201

>  <s_m_subgroup_title>  (917) 
glide-dock_SP_D22_pv

>  <s_m_subgroupid>  (917) 
glide-dock_SP_D22_pv

>  <Molecule ChEMBL ID>  (917) 
CHEMBL3588986

>  <Standard Type>  (917) 
Ki

>  <Standard Value>  (917) 
56.1

>  <label>  (917) 
1

$$$$
CHEMBL4582714
     RDKit          3D

 61 64  0  0  1  0  0  0  0  0999 V2000
   10.0423    0.7215  -15.0105 C   0  0  0  0  0  0  0  0  0  0  0  0
    9.1810    1.7785  -14.6067 O   0  0  0  0  0  0  0  0  0  0  0  0
    7.8581    1.5031  -14.3186 C   0  0  0  0  0  0  0  0  0  0  0  0
    7.3354    0.1876  -14.4228 C   0  0  0  0  0  0  0  0  0  0  0  0
    6.0218   -0.1128  -14.0308 C   0  0  0  0  0  0  0  0  0  0  0  0
    5.1991    0.9054  -13.5321 C   0  0  0  0  0  0  0  0  0  0  0  0
    5.6859    2.2209  -13.4469 C   0  0  0  0  0  0  0  0  0  0  0  0
    7.0061    2.5504  -13.8470 C   0  0  0  0  0  0  0  0  0  0  0  0
    7.4386    3.8896  -13.6889 N   0  0  0  0  0  0  0  0  0  0  0  0
    6.9204    4.7414  -12.6144 C   0  0  0  0  0  0  0  0  0  0  0  0
    8.0751    5.3263  -11.7762 C   0  0  0  0  0  0  0  0  0  0  0  0
    9.0496    6.0020  -12.6400 N   0  0  0  0  0  0  0  0  0  0  0  0
   10.1025    6.6175  -11.8475 C   0  0  0  0  0  0  0  0  0  0  0  0
    9.6224    7.9254  -11.1797 C   0  0  0  0  0  0  0  0  0  0  0  0
    9.5326    7.8747   -9.6469 C   0  0  0  0  0  0  0  0  0  0  0  0
   10.8687    7.5347   -8.9695 C   0  0  0  0  0  0  0  0  0  0  0  0
   10.8136    7.8107   -7.5107 N   0  0  2  0  0  0  0  0  0  0  0  0
   11.5178    9.0803   -7.1792 C   0  0  0  0  0  0  0  0  0  0  0  0
   11.0475    9.7481   -5.8758 C   0  0  0  0  0  0  0  0  0  0  0  0
   11.5321    9.0535   -4.6468 C   0  0  0  0  0  0  0  0  0  0  0  0
   12.1112    9.7709   -3.5980 N   0  0  0  0  0  0  0  0  0  0  0  0
   12.4856    8.9717   -2.5976 C   0  0  0  0  0  0  0  0  0  0  0  0
   12.1224    7.2774   -2.8580 S   0  0  0  0  0  0  0  0  0  0  0  0
   11.4341    7.7120   -4.4011 C   0  0  0  0  0  0  0  0  0  0  0  0
   10.7605    6.6968   -5.2440 C   0  0  0  0  0  0  0  0  0  0  0  0
   11.2107    6.6245   -6.7076 C   0  0  0  0  0  0  0  0  0  0  0  0
    9.6186    5.0081  -13.5551 C   0  0  0  0  0  0  0  0  0  0  0  0
    8.4955    4.5194  -14.4790 C   0  0  0  0  0  0  0  0  0  0  0  0
   11.0448    1.1172  -15.1716 H   0  0  0  0  0  0  0  0  0  0  0  0
   10.1168   -0.0526  -14.2468 H   0  0  0  0  0  0  0  0  0  0  0  0
    9.7149    0.2716  -15.9482 H   0  0  0  0  0  0  0  0  0  0  0  0
    7.9379   -0.6277  -14.7883 H   0  0  0  0  0  0  0  0  0  0  0  0
    5.6528   -1.1241  -14.1141 H   0  0  0  0  0  0  0  0  0  0  0  0
    4.1816    0.6868  -13.2461 H   0  0  0  0  0  0  0  0  0  0  0  0
    5.0054    2.9821  -13.0958 H   0  0  0  0  0  0  0  0  0  0  0  0
    6.2669    4.2016  -11.9315 H   0  0  0  0  0  0  0  0  0  0  0  0
    6.3281    5.5471  -13.0476 H   0  0  0  0  0  0  0  0  0  0  0  0
    8.5631    4.5339  -11.2068 H   0  0  0  0  0  0  0  0  0  0  0  0
    7.6639    6.0298  -11.0498 H   0  0  0  0  0  0  0  0  0  0  0  0
   10.9334    6.8718  -12.5074 H   0  0  0  0  0  0  0  0  0  0  0  0
   10.4861    5.8958  -11.1295 H   0  0  0  0  0  0  0  0  0  0  0  0
    8.6564    8.2347  -11.5846 H   0  0  0  0  0  0  0  0  0  0  0  0
   10.3127    8.7242  -11.4468 H   0  0  0  0  0  0  0  0  0  0  0  0
    8.7705    7.1558   -9.3408 H   0  0  0  0  0  0  0  0  0  0  0  0
    9.1792    8.8480   -9.2999 H   0  0  0  0  0  0  0  0  0  0  0  0
   11.6888    8.0848   -9.4373 H   0  0  0  0  0  0  0  0  0  0  0  0
   11.0934    6.4856   -9.1544 H   0  0  0  0  0  0  0  0  0  0  0  0
   12.6005    8.9508   -7.1874 H   0  0  0  0  0  0  0  0  0  0  0  0
   11.2869    9.7734   -7.9851 H   0  0  0  0  0  0  0  0  0  0  0  0
    9.9622    9.7725   -5.8581 H   0  0  0  0  0  0  0  0  0  0  0  0
   11.3754   10.7881   -5.8680 H   0  0  0  0  0  0  0  0  0  0  0  0
   12.9585    9.3723   -1.7124 H   0  0  0  0  0  0  0  0  0  0  0  0
   10.9295    5.7434   -4.7664 H   0  0  0  0  0  0  0  0  0  0  0  0
    9.6848    6.8500   -5.2078 H   0  0  0  0  0  0  0  0  0  0  0  0
   12.2731    6.4166   -6.8012 H   0  0  0  0  0  0  0  0  0  0  0  0
   10.7000    5.7614   -7.1336 H   0  0  0  0  0  0  0  0  0  0  0  0
   10.4022    5.4652  -14.1606 H   0  0  0  0  0  0  0  0  0  0  0  0
   10.0706    4.1769  -13.0090 H   0  0  0  0  0  0  0  0  0  0  0  0
    8.8799    3.8940  -15.2796 H   0  0  0  0  0  0  0  0  0  0  0  0
    8.0861    5.3887  -14.9858 H   0  0  0  0  0  0  0  0  0  0  0  0
    9.8333    7.9572   -7.3128 H   0  0  0  0  0  0  0  0  0  0  0  0
  2  1  1  0
  3  2  1  0
  4  3  2  0
  5  4  1  0
  6  5  2  0
  7  6  1  0
  8  3  1  0
  8  7  2  0
  9  8  1  0
 10  9  1  0
 11 10  1  0
 12 11  1  0
 13 12  1  0
 14 13  1  0
 15 14  1  0
 16 15  1  0
 17 16  1  0
 18 17  1  0
 19 18  1  0
 20 19  1  0
 21 20  1  0
 22 21  2  0
 23 22  1  0
 24 20  2  0
 24 23  1  0
 25 24  1  0
 26 17  1  0
 26 25  1  0
 27 12  1  0
 28  9  1  0
 28 27  1  0
 29  1  1  0
 30  1  1  0
 31  1  1  0
 32  4  1  0
 33  5  1  0
 34  6  1  0
 35  7  1  0
 36 10  1  0
 37 10  1  0
 38 11  1  0
 39 11  1  0
 40 13  1  0
 41 13  1  0
 42 14  1  0
 43 14  1  0
 44 15  1  0
 45 15  1  0
 46 16  1  0
 47 16  1  0
 48 18  1  0
 49 18  1  0
 50 19  1  0
 51 19  1  0
 52 22  1  0
 53 25  1  0
 54 25  1  0
 55 26  1  0
 56 26  1  0
 57 27  1  0
 58 27  1  0
 59 28  1  0
 60 28  1  0
 17 61  1  1
M  CHG  1  17   1
M  END
>  <b_m_subgroup_collapsed>  (918) 
0

>  <r_i_docking_score>  (918) 
-7.1386059174405299

>  <s_m_subgroup_title>  (918) 
glide-dock_SP_D22_pv

>  <s_m_subgroupid>  (918) 
glide-dock_SP_D22_pv

>  <Molecule ChEMBL ID>  (918) 
CHEMBL4582714

>  <Standard Type>  (918) 
Ki

>  <Standard Value>  (918) 
85.11

>  <label>  (918) 
1

$$$$
CHEMBL160519
     RDKit          3D

 44 45  0  0  1  0  0  0  0  0999 V2000
    9.5170    4.2081   -9.3968 C   0  0  0  0  0  0  0  0  0  0  0  0
    8.3729    4.9635  -10.0986 C   0  0  0  0  0  0  0  0  0  0  0  0
    8.8358    6.0100  -11.1405 C   0  0  2  0  0  0  0  0  0  0  0  0
    8.8860    7.3781  -10.5529 N   0  0  0  0  0  0  0  0  0  0  0  0
    9.7565    7.6169   -9.3768 C   0  0  0  0  0  0  0  0  0  0  0  0
    9.4188    8.9724   -8.7567 C   0  0  0  0  0  0  0  0  0  0  0  0
   11.2462    7.5573   -9.7496 C   0  0  0  0  0  0  0  0  0  0  0  0
    7.9804    6.0276  -12.4503 C   0  0  2  0  0  0  0  0  0  0  0  0
    6.6207    6.3629  -12.2469 O   0  0  0  0  0  0  0  0  0  0  0  0
    8.1798    4.7834  -13.3374 C   0  0  0  0  0  0  0  0  0  0  0  0
    9.3425    4.7767  -14.1411 C   0  0  0  0  0  0  0  0  0  0  0  0
    9.6479    3.6936  -14.9823 C   0  0  0  0  0  0  0  0  0  0  0  0
    8.7986    2.5771  -15.0355 C   0  0  0  0  0  0  0  0  0  0  0  0
    9.1431    1.5318  -15.8466 O   0  0  0  0  0  0  0  0  0  0  0  0
    7.6271    2.5564  -14.2469 C   0  0  0  0  0  0  0  0  0  0  0  0
    6.7819    1.4061  -14.2638 N   0  0  0  0  0  0  0  0  0  0  0  0
    5.6860    1.2212  -13.5019 C   0  0  0  0  0  0  0  0  0  0  0  0
    5.0483    0.1723  -13.5410 O   0  0  0  0  0  0  0  0  0  0  0  0
    5.3367    2.3434  -12.6462 C   0  0  0  0  0  0  0  0  0  0  0  0
    6.0743    3.4695  -12.6012 C   0  0  0  0  0  0  0  0  0  0  0  0
    7.3012    3.6550  -13.4060 C   0  0  0  0  0  0  0  0  0  0  0  0
    9.1216    3.5218   -8.6469 H   0  0  0  0  0  0  0  0  0  0  0  0
   10.0860    3.6212  -10.1164 H   0  0  0  0  0  0  0  0  0  0  0  0
   10.2206    4.8608   -8.8863 H   0  0  0  0  0  0  0  0  0  0  0  0
    7.7308    5.4399   -9.3568 H   0  0  0  0  0  0  0  0  0  0  0  0
    7.7452    4.2145  -10.5769 H   0  0  0  0  0  0  0  0  0  0  0  0
    9.8510    5.7603  -11.4495 H   0  0  0  0  0  0  0  0  0  0  0  0
    9.1334    8.0361  -11.2758 H   0  0  0  0  0  0  0  0  0  0  0  0
    9.5377    6.8812   -8.6060 H   0  0  0  0  0  0  0  0  0  0  0  0
   10.0347    9.1711   -7.8791 H   0  0  0  0  0  0  0  0  0  0  0  0
    9.5907    9.7723   -9.4731 H   0  0  0  0  0  0  0  0  0  0  0  0
    8.3779    9.0215   -8.4377 H   0  0  0  0  0  0  0  0  0  0  0  0
   11.8741    7.7689   -8.8833 H   0  0  0  0  0  0  0  0  0  0  0  0
   11.5270    6.5724  -10.1130 H   0  0  0  0  0  0  0  0  0  0  0  0
   11.4974    8.2854  -10.5220 H   0  0  0  0  0  0  0  0  0  0  0  0
    8.3520    6.8616  -13.0469 H   0  0  0  0  0  0  0  0  0  0  0  0
    6.5080    7.0088  -11.5434 H   0  0  0  0  0  0  0  0  0  0  0  0
   10.0236    5.6148  -14.1156 H   0  0  0  0  0  0  0  0  0  0  0  0
   10.5467    3.7154  -15.5815 H   0  0  0  0  0  0  0  0  0  0  0  0
    8.6072    0.7613  -15.7568 H   0  0  0  0  0  0  0  0  0  0  0  0
    7.0273    0.6436  -14.8734 H   0  0  0  0  0  0  0  0  0  0  0  0
    4.4860    2.2390  -11.9980 H   0  0  0  0  0  0  0  0  0  0  0  0
    5.7628    4.2276  -11.9044 H   0  0  0  0  0  0  0  0  0  0  0  0
    7.9195    7.5960  -10.2625 H   0  0  0  0  0  0  0  0  0  0  0  0
  2  1  1  0
  3  2  1  0
  4  3  1  0
  5  4  1  0
  6  5  1  0
  7  5  1  0
  8  3  1  0
  9  8  1  0
 10  8  1  0
 11 10  1  0
 12 11  2  0
 13 12  1  0
 14 13  1  0
 15 13  2  0
 16 15  1  0
 17 16  1  0
 18 17  2  0
 19 17  1  0
 20 19  2  0
 21 10  2  0
 21 15  1  0
 21 20  1  0
 22  1  1  0
 23  1  1  0
 24  1  1  0
 25  2  1  0
 26  2  1  0
  3 27  1  6
 28  4  1  0
 29  5  1  0
 30  6  1  0
 31  6  1  0
 32  6  1  0
 33  7  1  0
 34  7  1  0
 35  7  1  0
  8 36  1  6
 37  9  1  0
 38 11  1  0
 39 12  1  0
 40 14  1  0
 41 16  1  0
 42 19  1  0
 43 20  1  0
 44  4  1  0
M  CHG  1   4   1
M  END
>  <b_m_subgroup_collapsed>  (919) 
0

>  <r_i_docking_score>  (919) 
-7.1375800558140696

>  <s_m_subgroup_title>  (919) 
glide-dock_SP_D22_pv

>  <s_m_subgroupid>  (919) 
glide-dock_SP_D22_pv

>  <Molecule ChEMBL ID>  (919) 
CHEMBL160519

>  <Standard Type>  (919) 
Ki

>  <Standard Value>  (919) 
86000.0

>  <label>  (919) 
0

$$$$
CHEMBL104238
     RDKit          3D

 52 55  0  0  1  0  0  0  0  0999 V2000
    7.6349    6.1116  -13.0467 O   0  0  0  0  0  0  0  0  0  0  0  0
    8.0993    4.9763  -12.9302 C   0  0  0  0  0  0  0  0  0  0  0  0
    9.2937    4.7705  -11.9754 C   0  0  0  0  0  0  0  0  0  0  0  0
    9.2296    5.7100  -10.8293 N   0  0  0  0  0  0  0  0  0  0  0  0
   10.0990    6.8731  -11.0097 C   0  0  0  0  0  0  0  0  0  0  0  0
    9.8108    7.9213   -9.9179 C   0  0  0  0  0  0  0  0  0  0  0  0
    9.9642    7.3539   -8.5516 N   0  0  0  0  0  0  0  0  0  0  0  0
    9.6595    8.3633   -7.5013 C   0  0  0  0  0  0  0  0  0  0  0  0
   10.5656    8.3317   -6.2696 C   0  0  0  0  0  0  0  0  0  0  0  0
   11.0122    7.1240   -5.6807 C   0  0  0  0  0  0  0  0  0  0  0  0
   11.6823    7.1366   -4.4406 C   0  0  0  0  0  0  0  0  0  0  0  0
   11.8853    8.3547   -3.7670 C   0  0  0  0  0  0  0  0  0  0  0  0
   12.4859    8.3610   -2.1555 Cl  0  0  0  0  0  0  0  0  0  0  0  0
   11.5202    9.5644   -4.3794 C   0  0  0  0  0  0  0  0  0  0  0  0
   10.8855    9.5537   -5.6345 C   0  0  0  0  0  0  0  0  0  0  0  0
    9.1282    6.1296   -8.4314 C   0  0  0  0  0  0  0  0  0  0  0  0
    9.4638    5.0965   -9.5236 C   0  0  0  0  0  0  0  0  0  0  0  0
    7.5829    3.9216  -13.6162 N   0  0  0  0  0  0  0  0  0  0  0  0
    6.1239    3.8784  -13.8102 C   0  0  0  0  0  0  0  0  0  0  0  0
    5.5485    2.6836  -13.0526 C   0  0  0  0  0  0  0  0  0  0  0  0
    6.1162    1.1678  -13.8468 S   0  0  0  0  0  0  0  0  0  0  0  0
    7.7927    1.5283  -14.2992 C   0  0  0  0  0  0  0  0  0  0  0  0
    8.5629    0.4750  -14.8287 C   0  0  0  0  0  0  0  0  0  0  0  0
    9.8986    0.6848  -15.2116 C   0  0  0  0  0  0  0  0  0  0  0  0
   10.4621    1.9655  -15.0909 C   0  0  0  0  0  0  0  0  0  0  0  0
    9.6984    3.0277  -14.5704 C   0  0  0  0  0  0  0  0  0  0  0  0
    8.3605    2.8274  -14.1403 C   0  0  0  0  0  0  0  0  0  0  0  0
    9.2725    3.7456  -11.6154 H   0  0  0  0  0  0  0  0  0  0  0  0
   10.2374    4.8875  -12.5075 H   0  0  0  0  0  0  0  0  0  0  0  0
   11.1455    6.5751  -10.9806 H   0  0  0  0  0  0  0  0  0  0  0  0
    9.9222    7.3192  -11.9901 H   0  0  0  0  0  0  0  0  0  0  0  0
   10.4954    8.7604  -10.0411 H   0  0  0  0  0  0  0  0  0  0  0  0
    8.8026    8.3149  -10.0455 H   0  0  0  0  0  0  0  0  0  0  0  0
    9.7439    9.3636   -7.9319 H   0  0  0  0  0  0  0  0  0  0  0  0
    8.6178    8.2822   -7.1808 H   0  0  0  0  0  0  0  0  0  0  0  0
   10.8137    6.1674   -6.1357 H   0  0  0  0  0  0  0  0  0  0  0  0
   11.9671    6.2028   -3.9753 H   0  0  0  0  0  0  0  0  0  0  0  0
   11.6734   10.4955   -3.8550 H   0  0  0  0  0  0  0  0  0  0  0  0
   10.5638   10.4933   -6.0592 H   0  0  0  0  0  0  0  0  0  0  0  0
    9.2270    5.6674   -7.4511 H   0  0  0  0  0  0  0  0  0  0  0  0
    8.0856    6.4141   -8.5255 H   0  0  0  0  0  0  0  0  0  0  0  0
    8.8058    4.2345   -9.4015 H   0  0  0  0  0  0  0  0  0  0  0  0
   10.4857    4.7359   -9.4265 H   0  0  0  0  0  0  0  0  0  0  0  0
    5.8944    3.7756  -14.8686 H   0  0  0  0  0  0  0  0  0  0  0  0
    5.6165    4.7846  -13.4743 H   0  0  0  0  0  0  0  0  0  0  0  0
    4.4596    2.7007  -13.0489 H   0  0  0  0  0  0  0  0  0  0  0  0
    5.8666    2.6992  -12.0092 H   0  0  0  0  0  0  0  0  0  0  0  0
    8.1266   -0.5077  -14.9412 H   0  0  0  0  0  0  0  0  0  0  0  0
   10.4830   -0.1317  -15.6112 H   0  0  0  0  0  0  0  0  0  0  0  0
   11.4813    2.1362  -15.4064 H   0  0  0  0  0  0  0  0  0  0  0  0
   10.1597    4.0017  -14.5278 H   0  0  0  0  0  0  0  0  0  0  0  0
   10.9313    7.0843   -8.4483 H   0  0  0  0  0  0  0  0  0  0  0  0
  2  1  2  0
  3  2  1  0
  4  3  1  0
  5  4  1  0
  6  5  1  0
  7  6  1  0
  8  7  1  0
  9  8  1  0
 10  9  1  0
 11 10  2  0
 12 11  1  0
 13 12  1  0
 14 12  2  0
 15  9  2  0
 15 14  1  0
 16  7  1  0
 17  4  1  0
 17 16  1  0
 18  2  1  0
 19 18  1  0
 20 19  1  0
 21 20  1  0
 22 21  1  0
 23 22  2  0
 24 23  1  0
 25 24  2  0
 26 25  1  0
 27 18  1  0
 27 22  1  0
 27 26  2  0
 28  3  1  0
 29  3  1  0
 30  5  1  0
 31  5  1  0
 32  6  1  0
 33  6  1  0
 34  8  1  0
 35  8  1  0
 36 10  1  0
 37 11  1  0
 38 14  1  0
 39 15  1  0
 40 16  1  0
 41 16  1  0
 42 17  1  0
 43 17  1  0
 44 19  1  0
 45 19  1  0
 46 20  1  0
 47 20  1  0
 48 23  1  0
 49 24  1  0
 50 25  1  0
 51 26  1  0
 52  7  1  0
M  CHG  1   7   1
M  END
>  <b_m_subgroup_collapsed>  (920) 
0

>  <r_i_docking_score>  (920) 
-7.1368440230318004

>  <s_m_subgroup_title>  (920) 
glide-dock_SP_D22_pv

>  <s_m_subgroupid>  (920) 
glide-dock_SP_D22_pv

>  <Molecule ChEMBL ID>  (920) 
CHEMBL104238

>  <Standard Type>  (920) 
Ki

>  <Standard Value>  (920) 
10000.0

>  <label>  (920) 
0

$$$$
CHEMBL552631
     RDKit          3D

 35 37  0  0  1  0  0  0  0  0999 V2000
   10.2137    7.3173  -12.2431 C   0  0  0  0  0  0  0  0  0  0  0  0
   10.4864    8.0987  -11.0471 N   0  0  0  0  0  0  0  0  0  0  0  0
   11.7303    7.6336  -10.4433 C   0  0  0  0  0  0  0  0  0  0  0  0
   12.0155    8.4470   -9.1770 C   0  0  0  0  0  0  0  0  0  0  0  0
   10.8688    8.2703   -8.1751 C   0  0  0  0  0  0  0  0  0  0  0  0
    9.5547    8.7076   -8.8285 C   0  0  0  0  0  0  0  0  0  0  0  0
    9.3483    7.9417  -10.1425 C   0  0  0  0  0  0  0  0  0  0  0  0
   10.7710    6.8937   -7.8228 O   0  0  0  0  0  0  0  0  0  0  0  0
   11.0299    6.7828   -6.4913 C   0  0  0  0  0  0  0  0  0  0  0  0
   11.2690    7.9214   -5.8348 C   0  0  0  0  0  0  0  0  0  0  0  0
   11.6860    8.0393   -4.4303 C   0  0  0  0  0  0  0  0  0  0  0  0
   12.0773    6.8823   -3.7216 C   0  0  0  0  0  0  0  0  0  0  0  0
   12.4804    6.9719   -2.3821 C   0  0  0  0  0  0  0  0  0  0  0  0
   12.4863    8.2216   -1.7433 C   0  0  0  0  0  0  0  0  0  0  0  0
   12.0860    9.3723   -2.4363 C   0  0  0  0  0  0  0  0  0  0  0  0
   11.6861    9.2889   -3.7760 C   0  0  0  0  0  0  0  0  0  0  0  0
   11.1577    8.9560   -6.8431 C   0  0  0  0  0  0  0  0  0  0  0  0
   11.2861   10.1704   -6.6893 O   0  0  0  0  0  0  0  0  0  0  0  0
    9.2442    7.6062  -12.6468 H   0  0  0  0  0  0  0  0  0  0  0  0
   10.9756    7.4874  -13.0042 H   0  0  0  0  0  0  0  0  0  0  0  0
   10.1767    6.2488  -12.0243 H   0  0  0  0  0  0  0  0  0  0  0  0
   12.5488    7.7552  -11.1535 H   0  0  0  0  0  0  0  0  0  0  0  0
   11.6550    6.5737  -10.1995 H   0  0  0  0  0  0  0  0  0  0  0  0
   12.0862    9.4983   -9.4498 H   0  0  0  0  0  0  0  0  0  0  0  0
   12.9721    8.1546   -8.7422 H   0  0  0  0  0  0  0  0  0  0  0  0
    8.7085    8.5391   -8.1604 H   0  0  0  0  0  0  0  0  0  0  0  0
    9.5791    9.7723   -9.0459 H   0  0  0  0  0  0  0  0  0  0  0  0
    8.4860    8.3507  -10.6544 H   0  0  0  0  0  0  0  0  0  0  0  0
    9.1487    6.8877   -9.9415 H   0  0  0  0  0  0  0  0  0  0  0  0
   11.0498    5.7723   -6.1241 H   0  0  0  0  0  0  0  0  0  0  0  0
   12.0826    5.9104   -4.1906 H   0  0  0  0  0  0  0  0  0  0  0  0
   12.7810    6.0824   -1.8472 H   0  0  0  0  0  0  0  0  0  0  0  0
   12.8068    8.2969   -0.7167 H   0  0  0  0  0  0  0  0  0  0  0  0
   12.0860   10.3266   -1.9389 H   0  0  0  0  0  0  0  0  0  0  0  0
   11.3731   10.1932   -4.2730 H   0  0  0  0  0  0  0  0  0  0  0  0
  2  1  1  0
  3  2  1  0
  4  3  1  0
  5  4  1  0
  6  5  1  0
  7  2  1  0
  7  6  1  0
  8  5  1  0
  9  8  1  0
 10  9  2  0
 11 10  1  0
 12 11  2  0
 13 12  1  0
 14 13  2  0
 15 14  1  0
 16 11  1  0
 16 15  2  0
 17  5  1  0
 17 10  1  0
 18 17  2  0
 19  1  1  0
 20  1  1  0
 21  1  1  0
 22  3  1  0
 23  3  1  0
 24  4  1  0
 25  4  1  0
 26  6  1  0
 27  6  1  0
 28  7  1  0
 29  7  1  0
 30  9  1  0
 31 12  1  0
 32 13  1  0
 33 14  1  0
 34 15  1  0
 35 16  1  0
M  END
>  <b_m_subgroup_collapsed>  (921) 
0

>  <r_i_docking_score>  (921) 
-7.13624940115165

>  <s_m_subgroup_title>  (921) 
glide-dock_SP_D22_pv

>  <s_m_subgroupid>  (921) 
glide-dock_SP_D22_pv

>  <Molecule ChEMBL ID>  (921) 
CHEMBL552631

>  <Standard Type>  (921) 
Ki

>  <Standard Value>  (921) 
10000.0

>  <label>  (921) 
0

$$$$
CHEMBL321121
     RDKit          3D

 60 63  0  0  1  0  0  0  0  0999 V2000
   11.3404    1.2228  -17.1161 C   0  0  0  0  0  0  0  0  0  0  0  0
   10.1920    2.0945  -16.5851 C   0  0  0  0  0  0  0  0  0  0  0  0
    9.8268    1.7806  -15.1155 C   0  0  2  0  0  0  0  0  0  0  0  0
    9.1512    0.3958  -14.9561 C   0  0  0  0  0  0  0  0  0  0  0  0
    7.7899    0.7318  -14.4267 C   0  0  0  0  0  0  0  0  0  0  0  0
    6.7570   -0.1778  -14.1387 C   0  0  0  0  0  0  0  0  0  0  0  0
    5.5421    0.3252  -13.6348 C   0  0  0  0  0  0  0  0  0  0  0  0
    5.3721    1.7136  -13.4470 C   0  0  0  0  0  0  0  0  0  0  0  0
    6.3959    2.6171  -13.8066 C   0  0  0  0  0  0  0  0  0  0  0  0
    7.6393    2.1044  -14.2469 C   0  0  0  0  0  0  0  0  0  0  0  0
    8.8694    2.7607  -14.5489 N   0  0  0  0  0  0  0  0  0  0  0  0
    9.2963    3.9949  -14.1595 C   0  0  0  0  0  0  0  0  0  0  0  0
   10.4409    4.3792  -14.4075 O   0  0  0  0  0  0  0  0  0  0  0  0
    8.3811    4.9546  -13.3659 C   0  0  0  0  0  0  0  0  0  0  0  0
    9.0695    6.0544  -12.6468 N   0  0  0  0  0  0  0  0  0  0  0  0
    9.7862    5.5189  -11.4856 C   0  0  0  0  0  0  0  0  0  0  0  0
   10.5275    6.6662  -10.7789 C   0  0  0  0  0  0  0  0  0  0  0  0
    9.5306    7.6000  -10.2101 N   0  0  0  0  0  0  0  0  0  0  0  0
   10.0949    8.6131   -9.2731 C   0  0  0  0  0  0  0  0  0  0  0  0
   10.4479    8.1739   -7.8364 C   0  0  0  0  0  0  0  0  0  0  0  0
   10.8101    6.8591   -7.4575 C   0  0  0  0  0  0  0  0  0  0  0  0
   11.2666    6.5850   -6.1523 C   0  0  0  0  0  0  0  0  0  0  0  0
   11.2861    7.5871   -5.1675 C   0  0  0  0  0  0  0  0  0  0  0  0
   11.7597    7.2653   -3.7649 C   0  0  0  0  0  0  0  0  0  0  0  0
   10.8861    8.8865   -5.5115 C   0  0  0  0  0  0  0  0  0  0  0  0
   10.4862    9.1665   -6.8291 C   0  0  0  0  0  0  0  0  0  0  0  0
    8.8125    8.1863  -11.3756 C   0  0  0  0  0  0  0  0  0  0  0  0
    8.1044    7.0616  -12.1863 C   0  0  0  0  0  0  0  0  0  0  0  0
   11.5711    1.4785  -18.1501 H   0  0  0  0  0  0  0  0  0  0  0  0
   12.2471    1.3741  -16.5302 H   0  0  0  0  0  0  0  0  0  0  0  0
   11.0946    0.1610  -17.0821 H   0  0  0  0  0  0  0  0  0  0  0  0
    9.3121    1.9697  -17.2179 H   0  0  0  0  0  0  0  0  0  0  0  0
   10.4871    3.1389  -16.6893 H   0  0  0  0  0  0  0  0  0  0  0  0
   10.7356    1.7891  -14.5101 H   0  0  0  0  0  0  0  0  0  0  0  0
    9.6906   -0.2276  -14.2438 H   0  0  0  0  0  0  0  0  0  0  0  0
    9.0618   -0.1482  -15.8960 H   0  0  0  0  0  0  0  0  0  0  0  0
    6.8873   -1.2376  -14.2992 H   0  0  0  0  0  0  0  0  0  0  0  0
    4.7311   -0.3523  -13.4200 H   0  0  0  0  0  0  0  0  0  0  0  0
    4.4319    2.0904  -13.0712 H   0  0  0  0  0  0  0  0  0  0  0  0
    6.1881    3.6700  -13.7151 H   0  0  0  0  0  0  0  0  0  0  0  0
    7.6848    5.3697  -14.0901 H   0  0  0  0  0  0  0  0  0  0  0  0
    7.8141    4.3939  -12.6252 H   0  0  0  0  0  0  0  0  0  0  0  0
    9.1060    5.0213  -10.7911 H   0  0  0  0  0  0  0  0  0  0  0  0
   10.4856    4.7597  -11.8217 H   0  0  0  0  0  0  0  0  0  0  0  0
   11.2143    6.2949  -10.0297 H   0  0  0  0  0  0  0  0  0  0  0  0
   11.1689    7.1912  -11.4907 H   0  0  0  0  0  0  0  0  0  0  0  0
   10.9719    9.0788   -9.7256 H   0  0  0  0  0  0  0  0  0  0  0  0
    9.3511    9.4029   -9.1729 H   0  0  0  0  0  0  0  0  0  0  0  0
   10.7683    6.0193   -8.1239 H   0  0  0  0  0  0  0  0  0  0  0  0
   11.6212    5.6009   -5.9031 H   0  0  0  0  0  0  0  0  0  0  0  0
   11.3714    6.2995   -3.4394 H   0  0  0  0  0  0  0  0  0  0  0  0
   12.8487    7.2246   -3.7351 H   0  0  0  0  0  0  0  0  0  0  0  0
   11.4292    8.0211   -3.0544 H   0  0  0  0  0  0  0  0  0  0  0  0
   10.8966    9.6768   -4.7761 H   0  0  0  0  0  0  0  0  0  0  0  0
   10.1989   10.1720   -7.0469 H   0  0  0  0  0  0  0  0  0  0  0  0
    8.0865    8.9333  -11.0475 H   0  0  0  0  0  0  0  0  0  0  0  0
    9.5097    8.7232  -12.0200 H   0  0  0  0  0  0  0  0  0  0  0  0
    7.6006    7.5042  -13.0445 H   0  0  0  0  0  0  0  0  0  0  0  0
    7.3337    6.5714  -11.5920 H   0  0  0  0  0  0  0  0  0  0  0  0
    8.8321    7.0771   -9.6957 H   0  0  0  0  0  0  0  0  0  0  0  0
  2  1  1  0
  3  2  1  0
  4  3  1  0
  5  4  1  0
  6  5  2  0
  7  6  1  0
  8  7  2  0
  9  8  1  0
 10  5  1  0
 10  9  2  0
 11  3  1  0
 11 10  1  0
 12 11  1  0
 13 12  2  0
 14 12  1  0
 15 14  1  0
 16 15  1  0
 17 16  1  0
 18 17  1  0
 19 18  1  0
 20 19  1  0
 21 20  1  0
 22 21  2  0
 23 22  1  0
 24 23  1  0
 25 23  2  0
 26 20  2  0
 26 25  1  0
 27 18  1  0
 28 15  1  0
 28 27  1  0
 29  1  1  0
 30  1  1  0
 31  1  1  0
 32  2  1  0
 33  2  1  0
  3 34  1  1
 35  4  1  0
 36  4  1  0
 37  6  1  0
 38  7  1  0
 39  8  1  0
 40  9  1  0
 41 14  1  0
 42 14  1  0
 43 16  1  0
 44 16  1  0
 45 17  1  0
 46 17  1  0
 47 19  1  0
 48 19  1  0
 49 21  1  0
 50 22  1  0
 51 24  1  0
 52 24  1  0
 53 24  1  0
 54 25  1  0
 55 26  1  0
 56 27  1  0
 57 27  1  0
 58 28  1  0
 59 28  1  0
 60 18  1  0
M  CHG  1  18   1
M  END
>  <b_m_subgroup_collapsed>  (922) 
0

>  <r_i_docking_score>  (922) 
-7.1292311426039401

>  <s_m_subgroup_title>  (922) 
glide-dock_SP_D22_pv

>  <s_m_subgroupid>  (922) 
glide-dock_SP_D22_pv

>  <Molecule ChEMBL ID>  (922) 
CHEMBL321121

>  <Standard Type>  (922) 
Ki

>  <Standard Value>  (922) 
96.0

>  <label>  (922) 
1

$$$$
CHEMBL1774065
     RDKit          3D

 55 58  0  0  1  0  0  0  0  0999 V2000
   12.4858    6.1724   -2.0928 O   0  0  0  0  0  0  0  0  0  0  0  0
   12.0890    7.1173   -2.7508 C   0  0  0  0  0  0  0  0  0  0  0  0
   12.0864    8.4875   -2.2447 C   0  0  0  0  0  0  0  0  0  0  0  0
   11.7983    9.5306   -3.0397 C   0  0  0  0  0  0  0  0  0  0  0  0
   11.4925    9.3264   -4.4427 C   0  0  0  0  0  0  0  0  0  0  0  0
   11.2853   10.3747   -5.3380 C   0  0  0  0  0  0  0  0  0  0  0  0
   11.1395   10.1712   -6.6484 N   0  0  0  0  0  0  0  0  0  0  0  0
   11.1281    8.9150   -7.1412 C   0  0  0  0  0  0  0  0  0  0  0  0
   11.0423    8.8992   -8.5150 O   0  0  0  0  0  0  0  0  0  0  0  0
   10.6406    7.7287   -9.2167 C   0  0  0  0  0  0  0  0  0  0  0  0
    9.2862    8.0400   -9.8726 C   0  0  0  0  0  0  0  0  0  0  0  0
    8.9598    7.1562  -11.0892 C   0  0  0  0  0  0  0  0  0  0  0  0
    8.4937    5.7342  -10.7435 C   0  0  0  0  0  0  0  0  0  0  0  0
    8.0375    5.0508  -11.9796 N   0  0  0  0  0  0  0  0  0  0  0  0
    6.7197    4.3813  -11.8534 C   0  0  0  0  0  0  0  0  0  0  0  0
    6.2463    3.8606  -13.2234 C   0  0  0  0  0  0  0  0  0  0  0  0
    7.2719    3.0252  -13.8484 N   0  0  0  0  0  0  0  0  0  0  0  0
    6.9049    1.8253  -14.5071 C   0  0  0  0  0  0  0  0  0  0  0  0
    6.0010    0.9596  -13.8443 C   0  0  0  0  0  0  0  0  0  0  0  0
    5.5786   -0.2505  -14.4210 C   0  0  0  0  0  0  0  0  0  0  0  0
    6.0537   -0.6217  -15.6867 C   0  0  0  0  0  0  0  0  0  0  0  0
    6.9585    0.2115  -16.3669 C   0  0  0  0  0  0  0  0  0  0  0  0
    7.5237   -0.2783  -17.9254 Cl  0  0  0  0  0  0  0  0  0  0  0  0
    7.3937    1.4289  -15.7897 C   0  0  0  0  0  0  0  0  0  0  0  0
    8.4860    2.4062  -16.7183 Cl  0  0  0  0  0  0  0  0  0  0  0  0
    8.6304    3.5590  -13.9090 C   0  0  0  0  0  0  0  0  0  0  0  0
    9.0737    4.1628  -12.5639 C   0  0  0  0  0  0  0  0  0  0  0  0
   11.2634    7.7804   -6.3056 C   0  0  0  0  0  0  0  0  0  0  0  0
   11.4607    8.0092   -4.9314 C   0  0  0  0  0  0  0  0  0  0  0  0
   11.6905    6.9483   -4.0283 N   0  0  0  0  0  0  0  0  0  0  0  0
   12.3191    8.6645   -1.2053 H   0  0  0  0  0  0  0  0  0  0  0  0
   11.8023   10.5390   -2.6515 H   0  0  0  0  0  0  0  0  0  0  0  0
   11.2854   11.4052   -5.0200 H   0  0  0  0  0  0  0  0  0  0  0  0
   10.5720    6.8137   -8.6284 H   0  0  0  0  0  0  0  0  0  0  0  0
   11.3945    7.5478   -9.9848 H   0  0  0  0  0  0  0  0  0  0  0  0
    9.3060    9.0734  -10.2198 H   0  0  0  0  0  0  0  0  0  0  0  0
    8.4876    7.9916   -9.1289 H   0  0  0  0  0  0  0  0  0  0  0  0
    9.8209    7.1218  -11.7602 H   0  0  0  0  0  0  0  0  0  0  0  0
    8.1642    7.6467  -11.6552 H   0  0  0  0  0  0  0  0  0  0  0  0
    7.6852    5.7727  -10.0141 H   0  0  0  0  0  0  0  0  0  0  0  0
    9.2915    5.1687  -10.2591 H   0  0  0  0  0  0  0  0  0  0  0  0
    5.9848    5.0852  -11.4610 H   0  0  0  0  0  0  0  0  0  0  0  0
    6.7894    3.5636  -11.1352 H   0  0  0  0  0  0  0  0  0  0  0  0
    6.0481    4.7024  -13.8862 H   0  0  0  0  0  0  0  0  0  0  0  0
    5.2944    3.3428  -13.1144 H   0  0  0  0  0  0  0  0  0  0  0  0
    5.6323    1.2079  -12.8591 H   0  0  0  0  0  0  0  0  0  0  0  0
    4.8928   -0.8951  -13.8921 H   0  0  0  0  0  0  0  0  0  0  0  0
    5.7354   -1.5531  -16.1337 H   0  0  0  0  0  0  0  0  0  0  0  0
    9.3359    2.7765  -14.1891 H   0  0  0  0  0  0  0  0  0  0  0  0
    8.6660    4.3256  -14.6827 H   0  0  0  0  0  0  0  0  0  0  0  0
   10.0015    4.7169  -12.7044 H   0  0  0  0  0  0  0  0  0  0  0  0
    9.2976    3.3723  -11.8505 H   0  0  0  0  0  0  0  0  0  0  0  0
   11.2815    6.7698   -6.6811 H   0  0  0  0  0  0  0  0  0  0  0  0
   11.6641    6.0063   -4.3899 H   0  0  0  0  0  0  0  0  0  0  0  0
    7.8840    5.7893  -12.6484 H   0  0  0  0  0  0  0  0  0  0  0  0
  2  1  2  0
  3  2  1  0
  4  3  2  0
  5  4  1  0
  6  5  2  0
  7  6  1  0
  8  7  2  0
  9  8  1  0
 10  9  1  0
 11 10  1  0
 12 11  1  0
 13 12  1  0
 14 13  1  0
 15 14  1  0
 16 15  1  0
 17 16  1  0
 18 17  1  0
 19 18  2  0
 20 19  1  0
 21 20  2  0
 22 21  1  0
 23 22  1  0
 24 18  1  0
 24 22  2  0
 25 24  1  0
 26 17  1  0
 27 14  1  0
 27 26  1  0
 28  8  1  0
 29  5  1  0
 29 28  2  0
 30  2  1  0
 30 29  1  0
 31  3  1  0
 32  4  1  0
 33  6  1  0
 34 10  1  0
 35 10  1  0
 36 11  1  0
 37 11  1  0
 38 12  1  0
 39 12  1  0
 40 13  1  0
 41 13  1  0
 42 15  1  0
 43 15  1  0
 44 16  1  0
 45 16  1  0
 46 19  1  0
 47 20  1  0
 48 21  1  0
 49 26  1  0
 50 26  1  0
 51 27  1  0
 52 27  1  0
 53 28  1  0
 54 30  1  0
 55 14  1  0
M  CHG  1  14   1
M  END
>  <b_m_subgroup_collapsed>  (923) 
0

>  <r_i_docking_score>  (923) 
-7.12725407307481

>  <s_m_subgroup_title>  (923) 
glide-dock_SP_D22_pv

>  <s_m_subgroupid>  (923) 
glide-dock_SP_D22_pv

>  <Molecule ChEMBL ID>  (923) 
CHEMBL1774065

>  <Standard Type>  (923) 
Ki

>  <Standard Value>  (923) 
2.0

>  <label>  (923) 
1

$$$$
CHEMBL88365
     RDKit          3D

 41 43  0  0  1  0  0  0  0  0999 V2000
    6.1150    4.0320  -11.8469 O   0  0  0  0  0  0  0  0  0  0  0  0
    7.3415    4.5798  -12.0926 C   0  0  0  0  0  0  0  0  0  0  0  0
    7.8675    4.6213  -13.3966 C   0  0  0  0  0  0  0  0  0  0  0  0
    9.1249    5.2164  -13.6213 C   0  0  0  0  0  0  0  0  0  0  0  0
    9.8567    5.7662  -12.5476 C   0  0  0  0  0  0  0  0  0  0  0  0
    9.3474    5.7064  -11.2291 C   0  0  0  0  0  0  0  0  0  0  0  0
   10.0857    6.1923  -10.1296 N   0  0  0  0  0  0  0  0  0  0  0  0
   10.8193    7.4531  -10.2247 C   0  0  0  0  0  0  0  0  0  0  0  0
   10.3550    8.4487   -9.1389 C   0  0  0  0  0  0  0  0  0  0  0  0
   10.2870    7.7951   -7.8037 N   0  0  0  0  0  0  0  0  0  0  0  0
   10.0150    8.7247   -6.6837 C   0  0  0  0  0  0  0  0  0  0  0  0
   10.8863    8.4728   -5.4540 C   0  0  0  0  0  0  0  0  0  0  0  0
   11.2866    9.5734   -4.6638 C   0  0  0  0  0  0  0  0  0  0  0  0
   12.0123    9.3736   -3.4724 C   0  0  0  0  0  0  0  0  0  0  0  0
   12.3483    8.0739   -3.0568 C   0  0  0  0  0  0  0  0  0  0  0  0
   11.9755    6.9729   -3.8467 C   0  0  0  0  0  0  0  0  0  0  0  0
   11.2610    7.1688   -5.0448 C   0  0  0  0  0  0  0  0  0  0  0  0
    9.3638    6.6335   -7.8310 C   0  0  0  0  0  0  0  0  0  0  0  0
    9.9143    5.5952   -8.8052 C   0  0  0  0  0  0  0  0  0  0  0  0
    8.0865    5.1146  -11.0272 C   0  0  0  0  0  0  0  0  0  0  0  0
    5.8454    4.1724  -10.9419 H   0  0  0  0  0  0  0  0  0  0  0  0
    7.3065    4.2086  -14.2222 H   0  0  0  0  0  0  0  0  0  0  0  0
    9.5298    5.2517  -14.6225 H   0  0  0  0  0  0  0  0  0  0  0  0
   10.8265    6.2010  -12.7430 H   0  0  0  0  0  0  0  0  0  0  0  0
   11.8835    7.2436  -10.1047 H   0  0  0  0  0  0  0  0  0  0  0  0
   10.6999    7.9113  -11.2079 H   0  0  0  0  0  0  0  0  0  0  0  0
   11.0412    9.2959   -9.1123 H   0  0  0  0  0  0  0  0  0  0  0  0
    9.3705    8.8444   -9.3951 H   0  0  0  0  0  0  0  0  0  0  0  0
   10.1965    9.7479   -7.0111 H   0  0  0  0  0  0  0  0  0  0  0  0
    8.9617    8.6848   -6.3973 H   0  0  0  0  0  0  0  0  0  0  0  0
   11.0092   10.5781   -4.9487 H   0  0  0  0  0  0  0  0  0  0  0  0
   12.2964   10.2196   -2.8630 H   0  0  0  0  0  0  0  0  0  0  0  0
   12.8849    7.9266   -2.1320 H   0  0  0  0  0  0  0  0  0  0  0  0
   12.2306    5.9735   -3.5249 H   0  0  0  0  0  0  0  0  0  0  0  0
   10.9850    6.2952   -5.6140 H   0  0  0  0  0  0  0  0  0  0  0  0
    9.2439    6.1842   -6.8455 H   0  0  0  0  0  0  0  0  0  0  0  0
    8.3703    6.9565   -8.1444 H   0  0  0  0  0  0  0  0  0  0  0  0
    9.3019    4.6964   -8.8124 H   0  0  0  0  0  0  0  0  0  0  0  0
   10.8859    5.2585   -8.4527 H   0  0  0  0  0  0  0  0  0  0  0  0
    7.6857    5.0786  -10.0300 H   0  0  0  0  0  0  0  0  0  0  0  0
   11.2105    7.4271   -7.6330 H   0  0  0  0  0  0  0  0  0  0  0  0
  2  1  1  0
  3  2  1  0
  4  3  2  0
  5  4  1  0
  6  5  2  0
  7  6  1  0
  8  7  1  0
  9  8  1  0
 10  9  1  0
 11 10  1  0
 12 11  1  0
 13 12  2  0
 14 13  1  0
 15 14  2  0
 16 15  1  0
 17 12  1  0
 17 16  2  0
 18 10  1  0
 19  7  1  0
 19 18  1  0
 20  2  2  0
 20  6  1  0
 21  1  1  0
 22  3  1  0
 23  4  1  0
 24  5  1  0
 25  8  1  0
 26  8  1  0
 27  9  1  0
 28  9  1  0
 29 11  1  0
 30 11  1  0
 31 13  1  0
 32 14  1  0
 33 15  1  0
 34 16  1  0
 35 17  1  0
 36 18  1  0
 37 18  1  0
 38 19  1  0
 39 19  1  0
 40 20  1  0
 41 10  1  0
M  CHG  1  10   1
M  END
>  <b_m_subgroup_collapsed>  (924) 
0

>  <r_i_docking_score>  (924) 
-7.1264173737139496

>  <s_m_subgroup_title>  (924) 
glide-dock_SP_D22_pv

>  <s_m_subgroupid>  (924) 
glide-dock_SP_D22_pv

>  <Molecule ChEMBL ID>  (924) 
CHEMBL88365

>  <Standard Type>  (924) 
Ki

>  <Standard Value>  (924) 
4.6

>  <label>  (924) 
1

$$$$
CHEMBL127080
     RDKit          3D

 70 73  0  0  1  0  0  0  0  0999 V2000
   11.8089   11.1065   -6.2470 C   0  0  0  0  0  0  0  0  0  0  0  0
   11.4801    9.7805   -6.5686 O   0  0  0  0  0  0  0  0  0  0  0  0
   11.5848    8.8742   -5.5417 C   0  0  0  0  0  0  0  0  0  0  0  0
   12.3852    9.1041   -4.3889 C   0  0  0  0  0  0  0  0  0  0  0  0
   12.4860    8.1399   -3.3717 C   0  0  0  0  0  0  0  0  0  0  0  0
   11.8127    6.9204   -3.5111 C   0  0  0  0  0  0  0  0  0  0  0  0
   11.0346    6.6860   -4.6579 C   0  0  0  0  0  0  0  0  0  0  0  0
   10.8859    7.6523   -5.6755 C   0  0  0  0  0  0  0  0  0  0  0  0
   10.0497    7.3950   -6.7859 N   0  0  0  0  0  0  0  0  0  0  0  0
    9.0946    8.3687   -7.3023 C   0  0  0  0  0  0  0  0  0  0  0  0
    9.2860    8.5530   -8.8218 C   0  0  0  0  0  0  0  0  0  0  0  0
    9.2860    7.2541   -9.5536 N   0  0  0  0  0  0  0  0  0  0  0  0
    9.5439    7.4108  -11.0125 C   0  0  0  0  0  0  0  0  0  0  0  0
    8.5445    6.6599  -11.9147 C   0  0  0  0  0  0  0  0  0  0  0  0
    8.2591    5.1934  -11.5440 C   0  0  0  0  0  0  0  0  0  0  0  0
    7.4730    4.4461  -12.6313 C   0  0  0  0  0  0  0  0  0  0  0  0
    8.3737    4.0300  -13.7013 N   0  0  0  0  0  0  0  0  0  0  0  0
    8.2821    2.8857  -14.4002 C   0  0  0  0  0  0  0  0  0  0  0  0
    7.3228    2.1250  -14.2611 O   0  0  0  0  0  0  0  0  0  0  0  0
    9.4296    2.5355  -15.3967 C   0  0  0  0  0  0  0  0  0  0  0  0
   10.3669    3.7464  -15.5857 C   0  0  0  0  0  0  0  0  0  0  0  0
   10.1554    4.6705  -16.6364 C   0  0  0  0  0  0  0  0  0  0  0  0
   11.0151    5.7724  -16.8039 C   0  0  0  0  0  0  0  0  0  0  0  0
   12.0806    5.9825  -15.9092 C   0  0  0  0  0  0  0  0  0  0  0  0
   13.1107    7.3534  -16.1005 Cl  0  0  0  0  0  0  0  0  0  0  0  0
   12.2935    5.0808  -14.8519 C   0  0  0  0  0  0  0  0  0  0  0  0
   11.4430    3.9703  -14.6908 C   0  0  0  0  0  0  0  0  0  0  0  0
   10.2023    1.2853  -14.9187 C   0  0  0  0  0  0  0  0  0  0  0  0
    9.3935    0.0604  -15.3535 C   0  0  0  0  0  0  0  0  0  0  0  0
    8.5966    0.5052  -16.5836 C   0  0  0  0  0  0  0  0  0  0  0  0
    8.8538    2.0128  -16.7387 C   0  0  0  0  0  0  0  0  0  0  0  0
   10.2135    6.2561   -8.9449 C   0  0  0  0  0  0  0  0  0  0  0  0
   10.0305    6.0963   -7.4303 C   0  0  0  0  0  0  0  0  0  0  0  0
   11.5214   11.7723   -7.0469 H   0  0  0  0  0  0  0  0  0  0  0  0
   11.2900   11.4171   -5.3378 H   0  0  0  0  0  0  0  0  0  0  0  0
   12.8856   11.1963   -6.1715 H   0  0  0  0  0  0  0  0  0  0  0  0
   12.9553   10.0095   -4.2636 H   0  0  0  0  0  0  0  0  0  0  0  0
   13.0892    8.3338   -2.4961 H   0  0  0  0  0  0  0  0  0  0  0  0
   11.8812    6.1680   -2.7386 H   0  0  0  0  0  0  0  0  0  0  0  0
   10.4862    5.7723   -4.7275 H   0  0  0  0  0  0  0  0  0  0  0  0
    8.0869    8.0042   -7.0945 H   0  0  0  0  0  0  0  0  0  0  0  0
    9.1786    9.3231   -6.7893 H   0  0  0  0  0  0  0  0  0  0  0  0
    8.4896    9.1889   -9.2132 H   0  0  0  0  0  0  0  0  0  0  0  0
   10.2287    9.0694   -9.0050 H   0  0  0  0  0  0  0  0  0  0  0  0
    9.5055    8.4662  -11.2883 H   0  0  0  0  0  0  0  0  0  0  0  0
   10.5594    7.0914  -11.2539 H   0  0  0  0  0  0  0  0  0  0  0  0
    7.6039    7.2062  -11.9431 H   0  0  0  0  0  0  0  0  0  0  0  0
    8.9235    6.6946  -12.9360 H   0  0  0  0  0  0  0  0  0  0  0  0
    9.1880    4.6568  -11.3513 H   0  0  0  0  0  0  0  0  0  0  0  0
    7.6867    5.1693  -10.6161 H   0  0  0  0  0  0  0  0  0  0  0  0
    6.9831    3.5808  -12.1827 H   0  0  0  0  0  0  0  0  0  0  0  0
    6.6778    5.0721  -13.0383 H   0  0  0  0  0  0  0  0  0  0  0  0
    9.1735    4.6162  -13.8887 H   0  0  0  0  0  0  0  0  0  0  0  0
    9.3323    4.5479  -17.3255 H   0  0  0  0  0  0  0  0  0  0  0  0
   10.8456    6.4693  -17.6113 H   0  0  0  0  0  0  0  0  0  0  0  0
   13.1094    5.2417  -14.1636 H   0  0  0  0  0  0  0  0  0  0  0  0
   11.6224    3.2947  -13.8673 H   0  0  0  0  0  0  0  0  0  0  0  0
   11.1724    1.2421  -15.4168 H   0  0  0  0  0  0  0  0  0  0  0  0
   10.3976    1.2894  -13.8469 H   0  0  0  0  0  0  0  0  0  0  0  0
   10.0323   -0.7989  -15.5590 H   0  0  0  0  0  0  0  0  0  0  0  0
    8.7045   -0.2276  -14.5593 H   0  0  0  0  0  0  0  0  0  0  0  0
    8.9016   -0.0395  -17.4782 H   0  0  0  0  0  0  0  0  0  0  0  0
    7.5344    0.3070  -16.4303 H   0  0  0  0  0  0  0  0  0  0  0  0
    7.9615    2.5524  -17.0607 H   0  0  0  0  0  0  0  0  0  0  0  0
    9.5957    2.1336  -17.5282 H   0  0  0  0  0  0  0  0  0  0  0  0
   10.0947    5.2845   -9.4186 H   0  0  0  0  0  0  0  0  0  0  0  0
   11.2404    6.5737   -9.1318 H   0  0  0  0  0  0  0  0  0  0  0  0
   10.8297    5.4637   -7.0472 H   0  0  0  0  0  0  0  0  0  0  0  0
    9.0795    5.6079   -7.2122 H   0  0  0  0  0  0  0  0  0  0  0  0
    8.3334    6.9166   -9.4616 H   0  0  0  0  0  0  0  0  0  0  0  0
  2  1  1  0
  3  2  1  0
  4  3  2  0
  5  4  1  0
  6  5  2  0
  7  6  1  0
  8  3  1  0
  8  7  2  0
  9  8  1  0
 10  9  1  0
 11 10  1  0
 12 11  1  0
 13 12  1  0
 14 13  1  0
 15 14  1  0
 16 15  1  0
 17 16  1  0
 18 17  1  0
 19 18  2  0
 20 18  1  0
 21 20  1  0
 22 21  1  0
 23 22  2  0
 24 23  1  0
 25 24  1  0
 26 24  2  0
 27 21  2  0
 27 26  1  0
 28 20  1  0
 29 28  1  0
 30 29  1  0
 31 20  1  0
 31 30  1  0
 32 12  1  0
 33  9  1  0
 33 32  1  0
 34  1  1  0
 35  1  1  0
 36  1  1  0
 37  4  1  0
 38  5  1  0
 39  6  1  0
 40  7  1  0
 41 10  1  0
 42 10  1  0
 43 11  1  0
 44 11  1  0
 45 13  1  0
 46 13  1  0
 47 14  1  0
 48 14  1  0
 49 15  1  0
 50 15  1  0
 51 16  1  0
 52 16  1  0
 53 17  1  0
 54 22  1  0
 55 23  1  0
 56 26  1  0
 57 27  1  0
 58 28  1  0
 59 28  1  0
 60 29  1  0
 61 29  1  0
 62 30  1  0
 63 30  1  0
 64 31  1  0
 65 31  1  0
 66 32  1  0
 67 32  1  0
 68 33  1  0
 69 33  1  0
 70 12  1  0
M  CHG  1  12   1
M  END
>  <b_m_subgroup_collapsed>  (925) 
0

>  <r_i_docking_score>  (925) 
-7.1227197766819597

>  <s_m_subgroup_title>  (925) 
glide-dock_SP_D22_pv

>  <s_m_subgroupid>  (925) 
glide-dock_SP_D22_pv

>  <Molecule ChEMBL ID>  (925) 
CHEMBL127080

>  <Standard Type>  (925) 
Ki

>  <Standard Value>  (925) 
56.0

>  <label>  (925) 
1

$$$$
CHEMBL3577344
     RDKit          3D

 95 98  0  0  1  0  0  0  0  0999 V2000
   12.5138    8.5972   -1.8482 C   0  0  0  0  0  0  0  0  0  0  0  0
   12.0662    7.4963   -2.8151 C   0  0  0  0  0  0  0  0  0  0  0  0
   11.6219    8.0716   -4.1663 C   0  0  0  0  0  0  0  0  0  0  0  0
   11.0343    7.0060   -5.1146 C   0  0  0  0  0  0  0  0  0  0  0  0
   10.8038    7.5111   -6.4589 N   0  0  0  0  0  0  0  0  0  0  0  0
   10.9687    6.8357   -7.6458 C   0  0  0  0  0  0  0  0  0  0  0  0
   10.7070    7.7791   -8.5968 C   0  0  0  0  0  0  0  0  0  0  0  0
   10.8336    7.6642  -10.0881 C   0  0  0  0  0  0  0  0  0  0  0  0
    9.5574    7.1979  -10.8074 C   0  0  0  0  0  0  0  0  0  0  0  0
    8.9343    5.9168  -10.2220 C   0  0  0  0  0  0  0  0  0  0  0  0
    7.9604    5.3735  -11.1073 O   0  0  0  0  0  0  0  0  0  0  0  0
    8.3478    4.5799  -12.1671 C   0  0  0  0  0  0  0  0  0  0  0  0
    9.6784    4.1724  -12.4138 C   0  0  0  0  0  0  0  0  0  0  0  0
    9.9788    3.2968  -13.4699 C   0  0  0  0  0  0  0  0  0  0  0  0
    8.9732    2.8619  -14.3534 C   0  0  0  0  0  0  0  0  0  0  0  0
    9.2837    1.9215  -15.4841 C   0  0  0  0  0  0  0  0  0  0  0  0
    8.4210    1.1682  -15.9335 O   0  0  0  0  0  0  0  0  0  0  0  0
   10.5234    2.0084  -15.9957 N   0  0  0  0  0  0  0  0  0  0  0  0
   11.0391    1.1943  -17.0938 C   0  0  0  0  0  0  0  0  0  0  0  0
   10.4853    1.6256  -18.4671 C   0  0  0  0  0  0  0  0  0  0  0  0
   10.8659    3.0600  -18.8691 C   0  0  0  0  0  0  0  0  0  0  0  0
   10.2348    3.4955  -20.2072 C   0  0  0  0  0  0  0  0  0  0  0  0
   10.7099    4.8397  -20.6306 N   0  0  1  0  0  0  0  0  0  0  0  0
   10.8557    5.0161  -22.1059 C   0  0  0  0  0  0  0  0  0  0  0  0
    9.5713    5.3677  -22.8937 C   0  0  0  0  0  0  0  0  0  0  0  0
    8.4498    4.3188  -22.8372 C   0  0  0  0  0  0  0  0  0  0  0  0
   10.0574    5.9682  -19.9107 C   0  0  0  0  0  0  0  0  0  0  0  0
   11.0309    7.1440  -19.6833 C   0  0  0  0  0  0  0  0  0  0  0  0
   12.3521    6.7184  -19.0489 C   0  0  0  0  0  0  0  0  0  0  0  0
   13.5298    6.7566  -19.8289 C   0  0  0  0  0  0  0  0  0  0  0  0
   14.7617    6.3246  -19.2973 C   0  0  0  0  0  0  0  0  0  0  0  0
   14.8359    5.8454  -17.9759 C   0  0  0  0  0  0  0  0  0  0  0  0
   16.0248    5.3761  -17.4888 O   0  0  0  0  0  0  0  0  0  0  0  0
   13.6700    5.8354  -17.1831 C   0  0  0  0  0  0  0  0  0  0  0  0
   13.7194    5.3704  -15.8465 N   0  0  0  0  0  0  0  0  0  0  0  0
   12.6586    5.1682  -15.0453 C   0  0  0  0  0  0  0  0  0  0  0  0
   12.7873    4.5732  -13.9803 O   0  0  0  0  0  0  0  0  0  0  0  0
   11.3852    5.6585  -15.5616 C   0  0  0  0  0  0  0  0  0  0  0  0
   11.2833    6.1724  -16.8003 C   0  0  0  0  0  0  0  0  0  0  0  0
   12.4335    6.2657  -17.7083 C   0  0  0  0  0  0  0  0  0  0  0  0
    7.6462    3.2745  -14.1172 C   0  0  0  0  0  0  0  0  0  0  0  0
    7.3235    4.1130  -13.0171 C   0  0  0  0  0  0  0  0  0  0  0  0
    6.0372    4.4814  -12.6915 O   0  0  0  0  0  0  0  0  0  0  0  0
    4.9948    3.9052  -13.4468 C   0  0  0  0  0  0  0  0  0  0  0  0
   10.3126    8.9549   -7.9586 N   0  0  0  0  0  0  0  0  0  0  0  0
   10.3572    8.7745   -6.6748 N   0  0  0  0  0  0  0  0  0  0  0  0
   12.9130    8.1726   -0.9295 H   0  0  0  0  0  0  0  0  0  0  0  0
   13.2863    9.2220   -2.2915 H   0  0  0  0  0  0  0  0  0  0  0  0
   11.6863    9.2515   -1.5819 H   0  0  0  0  0  0  0  0  0  0  0  0
   11.2557    6.9249   -2.3622 H   0  0  0  0  0  0  0  0  0  0  0  0
   12.8857    6.7940   -2.9707 H   0  0  0  0  0  0  0  0  0  0  0  0
   12.4791    8.5496   -4.6421 H   0  0  0  0  0  0  0  0  0  0  0  0
   10.8875    8.8615   -3.9991 H   0  0  0  0  0  0  0  0  0  0  0  0
   10.1029    6.5872   -4.7321 H   0  0  0  0  0  0  0  0  0  0  0  0
   11.7321    6.1720   -5.1908 H   0  0  0  0  0  0  0  0  0  0  0  0
   11.2859    5.8066   -7.7088 H   0  0  0  0  0  0  0  0  0  0  0  0
   11.6420    6.9726  -10.3263 H   0  0  0  0  0  0  0  0  0  0  0  0
   11.1443    8.6222  -10.5083 H   0  0  0  0  0  0  0  0  0  0  0  0
    9.7905    7.0515  -11.8617 H   0  0  0  0  0  0  0  0  0  0  0  0
    8.8117    7.9925  -10.7742 H   0  0  0  0  0  0  0  0  0  0  0  0
    8.4169    6.1671   -9.2948 H   0  0  0  0  0  0  0  0  0  0  0  0
    9.6830    5.1763   -9.9405 H   0  0  0  0  0  0  0  0  0  0  0  0
   10.4860    4.4931  -11.7843 H   0  0  0  0  0  0  0  0  0  0  0  0
   10.9905    2.9477  -13.5852 H   0  0  0  0  0  0  0  0  0  0  0  0
   11.1597    2.6683  -15.5723 H   0  0  0  0  0  0  0  0  0  0  0  0
   10.8036    0.1439  -16.9091 H   0  0  0  0  0  0  0  0  0  0  0  0
   12.1283    1.2639  -17.0918 H   0  0  0  0  0  0  0  0  0  0  0  0
    9.4002    1.5175  -18.4708 H   0  0  0  0  0  0  0  0  0  0  0  0
   10.8536    0.9339  -19.2265 H   0  0  0  0  0  0  0  0  0  0  0  0
   11.9517    3.1340  -18.9313 H   0  0  0  0  0  0  0  0  0  0  0  0
   10.5603    3.7416  -18.0758 H   0  0  0  0  0  0  0  0  0  0  0  0
    9.1481    3.4818  -20.1304 H   0  0  0  0  0  0  0  0  0  0  0  0
   10.4980    2.7564  -20.9632 H   0  0  0  0  0  0  0  0  0  0  0  0
   11.5748    5.8203  -22.2648 H   0  0  0  0  0  0  0  0  0  0  0  0
   11.3222    4.1290  -22.5380 H   0  0  0  0  0  0  0  0  0  0  0  0
    9.1817    6.3443  -22.6020 H   0  0  0  0  0  0  0  0  0  0  0  0
    9.8555    5.4855  -23.9414 H   0  0  0  0  0  0  0  0  0  0  0  0
    7.6714    4.5501  -23.5669 H   0  0  0  0  0  0  0  0  0  0  0  0
    8.8252    3.3175  -23.0582 H   0  0  0  0  0  0  0  0  0  0  0  0
    7.9646    4.3005  -21.8591 H   0  0  0  0  0  0  0  0  0  0  0  0
    9.6968    5.6120  -18.9484 H   0  0  0  0  0  0  0  0  0  0  0  0
    9.1564    6.3049  -20.4194 H   0  0  0  0  0  0  0  0  0  0  0  0
   10.5610    7.8974  -19.0482 H   0  0  0  0  0  0  0  0  0  0  0  0
   11.2291    7.6455  -20.6312 H   0  0  0  0  0  0  0  0  0  0  0  0
   13.4949    7.1104  -20.8487 H   0  0  0  0  0  0  0  0  0  0  0  0
   15.6489    6.3485  -19.9144 H   0  0  0  0  0  0  0  0  0  0  0  0
   15.9399    4.8192  -16.7285 H   0  0  0  0  0  0  0  0  0  0  0  0
   14.6166    5.0999  -15.4803 H   0  0  0  0  0  0  0  0  0  0  0  0
   10.5136    5.6371  -14.9242 H   0  0  0  0  0  0  0  0  0  0  0  0
   10.3378    6.5714  -17.1232 H   0  0  0  0  0  0  0  0  0  0  0  0
    6.8799    2.9097  -14.7833 H   0  0  0  0  0  0  0  0  0  0  0  0
    4.0240    4.1721  -13.0471 H   0  0  0  0  0  0  0  0  0  0  0  0
    5.0500    4.2861  -14.4645 H   0  0  0  0  0  0  0  0  0  0  0  0
    5.0430    2.8157  -13.4467 H   0  0  0  0  0  0  0  0  0  0  0  0
   11.6644    4.8570  -20.2971 H   0  0  0  0  0  0  0  0  0  0  0  0
  2  1  1  0
  3  2  1  0
  4  3  1  0
  5  4  1  0
  6  5  1  0
  7  6  2  0
  8  7  1  0
  9  8  1  0
 10  9  1  0
 11 10  1  0
 12 11  1  0
 13 12  1  0
 14 13  2  0
 15 14  1  0
 16 15  1  0
 17 16  2  0
 18 16  1  0
 19 18  1  0
 20 19  1  0
 21 20  1  0
 22 21  1  0
 23 22  1  0
 24 23  1  0
 25 24  1  0
 26 25  1  0
 27 23  1  0
 28 27  1  0
 29 28  1  0
 30 29  1  0
 31 30  2  0
 32 31  1  0
 33 32  1  0
 34 32  2  0
 35 34  1  0
 36 35  1  0
 37 36  2  0
 38 36  1  0
 39 38  2  0
 40 29  2  0
 40 34  1  0
 40 39  1  0
 41 15  2  0
 42 12  2  0
 42 41  1  0
 43 42  1  0
 44 43  1  0
 45  7  1  0
 46  5  1  0
 46 45  2  0
 47  1  1  0
 48  1  1  0
 49  1  1  0
 50  2  1  0
 51  2  1  0
 52  3  1  0
 53  3  1  0
 54  4  1  0
 55  4  1  0
 56  6  1  0
 57  8  1  0
 58  8  1  0
 59  9  1  0
 60  9  1  0
 61 10  1  0
 62 10  1  0
 63 13  1  0
 64 14  1  0
 65 18  1  0
 66 19  1  0
 67 19  1  0
 68 20  1  0
 69 20  1  0
 70 21  1  0
 71 21  1  0
 72 22  1  0
 73 22  1  0
 74 24  1  0
 75 24  1  0
 76 25  1  0
 77 25  1  0
 78 26  1  0
 79 26  1  0
 80 26  1  0
 81 27  1  0
 82 27  1  0
 83 28  1  0
 84 28  1  0
 85 30  1  0
 86 31  1  0
 87 33  1  0
 88 35  1  0
 89 38  1  0
 90 39  1  0
 91 41  1  0
 92 44  1  0
 93 44  1  0
 94 44  1  0
 23 95  1  1
M  CHG  1  23   1
M  END
>  <b_m_subgroup_collapsed>  (926) 
0

>  <r_i_docking_score>  (926) 
-7.1216407764450498

>  <s_m_subgroup_title>  (926) 
glide-dock_SP_D22_pv

>  <s_m_subgroupid>  (926) 
glide-dock_SP_D22_pv

>  <Molecule ChEMBL ID>  (926) 
CHEMBL3577344

>  <Standard Type>  (926) 
Ki

>  <Standard Value>  (926) 
24.0

>  <label>  (926) 
1

$$$$
CHEMBL2420776
     RDKit          3D

 37 39  0  0  1  0  0  0  0  0999 V2000
   12.4526    8.6866   -2.4974 Cl  0  0  0  0  0  0  0  0  0  0  0  0
   11.7657    8.3681   -4.0480 C   0  0  0  0  0  0  0  0  0  0  0  0
   11.6860    7.0490   -4.5248 C   0  0  0  0  0  0  0  0  0  0  0  0
   11.1486    6.7907   -5.8005 C   0  0  0  0  0  0  0  0  0  0  0  0
   10.6504    7.8303   -6.6197 C   0  0  0  0  0  0  0  0  0  0  0  0
   10.1215    7.5408   -7.9033 N   0  0  0  0  0  0  0  0  0  0  0  0
    9.2552    6.3691   -8.0699 C   0  0  0  0  0  0  0  0  0  0  0  0
    9.2010    5.9009   -9.5436 C   0  0  0  0  0  0  0  0  0  0  0  0
    8.8860    7.0171  -10.4751 N   0  0  0  0  0  0  0  0  0  0  0  0
    8.9048    6.6475  -11.9151 C   0  0  0  0  0  0  0  0  0  0  0  0
    7.9405    5.5901  -12.3495 C   0  0  0  0  0  0  0  0  0  0  0  0
    6.5695    5.5998  -12.2843 C   0  0  0  0  0  0  0  0  0  0  0  0
    5.9684    4.4611  -12.8975 C   0  0  0  0  0  0  0  0  0  0  0  0
    6.8865    3.6078  -13.4469 C   0  0  0  0  0  0  0  0  0  0  0  0
    8.5145    4.1725  -13.1895 S   0  0  0  0  0  0  0  0  0  0  0  0
    9.7627    8.1927  -10.2537 C   0  0  0  0  0  0  0  0  0  0  0  0
    9.7924    8.6479   -8.7921 C   0  0  0  0  0  0  0  0  0  0  0  0
   10.7371    9.1551   -6.1158 C   0  0  0  0  0  0  0  0  0  0  0  0
   11.2864    9.4219   -4.8456 C   0  0  0  0  0  0  0  0  0  0  0  0
   12.0561    6.2319   -3.9226 H   0  0  0  0  0  0  0  0  0  0  0  0
   11.1532    5.7724   -6.1479 H   0  0  0  0  0  0  0  0  0  0  0  0
    8.2523    6.6353   -7.7328 H   0  0  0  0  0  0  0  0  0  0  0  0
    9.5645    5.5291   -7.4523 H   0  0  0  0  0  0  0  0  0  0  0  0
    8.4533    5.1137   -9.6478 H   0  0  0  0  0  0  0  0  0  0  0  0
   10.1602    5.4636   -9.8204 H   0  0  0  0  0  0  0  0  0  0  0  0
    9.9183    6.3482  -12.1875 H   0  0  0  0  0  0  0  0  0  0  0  0
    8.6915    7.5425  -12.5012 H   0  0  0  0  0  0  0  0  0  0  0  0
    5.9749    6.3880  -11.8467 H   0  0  0  0  0  0  0  0  0  0  0  0
    4.8982    4.3185  -12.9296 H   0  0  0  0  0  0  0  0  0  0  0  0
    6.7092    2.6820  -13.9747 H   0  0  0  0  0  0  0  0  0  0  0  0
   10.7780    7.9498  -10.5720 H   0  0  0  0  0  0  0  0  0  0  0  0
    9.4229    9.0164  -10.8800 H   0  0  0  0  0  0  0  0  0  0  0  0
    8.8293    9.0725   -8.5027 H   0  0  0  0  0  0  0  0  0  0  0  0
   10.5413    9.4349   -8.7162 H   0  0  0  0  0  0  0  0  0  0  0  0
   10.3821    9.9999   -6.6818 H   0  0  0  0  0  0  0  0  0  0  0  0
   11.3347   10.4381   -4.4830 H   0  0  0  0  0  0  0  0  0  0  0  0
    7.9276    7.3238  -10.2560 H   0  0  0  0  0  0  0  0  0  0  0  0
  2  1  1  0
  3  2  1  0
  4  3  2  0
  5  4  1  0
  6  5  1  0
  7  6  1  0
  8  7  1  0
  9  8  1  0
 10  9  1  0
 11 10  1  0
 12 11  2  0
 13 12  1  0
 14 13  2  0
 15 11  1  0
 15 14  1  0
 16  9  1  0
 17  6  1  0
 17 16  1  0
 18  5  2  0
 19  2  2  0
 19 18  1  0
 20  3  1  0
 21  4  1  0
 22  7  1  0
 23  7  1  0
 24  8  1  0
 25  8  1  0
 26 10  1  0
 27 10  1  0
 28 12  1  0
 29 13  1  0
 30 14  1  0
 31 16  1  0
 32 16  1  0
 33 17  1  0
 34 17  1  0
 35 18  1  0
 36 19  1  0
 37  9  1  0
M  CHG  1   9   1
M  END
>  <b_m_subgroup_collapsed>  (927) 
0

>  <r_i_docking_score>  (927) 
-7.1211475656290801

>  <s_m_subgroup_title>  (927) 
glide-dock_SP_D22_pv

>  <s_m_subgroupid>  (927) 
glide-dock_SP_D22_pv

>  <Molecule ChEMBL ID>  (927) 
CHEMBL2420776

>  <Standard Type>  (927) 
Ki

>  <Standard Value>  (927) 
10000.0

>  <label>  (927) 
0

$$$$
CHEMBL831
     RDKit          3D

 42 45  0  0  1  0  0  0  0  0999 V2000
    8.9355    7.5913   -7.3086 C   0  0  0  0  0  0  0  0  0  0  0  0
    8.8860    7.0930   -8.6992 N   0  0  0  0  0  0  0  0  0  0  0  0
    9.4333    5.7269   -8.8490 C   0  0  0  0  0  0  0  0  0  0  0  0
    9.1971    5.2066  -10.2734 C   0  0  0  0  0  0  0  0  0  0  0  0
    9.6860    6.1388  -11.2942 N   0  0  0  0  0  0  0  0  0  0  0  0
   10.0858    5.7068  -12.5594 C   0  0  0  0  0  0  0  0  0  0  0  0
   11.1713    6.1793  -13.0919 N   0  0  0  0  0  0  0  0  0  0  0  0
   11.6897    5.7914  -14.3347 C   0  0  0  0  0  0  0  0  0  0  0  0
   12.3484    6.7866  -15.0889 C   0  0  0  0  0  0  0  0  0  0  0  0
   12.9505    6.4801  -16.3235 C   0  0  0  0  0  0  0  0  0  0  0  0
   12.9149    5.1621  -16.8128 C   0  0  0  0  0  0  0  0  0  0  0  0
   12.2766    4.1563  -16.0645 C   0  0  0  0  0  0  0  0  0  0  0  0
   11.6670    4.4630  -14.8317 C   0  0  0  0  0  0  0  0  0  0  0  0
   11.0738    3.4537  -14.1292 O   0  0  0  0  0  0  0  0  0  0  0  0
    9.7280    3.5833  -13.9391 C   0  0  0  0  0  0  0  0  0  0  0  0
    8.8683    2.6009  -14.4739 C   0  0  0  0  0  0  0  0  0  0  0  0
    7.4802    2.6704  -14.2468 C   0  0  0  0  0  0  0  0  0  0  0  0
    6.9535    3.7322  -13.4868 C   0  0  0  0  0  0  0  0  0  0  0  0
    5.2861    3.7666  -13.0564 Cl  0  0  0  0  0  0  0  0  0  0  0  0
    7.8001    4.7494  -13.0195 C   0  0  0  0  0  0  0  0  0  0  0  0
    9.2003    4.6709  -13.2034 C   0  0  0  0  0  0  0  0  0  0  0  0
    9.2875    7.5355  -11.1258 C   0  0  0  0  0  0  0  0  0  0  0  0
    9.4715    8.0354   -9.6803 C   0  0  0  0  0  0  0  0  0  0  0  0
    9.9631    7.6810   -6.9554 H   0  0  0  0  0  0  0  0  0  0  0  0
    8.4563    8.5680   -7.2315 H   0  0  0  0  0  0  0  0  0  0  0  0
    8.3989    6.9126   -6.6458 H   0  0  0  0  0  0  0  0  0  0  0  0
    8.9572    5.0552   -8.1335 H   0  0  0  0  0  0  0  0  0  0  0  0
   10.5000    5.7318   -8.6223 H   0  0  0  0  0  0  0  0  0  0  0  0
    8.1271    5.0473  -10.4082 H   0  0  0  0  0  0  0  0  0  0  0  0
    9.6781    4.2332  -10.3921 H   0  0  0  0  0  0  0  0  0  0  0  0
   12.3947    7.7999  -14.7172 H   0  0  0  0  0  0  0  0  0  0  0  0
   13.4450    7.2553  -16.8903 H   0  0  0  0  0  0  0  0  0  0  0  0
   13.3815    4.9212  -17.7568 H   0  0  0  0  0  0  0  0  0  0  0  0
   12.2592    3.1415  -16.4336 H   0  0  0  0  0  0  0  0  0  0  0  0
    9.2812    1.7738  -15.0323 H   0  0  0  0  0  0  0  0  0  0  0  0
    6.8300    1.8918  -14.6177 H   0  0  0  0  0  0  0  0  0  0  0  0
    7.3608    5.5624  -12.4593 H   0  0  0  0  0  0  0  0  0  0  0  0
    9.8630    8.1770  -11.7953 H   0  0  0  0  0  0  0  0  0  0  0  0
    8.2489    7.6324  -11.4461 H   0  0  0  0  0  0  0  0  0  0  0  0
    9.0060    9.0160   -9.5742 H   0  0  0  0  0  0  0  0  0  0  0  0
   10.5342    8.1610   -9.4669 H   0  0  0  0  0  0  0  0  0  0  0  0
    7.8947    7.0416   -8.9291 H   0  0  0  0  0  0  0  0  0  0  0  0
  2  1  1  0
  3  2  1  0
  4  3  1  0
  5  4  1  0
  6  5  1  0
  7  6  2  0
  8  7  1  0
  9  8  2  0
 10  9  1  0
 11 10  2  0
 12 11  1  0
 13  8  1  0
 13 12  2  0
 14 13  1  0
 15 14  1  0
 16 15  1  0
 17 16  2  0
 18 17  1  0
 19 18  1  0
 20 18  2  0
 21  6  1  0
 21 15  2  0
 21 20  1  0
 22  5  1  0
 23  2  1  0
 23 22  1  0
 24  1  1  0
 25  1  1  0
 26  1  1  0
 27  3  1  0
 28  3  1  0
 29  4  1  0
 30  4  1  0
 31  9  1  0
 32 10  1  0
 33 11  1  0
 34 12  1  0
 35 16  1  0
 36 17  1  0
 37 20  1  0
 38 22  1  0
 39 22  1  0
 40 23  1  0
 41 23  1  0
 42  2  1  0
M  CHG  1   2   1
M  END
>  <b_m_subgroup_collapsed>  (928) 
0

>  <r_i_docking_score>  (928) 
-7.1206381886011103

>  <s_m_subgroup_title>  (928) 
glide-dock_SP_D22_pv

>  <s_m_subgroupid>  (928) 
glide-dock_SP_D22_pv

>  <Molecule ChEMBL ID>  (928) 
CHEMBL831

>  <Standard Type>  (928) 
Ki

>  <Standard Value>  (928) 
21.0

>  <label>  (928) 
1

$$$$
CHEMBL4790600
     RDKit          3D

 63 66  0  0  1  0  0  0  0  0999 V2000
   10.6514    2.2797  -14.9242 C   0  0  0  0  0  0  0  0  0  0  0  0
    9.2496    2.0331  -15.5029 C   0  0  0  0  0  0  0  0  0  0  0  0
    9.2179    2.2973  -17.0164 C   0  0  0  0  0  0  0  0  0  0  0  0
    8.7284    0.6064  -15.1613 C   0  0  0  0  0  0  0  0  0  0  0  0
    7.4770    0.9099  -14.4150 C   0  0  0  0  0  0  0  0  0  0  0  0
    6.5439    0.0077  -13.8791 C   0  0  0  0  0  0  0  0  0  0  0  0
    5.4326    0.5454  -13.1956 C   0  0  0  0  0  0  0  0  0  0  0  0
    5.2817    1.9431  -13.0492 C   0  0  0  0  0  0  0  0  0  0  0  0
    6.2261    2.8309  -13.6121 C   0  0  0  0  0  0  0  0  0  0  0  0
    6.0551    4.1876  -13.5327 O   0  0  0  0  0  0  0  0  0  0  0  0
    6.2832    4.7424  -12.2466 C   0  0  0  0  0  0  0  0  0  0  0  0
    7.7856    5.0181  -12.0974 C   0  0  0  0  0  0  0  0  0  0  0  0
    8.0861    5.7724  -10.8664 N   0  0  0  0  0  0  0  0  0  0  0  0
    9.5113    6.1425  -10.7202 C   0  0  0  0  0  0  0  0  0  0  0  0
    9.6744    7.4148   -9.8712 C   0  0  0  0  0  0  0  0  0  0  0  0
    9.0107    8.3886  -10.4961 F   0  0  0  0  0  0  0  0  0  0  0  0
   11.1340    7.8840   -9.7802 C   0  0  0  0  0  0  0  0  0  0  0  0
   11.2637    9.1624   -8.9286 C   0  0  0  0  0  0  0  0  0  0  0  0
   10.6526    8.9774   -7.6052 N   0  0  0  0  0  0  0  0  0  0  0  0
   11.1904    9.5334   -6.4975 C   0  0  0  0  0  0  0  0  0  0  0  0
   11.6863   10.6570   -6.4727 O   0  0  0  0  0  0  0  0  0  0  0  0
   11.3276    8.6529   -5.2934 C   0  0  0  0  0  0  0  0  0  0  0  0
   11.2891    7.2505   -5.4364 C   0  0  0  0  0  0  0  0  0  0  0  0
   11.6855    6.4333   -4.3753 C   0  0  0  0  0  0  0  0  0  0  0  0
   12.0745    6.9753   -3.1501 C   0  0  0  0  0  0  0  0  0  0  0  0
   12.4882    6.1719   -2.1471 F   0  0  0  0  0  0  0  0  0  0  0  0
   12.0469    8.3591   -2.9761 C   0  0  0  0  0  0  0  0  0  0  0  0
   12.4866    8.9723   -1.4469 Cl  0  0  0  0  0  0  0  0  0  0  0  0
   11.6794    9.2070   -4.0390 C   0  0  0  0  0  0  0  0  0  0  0  0
    9.2619    8.5091   -7.6135 C   0  0  0  0  0  0  0  0  0  0  0  0
    9.1257    7.2259   -8.4463 C   0  0  0  0  0  0  0  0  0  0  0  0
    7.3270    2.2807  -14.2974 C   0  0  0  0  0  0  0  0  0  0  0  0
    8.3479    2.9723  -14.8858 O   0  0  0  0  0  0  0  0  0  0  0  0
   11.3812    1.5964  -15.3584 H   0  0  0  0  0  0  0  0  0  0  0  0
   10.9879    3.2972  -15.1232 H   0  0  0  0  0  0  0  0  0  0  0  0
   10.6615    2.1379  -13.8436 H   0  0  0  0  0  0  0  0  0  0  0  0
    9.8835    1.6191  -17.5509 H   0  0  0  0  0  0  0  0  0  0  0  0
    8.2132    2.1641  -17.4184 H   0  0  0  0  0  0  0  0  0  0  0  0
    9.5303    3.3166  -17.2431 H   0  0  0  0  0  0  0  0  0  0  0  0
    9.4147    0.0512  -14.5208 H   0  0  0  0  0  0  0  0  0  0  0  0
    8.5131    0.0049  -16.0456 H   0  0  0  0  0  0  0  0  0  0  0  0
    6.6714   -1.0600  -13.9911 H   0  0  0  0  0  0  0  0  0  0  0  0
    4.6850   -0.1152  -12.7914 H   0  0  0  0  0  0  0  0  0  0  0  0
    4.4131    2.3328  -12.5402 H   0  0  0  0  0  0  0  0  0  0  0  0
    5.7210    5.6753  -12.1771 H   0  0  0  0  0  0  0  0  0  0  0  0
    5.9174    4.0939  -11.4486 H   0  0  0  0  0  0  0  0  0  0  0  0
    8.3492    4.0848  -12.0966 H   0  0  0  0  0  0  0  0  0  0  0  0
    8.1256    5.5948  -12.9592 H   0  0  0  0  0  0  0  0  0  0  0  0
    7.5370    6.6382  -10.8481 H   0  0  0  0  0  0  0  0  0  0  0  0
   10.0564    5.3038  -10.2849 H   0  0  0  0  0  0  0  0  0  0  0  0
    9.9455    6.3242  -11.7049 H   0  0  0  0  0  0  0  0  0  0  0  0
   11.7366    7.0920   -9.3378 H   0  0  0  0  0  0  0  0  0  0  0  0
   11.5401    8.0638  -10.7765 H   0  0  0  0  0  0  0  0  0  0  0  0
   12.3283    9.3720   -8.8257 H   0  0  0  0  0  0  0  0  0  0  0  0
   10.8161   10.0113   -9.4459 H   0  0  0  0  0  0  0  0  0  0  0  0
   11.0713    6.7748   -6.3776 H   0  0  0  0  0  0  0  0  0  0  0  0
   11.7292    5.3724   -4.5169 H   0  0  0  0  0  0  0  0  0  0  0  0
   11.7022   10.2770   -3.8980 H   0  0  0  0  0  0  0  0  0  0  0  0
    8.8805    8.3329   -6.6059 H   0  0  0  0  0  0  0  0  0  0  0  0
    8.6326    9.2941   -8.0371 H   0  0  0  0  0  0  0  0  0  0  0  0
    8.0862    6.9206   -8.4717 H   0  0  0  0  0  0  0  0  0  0  0  0
    9.6484    6.4024   -7.9617 H   0  0  0  0  0  0  0  0  0  0  0  0
    7.7921    5.2381  -10.0600 H   0  0  0  0  0  0  0  0  0  0  0  0
  2  1  1  0
  3  2  1  0
  4  2  1  0
  5  4  1  0
  6  5  2  0
  7  6  1  0
  8  7  2  0
  9  8  1  0
 10  9  1  0
 11 10  1  0
 12 11  1  0
 13 12  1  0
 14 13  1  0
 15 14  1  0
 16 15  1  0
 17 15  1  0
 18 17  1  0
 19 18  1  0
 20 19  1  0
 21 20  2  0
 22 20  1  0
 23 22  1  0
 24 23  2  0
 25 24  1  0
 26 25  1  0
 27 25  2  0
 28 27  1  0
 29 22  2  0
 29 27  1  0
 30 19  1  0
 31 15  1  0
 31 30  1  0
 32  5  1  0
 32  9  2  0
 33  2  1  0
 33 32  1  0
 34  1  1  0
 35  1  1  0
 36  1  1  0
 37  3  1  0
 38  3  1  0
 39  3  1  0
 40  4  1  0
 41  4  1  0
 42  6  1  0
 43  7  1  0
 44  8  1  0
 45 11  1  0
 46 11  1  0
 47 12  1  0
 48 12  1  0
 49 13  1  0
 50 14  1  0
 51 14  1  0
 52 17  1  0
 53 17  1  0
 54 18  1  0
 55 18  1  0
 56 23  1  0
 57 24  1  0
 58 29  1  0
 59 30  1  0
 60 30  1  0
 61 31  1  0
 62 31  1  0
 63 13  1  0
M  CHG  1  13   1
M  END
>  <b_m_subgroup_collapsed>  (929) 
0

>  <r_i_docking_score>  (929) 
-7.1194425420005896

>  <s_m_subgroup_title>  (929) 
glide-dock_SP_D22_pv

>  <s_m_subgroupid>  (929) 
glide-dock_SP_D22_pv

>  <Molecule ChEMBL ID>  (929) 
CHEMBL4790600

>  <Standard Type>  (929) 
Ki

>  <Standard Value>  (929) 
25.0

>  <label>  (929) 
1

$$$$
CHEMBL4567345
     RDKit          3D

 63 67  0  0  1  0  0  0  0  0999 V2000
    6.2866   -0.2267  -13.3079 O   0  0  0  0  0  0  0  0  0  0  0  0
    6.4935    0.0415  -14.4909 C   0  0  0  0  0  0  0  0  0  0  0  0
    5.6927   -0.4308  -15.6560 C   0  0  0  0  0  0  0  0  0  0  0  0
    4.5839   -1.2912  -15.7552 C   0  0  0  0  0  0  0  0  0  0  0  0
    4.0502   -1.5524  -17.0435 C   0  0  0  0  0  0  0  0  0  0  0  0
    4.6054   -0.9608  -18.2100 C   0  0  0  0  0  0  0  0  0  0  0  0
    5.7234   -0.1020  -18.1116 C   0  0  0  0  0  0  0  0  0  0  0  0
    6.4373    0.5636  -19.1334 C   0  0  0  0  0  0  0  0  0  0  0  0
    7.5610    1.3722  -18.8142 C   0  0  0  0  0  0  0  0  0  0  0  0
    7.9876    1.5452  -17.4717 C   0  0  0  0  0  0  0  0  0  0  0  0
    7.2824    0.8870  -16.4431 C   0  0  0  0  0  0  0  0  0  0  0  0
    6.2021    0.1064  -16.8172 C   0  0  0  0  0  0  0  0  0  0  0  0
    7.4479    0.8404  -15.0308 N   0  0  0  0  0  0  0  0  0  0  0  0
    8.4397    1.6205  -14.2975 C   0  0  0  0  0  0  0  0  0  0  0  0
    7.8376    2.9626  -13.8476 C   0  0  0  0  0  0  0  0  0  0  0  0
    8.7918    3.8460  -13.0303 C   0  0  0  0  0  0  0  0  0  0  0  0
    8.2101    5.2596  -12.8413 C   0  0  0  0  0  0  0  0  0  0  0  0
    8.1981    5.7892  -11.4018 C   0  0  0  0  0  0  0  0  0  0  0  0
    9.5787    6.0431  -10.7895 C   0  0  0  0  0  0  0  0  0  0  0  0
    9.5040    6.8995   -9.5756 N   0  0  0  0  0  0  0  0  0  0  0  0
   10.7696    7.6620   -9.3828 C   0  0  0  0  0  0  0  0  0  0  0  0
   10.7575    8.5402   -8.1245 C   0  0  0  0  0  0  0  0  0  0  0  0
   10.3190    7.7820   -6.9619 N   0  0  0  0  0  0  0  0  0  0  0  0
   10.9568    7.8688   -5.7011 C   0  0  0  0  0  0  0  0  0  0  0  0
   11.1127    6.6910   -4.9478 C   0  0  0  0  0  0  0  0  0  0  0  0
   11.6881    6.6927   -3.6640 C   0  0  0  0  0  0  0  0  0  0  0  0
   12.1554    7.8922   -3.1089 C   0  0  0  0  0  0  0  0  0  0  0  0
   12.0364    9.0815   -3.8460 C   0  0  0  0  0  0  0  0  0  0  0  0
   11.4420    9.0724   -5.1256 C   0  0  0  0  0  0  0  0  0  0  0  0
   11.2861   10.5757   -5.9229 Cl  0  0  0  0  0  0  0  0  0  0  0  0
    9.0550    7.0643   -7.1063 C   0  0  0  0  0  0  0  0  0  0  0  0
    9.0834    6.1572   -8.3535 C   0  0  0  0  0  0  0  0  0  0  0  0
    4.1542   -1.7505  -14.8778 H   0  0  0  0  0  0  0  0  0  0  0  0
    3.2116   -2.2268  -17.1377 H   0  0  0  0  0  0  0  0  0  0  0  0
    4.1751   -1.1795  -19.1774 H   0  0  0  0  0  0  0  0  0  0  0  0
    6.1333    0.4454  -20.1635 H   0  0  0  0  0  0  0  0  0  0  0  0
    8.1020    1.8640  -19.6096 H   0  0  0  0  0  0  0  0  0  0  0  0
    8.8426    2.1655  -17.2448 H   0  0  0  0  0  0  0  0  0  0  0  0
    9.3126    1.7905  -14.9277 H   0  0  0  0  0  0  0  0  0  0  0  0
    8.7944    1.0406  -13.4472 H   0  0  0  0  0  0  0  0  0  0  0  0
    6.9230    2.7912  -13.2753 H   0  0  0  0  0  0  0  0  0  0  0  0
    7.5274    3.5127  -14.7286 H   0  0  0  0  0  0  0  0  0  0  0  0
    9.7550    3.9224  -13.5366 H   0  0  0  0  0  0  0  0  0  0  0  0
    8.9976    3.3745  -12.0704 H   0  0  0  0  0  0  0  0  0  0  0  0
    7.1757    5.2764  -13.1867 H   0  0  0  0  0  0  0  0  0  0  0  0
    8.7370    5.9576  -13.4910 H   0  0  0  0  0  0  0  0  0  0  0  0
    7.6007    5.1381  -10.7636 H   0  0  0  0  0  0  0  0  0  0  0  0
    7.6860    6.7445  -11.4471 H   0  0  0  0  0  0  0  0  0  0  0  0
   10.1839    6.5480  -11.5440 H   0  0  0  0  0  0  0  0  0  0  0  0
   10.0853    5.1033  -10.5666 H   0  0  0  0  0  0  0  0  0  0  0  0
   10.9571    8.2932  -10.2528 H   0  0  0  0  0  0  0  0  0  0  0  0
   11.6072    6.9692   -9.3199 H   0  0  0  0  0  0  0  0  0  0  0  0
   10.0704    9.3726   -8.2672 H   0  0  0  0  0  0  0  0  0  0  0  0
   11.7557    8.9511   -7.9729 H   0  0  0  0  0  0  0  0  0  0  0  0
   10.7652    5.7723   -5.3660 H   0  0  0  0  0  0  0  0  0  0  0  0
   11.7783    5.7725   -3.1069 H   0  0  0  0  0  0  0  0  0  0  0  0
   12.5998    7.9036   -2.1256 H   0  0  0  0  0  0  0  0  0  0  0  0
   12.3869   10.0088   -3.4162 H   0  0  0  0  0  0  0  0  0  0  0  0
    8.8165    6.4756   -6.2222 H   0  0  0  0  0  0  0  0  0  0  0  0
    8.2537    7.7994   -7.2010 H   0  0  0  0  0  0  0  0  0  0  0  0
    8.0942    5.7255   -8.5075 H   0  0  0  0  0  0  0  0  0  0  0  0
    9.7698    5.3274   -8.1800 H   0  0  0  0  0  0  0  0  0  0  0  0
    8.7678    7.5760   -9.7467 H   0  0  0  0  0  0  0  0  0  0  0  0
  2  1  2  0
  3  2  1  0
  4  3  1  0
  5  4  2  0
  6  5  1  0
  7  6  2  0
  8  7  1  0
  9  8  2  0
 10  9  1  0
 11 10  2  0
 12  3  2  0
 12  7  1  0
 12 11  1  0
 13  2  1  0
 13 11  1  0
 14 13  1  0
 15 14  1  0
 16 15  1  0
 17 16  1  0
 18 17  1  0
 19 18  1  0
 20 19  1  0
 21 20  1  0
 22 21  1  0
 23 22  1  0
 24 23  1  0
 25 24  2  0
 26 25  1  0
 27 26  2  0
 28 27  1  0
 29 24  1  0
 29 28  2  0
 30 29  1  0
 31 23  1  0
 32 20  1  0
 32 31  1  0
 33  4  1  0
 34  5  1  0
 35  6  1  0
 36  8  1  0
 37  9  1  0
 38 10  1  0
 39 14  1  0
 40 14  1  0
 41 15  1  0
 42 15  1  0
 43 16  1  0
 44 16  1  0
 45 17  1  0
 46 17  1  0
 47 18  1  0
 48 18  1  0
 49 19  1  0
 50 19  1  0
 51 21  1  0
 52 21  1  0
 53 22  1  0
 54 22  1  0
 55 25  1  0
 56 26  1  0
 57 27  1  0
 58 28  1  0
 59 31  1  0
 60 31  1  0
 61 32  1  0
 62 32  1  0
 63 20  1  0
M  CHG  1  20   1
M  END
>  <b_m_subgroup_collapsed>  (930) 
0

>  <r_i_docking_score>  (930) 
-7.1154534364419701

>  <s_m_subgroup_title>  (930) 
glide-dock_SP_D22_pv

>  <s_m_subgroupid>  (930) 
glide-dock_SP_D22_pv

>  <Molecule ChEMBL ID>  (930) 
CHEMBL4567345

>  <Standard Type>  (930) 
Ki

>  <Standard Value>  (930) 
58.0

>  <label>  (930) 
1

$$$$
CHEMBL560650
     RDKit          3D

 48 51  0  0  1  0  0  0  0  0999 V2000
    9.0834    4.5765  -10.4045 O   0  0  0  0  0  0  0  0  0  0  0  0
    8.7888    5.5500  -11.0960 C   0  0  0  0  0  0  0  0  0  0  0  0
    9.2862    6.7867  -10.9436 N   0  0  0  0  0  0  0  0  0  0  0  0
   10.1965    7.2214   -9.8928 C   0  0  0  0  0  0  0  0  0  0  0  0
    9.5161    7.1880   -8.5144 C   0  0  0  0  0  0  0  0  0  0  0  0
   10.4884    7.5597   -7.4633 N   0  0  0  0  0  0  0  0  0  0  0  0
   10.6220    6.5775   -6.3541 C   0  0  0  0  0  0  0  0  0  0  0  0
   11.1192    7.4268   -5.2252 C   0  0  0  0  0  0  0  0  0  0  0  0
   11.6865    7.0076   -4.0104 C   0  0  0  0  0  0  0  0  0  0  0  0
   12.0861    8.0028   -3.0906 C   0  0  0  0  0  0  0  0  0  0  0  0
   11.8840    9.3730   -3.3860 C   0  0  0  0  0  0  0  0  0  0  0  0
   11.2925    9.7722   -4.6073 C   0  0  0  0  0  0  0  0  0  0  0  0
   10.9346    8.7679   -5.5201 C   0  0  0  0  0  0  0  0  0  0  0  0
   10.3316    8.9242   -6.8881 C   0  0  0  0  0  0  0  0  0  0  0  0
    8.7867    7.7256  -11.9291 C   0  0  0  0  0  0  0  0  0  0  0  0
    7.8122    6.8687  -12.7365 C   0  0  0  0  0  0  0  0  0  0  0  0
    7.9467    5.5577  -12.1392 N   0  0  0  0  0  0  0  0  0  0  0  0
    7.1761    4.4339  -12.6671 C   0  0  0  0  0  0  0  0  0  0  0  0
    7.9179    3.4956  -13.6172 C   0  0  0  0  0  0  0  0  0  0  0  0
    9.3143    3.5691  -13.8350 C   0  0  0  0  0  0  0  0  0  0  0  0
    9.9626    2.6025  -14.6286 C   0  0  0  0  0  0  0  0  0  0  0  0
    9.2278    1.5565  -15.2182 C   0  0  0  0  0  0  0  0  0  0  0  0
   10.0619    0.3526  -16.1363 Cl  0  0  0  0  0  0  0  0  0  0  0  0
    7.8279    1.5005  -15.0399 C   0  0  0  0  0  0  0  0  0  0  0  0
    6.8853    0.2462  -15.7611 Cl  0  0  0  0  0  0  0  0  0  0  0  0
    7.1823    2.4694  -14.2471 C   0  0  0  0  0  0  0  0  0  0  0  0
   10.5526    8.2288  -10.1137 H   0  0  0  0  0  0  0  0  0  0  0  0
   11.0733    6.5726   -9.8994 H   0  0  0  0  0  0  0  0  0  0  0  0
    9.1291    6.1873   -8.3162 H   0  0  0  0  0  0  0  0  0  0  0  0
    8.6474    7.8484   -8.5008 H   0  0  0  0  0  0  0  0  0  0  0  0
   11.3115    5.7729   -6.6086 H   0  0  0  0  0  0  0  0  0  0  0  0
    9.6501    6.1725   -6.0727 H   0  0  0  0  0  0  0  0  0  0  0  0
   11.8198    5.9588   -3.7872 H   0  0  0  0  0  0  0  0  0  0  0  0
   12.5307    7.7173   -2.1486 H   0  0  0  0  0  0  0  0  0  0  0  0
   12.1804   10.1228   -2.6659 H   0  0  0  0  0  0  0  0  0  0  0  0
   11.1378   10.8165   -4.8371 H   0  0  0  0  0  0  0  0  0  0  0  0
    9.2814    9.1938   -6.7883 H   0  0  0  0  0  0  0  0  0  0  0  0
   10.8493    9.6752   -7.4852 H   0  0  0  0  0  0  0  0  0  0  0  0
    8.2862    8.5676  -11.4485 H   0  0  0  0  0  0  0  0  0  0  0  0
    9.6022    8.1078  -12.5433 H   0  0  0  0  0  0  0  0  0  0  0  0
    8.0859    6.7969  -13.7863 H   0  0  0  0  0  0  0  0  0  0  0  0
    6.7866    7.2321  -12.6475 H   0  0  0  0  0  0  0  0  0  0  0  0
    6.7966    3.8454  -11.8294 H   0  0  0  0  0  0  0  0  0  0  0  0
    6.2956    4.8210  -13.1819 H   0  0  0  0  0  0  0  0  0  0  0  0
    9.9131    4.3399  -13.3750 H   0  0  0  0  0  0  0  0  0  0  0  0
   11.0328    2.6510  -14.7662 H   0  0  0  0  0  0  0  0  0  0  0  0
    6.1149    2.4015  -14.0931 H   0  0  0  0  0  0  0  0  0  0  0  0
   11.3973    7.5640   -7.9020 H   0  0  0  0  0  0  0  0  0  0  0  0
  2  1  2  0
  3  2  1  0
  4  3  1  0
  5  4  1  0
  6  5  1  0
  7  6  1  0
  8  7  1  0
  9  8  2  0
 10  9  1  0
 11 10  2  0
 12 11  1  0
 13  8  1  0
 13 12  2  0
 14  6  1  0
 14 13  1  0
 15  3  1  0
 16 15  1  0
 17  2  1  0
 17 16  1  0
 18 17  1  0
 19 18  1  0
 20 19  1  0
 21 20  2  0
 22 21  1  0
 23 22  1  0
 24 22  2  0
 25 24  1  0
 26 19  2  0
 26 24  1  0
 27  4  1  0
 28  4  1  0
 29  5  1  0
 30  5  1  0
 31  7  1  0
 32  7  1  0
 33  9  1  0
 34 10  1  0
 35 11  1  0
 36 12  1  0
 37 14  1  0
 38 14  1  0
 39 15  1  0
 40 15  1  0
 41 16  1  0
 42 16  1  0
 43 18  1  0
 44 18  1  0
 45 20  1  0
 46 21  1  0
 47 26  1  0
 48  6  1  0
M  CHG  1   6   1
M  END
>  <b_m_subgroup_collapsed>  (931) 
0

>  <r_i_docking_score>  (931) 
-7.1121951095162199

>  <s_m_subgroup_title>  (931) 
glide-dock_SP_D22_pv

>  <s_m_subgroupid>  (931) 
glide-dock_SP_D22_pv

>  <Molecule ChEMBL ID>  (931) 
CHEMBL560650

>  <Standard Type>  (931) 
Ki

>  <Standard Value>  (931) 
10000.0

>  <label>  (931) 
0

$$$$
CHEMBL599080
     RDKit          3D

 56 59  0  0  1  0  0  0  0  0999 V2000
   10.2555    7.1288   -6.1741 C   0  0  0  0  0  0  0  0  0  0  0  0
    8.9646    6.7295   -6.9080 C   0  0  0  0  0  0  0  0  0  0  0  0
    9.1949    6.2183   -8.3480 C   0  0  0  0  0  0  0  0  0  0  0  0
    8.8860    7.2078   -9.4231 N   0  0  1  0  0  0  0  0  0  0  0  0
    9.4725    8.5475   -9.2464 C   0  0  0  0  0  0  0  0  0  0  0  0
   10.9754    8.4666   -9.4641 C   0  0  0  0  0  0  0  0  0  0  0  0
   11.3697    7.8752  -10.8037 C   0  0  0  0  0  0  0  0  0  0  0  0
   12.5723    8.1724  -11.4467 C   0  0  0  0  0  0  0  0  0  0  0  0
   12.8237    7.6673  -12.7207 C   0  0  0  0  0  0  0  0  0  0  0  0
   11.9420    6.7366  -13.2895 C   0  0  0  0  0  0  0  0  0  0  0  0
   10.7089    6.3469  -12.6937 C   0  0  0  0  0  0  0  0  0  0  0  0
   10.4570    6.9905  -11.4444 C   0  0  0  0  0  0  0  0  0  0  0  0
    9.0700    6.7409  -10.8287 C   0  0  1  0  0  0  0  0  0  0  0  0
    8.5485    5.3167  -11.0671 C   0  0  0  0  0  0  0  0  0  0  0  0
    8.7051    4.8618  -12.4992 C   0  0  0  0  0  0  0  0  0  0  0  0
    7.7816    3.9188  -12.9850 C   0  0  0  0  0  0  0  0  0  0  0  0
    7.9553    3.3478  -14.2467 C   0  0  0  0  0  0  0  0  0  0  0  0
    9.0089    3.7889  -15.0539 C   0  0  0  0  0  0  0  0  0  0  0  0
    9.8751    4.8314  -14.6369 C   0  0  0  0  0  0  0  0  0  0  0  0
   10.8051    5.3721  -15.5034 O   0  0  0  0  0  0  0  0  0  0  0  0
   10.9450    4.9095  -16.8448 C   0  0  0  0  0  0  0  0  0  0  0  0
    9.8370    5.4197  -17.7577 C   0  0  0  0  0  0  0  0  0  0  0  0
    9.9118    6.3805  -18.7020 C   0  0  0  0  0  0  0  0  0  0  0  0
    8.7102    6.7246  -19.5622 C   0  0  0  0  0  0  0  0  0  0  0  0
   11.1546    7.1950  -19.0229 C   0  0  0  0  0  0  0  0  0  0  0  0
    9.7703    5.3469  -13.3028 C   0  0  0  0  0  0  0  0  0  0  0  0
   10.0744    7.2816   -5.1113 H   0  0  0  0  0  0  0  0  0  0  0  0
   10.6774    8.0539   -6.5620 H   0  0  0  0  0  0  0  0  0  0  0  0
   11.0132    6.3494   -6.2561 H   0  0  0  0  0  0  0  0  0  0  0  0
    8.5056    5.9240   -6.3395 H   0  0  0  0  0  0  0  0  0  0  0  0
    8.2249    7.5307   -6.8735 H   0  0  0  0  0  0  0  0  0  0  0  0
   10.2041    5.8209   -8.4682 H   0  0  0  0  0  0  0  0  0  0  0  0
    8.5197    5.3716   -8.4720 H   0  0  0  0  0  0  0  0  0  0  0  0
    9.0280    9.2243   -9.9780 H   0  0  0  0  0  0  0  0  0  0  0  0
    9.2358    8.9767   -8.2740 H   0  0  0  0  0  0  0  0  0  0  0  0
   11.3998    9.4683   -9.3905 H   0  0  0  0  0  0  0  0  0  0  0  0
   11.4604    7.8772   -8.6875 H   0  0  0  0  0  0  0  0  0  0  0  0
   13.2795    8.8529  -10.9993 H   0  0  0  0  0  0  0  0  0  0  0  0
   13.7313    7.9306  -13.2388 H   0  0  0  0  0  0  0  0  0  0  0  0
   12.2927    6.3225  -14.2155 H   0  0  0  0  0  0  0  0  0  0  0  0
    8.4250    7.3912  -11.4221 H   0  0  0  0  0  0  0  0  0  0  0  0
    9.1098    4.5943  -10.4743 H   0  0  0  0  0  0  0  0  0  0  0  0
    7.5034    5.2463  -10.7619 H   0  0  0  0  0  0  0  0  0  0  0  0
    6.9669    3.5819  -12.3596 H   0  0  0  0  0  0  0  0  0  0  0  0
    7.2766    2.5850  -14.5994 H   0  0  0  0  0  0  0  0  0  0  0  0
    9.0876    3.3363  -16.0285 H   0  0  0  0  0  0  0  0  0  0  0  0
   11.9164    5.2475  -17.1983 H   0  0  0  0  0  0  0  0  0  0  0  0
   11.0048    3.8221  -16.8927 H   0  0  0  0  0  0  0  0  0  0  0  0
    8.8858    4.9306  -17.6210 H   0  0  0  0  0  0  0  0  0  0  0  0
    8.9392    6.5491  -20.6135 H   0  0  0  0  0  0  0  0  0  0  0  0
    8.4381    7.7722  -19.4442 H   0  0  0  0  0  0  0  0  0  0  0  0
    7.8384    6.1235  -19.3045 H   0  0  0  0  0  0  0  0  0  0  0  0
   11.5436    6.9173  -20.0025 H   0  0  0  0  0  0  0  0  0  0  0  0
   11.9518    7.0774  -18.2919 H   0  0  0  0  0  0  0  0  0  0  0  0
   10.9060    8.2564  -19.0493 H   0  0  0  0  0  0  0  0  0  0  0  0
    7.8771    7.3667   -9.3722 H   0  0  0  0  0  0  0  0  0  0  0  0
  2  1  1  0
  3  2  1  0
  4  3  1  0
  5  4  1  0
  6  5  1  0
  7  6  1  0
  8  7  2  0
  9  8  1  0
 10  9  2  0
 11 10  1  0
 12  7  1  0
 12 11  2  0
 13  4  1  0
 13 12  1  0
 14 13  1  0
 15 14  1  0
 16 15  2  0
 17 16  1  0
 18 17  2  0
 19 18  1  0
 20 19  1  0
 21 20  1  0
 22 21  1  0
 23 22  2  0
 24 23  1  0
 25 23  1  0
 26 11  1  0
 26 15  1  0
 26 19  2  0
 27  1  1  0
 28  1  1  0
 29  1  1  0
 30  2  1  0
 31  2  1  0
 32  3  1  0
 33  3  1  0
 34  5  1  0
 35  5  1  0
 36  6  1  0
 37  6  1  0
 38  8  1  0
 39  9  1  0
 40 10  1  0
 13 41  1  6
 42 14  1  0
 43 14  1  0
 44 16  1  0
 45 17  1  0
 46 18  1  0
 47 21  1  0
 48 21  1  0
 49 22  1  0
 50 24  1  0
 51 24  1  0
 52 24  1  0
 53 25  1  0
 54 25  1  0
 55 25  1  0
  4 56  1  6
M  CHG  1   4   1
M  END
>  <b_m_subgroup_collapsed>  (932) 
0

>  <r_i_docking_score>  (932) 
-7.1098270679010396

>  <s_m_subgroup_title>  (932) 
glide-dock_SP_D22_pv

>  <s_m_subgroupid>  (932) 
glide-dock_SP_D22_pv

>  <Molecule ChEMBL ID>  (932) 
CHEMBL599080

>  <Standard Type>  (932) 
Ki

>  <Standard Value>  (932) 
10000.0

>  <label>  (932) 
0

$$$$
CHEMBL11493
     RDKit          3D

 58 61  0  0  1  0  0  0  0  0999 V2000
   11.3691    7.8792   -4.7124 C   0  0  0  0  0  0  0  0  0  0  0  0
   10.4474    7.4313   -5.8572 C   0  0  0  0  0  0  0  0  0  0  0  0
   10.0089    8.6070   -6.7536 C   0  0  0  0  0  0  0  0  0  0  0  0
    8.8276    8.3193   -7.7179 C   0  0  0  0  0  0  0  0  0  0  0  0
    9.1174    7.7233   -9.0607 N   0  0  1  0  0  0  0  0  0  0  0  0
    9.6389    8.6112  -10.1253 C   0  0  1  0  0  0  0  0  0  0  0  0
   11.1636    8.5722   -9.9478 C   0  0  0  0  0  0  0  0  0  0  0  0
   11.4156    7.2041   -9.2918 C   0  0  0  0  0  0  0  0  0  0  0  0
   10.0161    6.5643   -9.1190 C   0  0  2  0  0  0  0  0  0  0  0  0
    9.5761    5.7411  -10.3571 C   0  0  0  0  0  0  0  0  0  0  0  0
    9.7903    6.5438  -11.6651 C   0  0  1  0  0  0  0  0  0  0  0  0
    9.1698    5.8860  -12.7702 O   0  0  0  0  0  0  0  0  0  0  0  0
    9.9287    4.8306  -13.3751 C   0  0  0  0  0  0  0  0  0  0  0  0
   10.8229    5.3534  -14.5032 C   0  0  0  0  0  0  0  0  0  0  0  0
   10.4155    5.2797  -15.8556 C   0  0  0  0  0  0  0  0  0  0  0  0
   11.2378    5.7838  -16.8836 C   0  0  0  0  0  0  0  0  0  0  0  0
   12.4669    6.3924  -16.5639 C   0  0  0  0  0  0  0  0  0  0  0  0
   13.2482    6.9012  -17.5460 F   0  0  0  0  0  0  0  0  0  0  0  0
   12.8863    6.4598  -15.2249 C   0  0  0  0  0  0  0  0  0  0  0  0
   12.0746    5.9314  -14.2005 C   0  0  0  0  0  0  0  0  0  0  0  0
    9.0441    3.6690  -13.8155 C   0  0  0  0  0  0  0  0  0  0  0  0
    9.6375    2.4614  -14.2450 C   0  0  0  0  0  0  0  0  0  0  0  0
    8.8355    1.3826  -14.6631 C   0  0  0  0  0  0  0  0  0  0  0  0
    7.4338    1.5064  -14.6602 C   0  0  0  0  0  0  0  0  0  0  0  0
    6.6566    0.4736  -15.0588 F   0  0  0  0  0  0  0  0  0  0  0  0
    6.8376    2.7098  -14.2430 C   0  0  0  0  0  0  0  0  0  0  0  0
    7.6377    3.7864  -13.8151 C   0  0  0  0  0  0  0  0  0  0  0  0
    9.2540    7.9909  -11.5036 C   0  0  0  0  0  0  0  0  0  0  0  0
   11.6618    7.0244   -4.0991 H   0  0  0  0  0  0  0  0  0  0  0  0
   12.2773    8.3496   -5.0894 H   0  0  0  0  0  0  0  0  0  0  0  0
   10.8835    8.6064   -4.0612 H   0  0  0  0  0  0  0  0  0  0  0  0
    9.5687    6.9423   -5.4401 H   0  0  0  0  0  0  0  0  0  0  0  0
   10.9651    6.6663   -6.4320 H   0  0  0  0  0  0  0  0  0  0  0  0
   10.8581    9.0552   -7.2602 H   0  0  0  0  0  0  0  0  0  0  0  0
    9.6683    9.3761   -6.0660 H   0  0  0  0  0  0  0  0  0  0  0  0
    8.2930    9.2496   -7.8994 H   0  0  0  0  0  0  0  0  0  0  0  0
    8.1085    7.6761   -7.2078 H   0  0  0  0  0  0  0  0  0  0  0  0
    9.2348    9.6204  -10.0434 H   0  0  0  0  0  0  0  0  0  0  0  0
   11.6996    8.6784  -10.8918 H   0  0  0  0  0  0  0  0  0  0  0  0
   11.5043    9.3844   -9.3073 H   0  0  0  0  0  0  0  0  0  0  0  0
   12.0727    6.5908   -9.8952 H   0  0  0  0  0  0  0  0  0  0  0  0
   11.9198    7.3421   -8.3371 H   0  0  0  0  0  0  0  0  0  0  0  0
    9.9345    5.9389   -8.2313 H   0  0  0  0  0  0  0  0  0  0  0  0
    8.5181    5.4925  -10.2604 H   0  0  0  0  0  0  0  0  0  0  0  0
   10.0869    4.7834  -10.3877 H   0  0  0  0  0  0  0  0  0  0  0  0
   10.8554    6.6304  -11.8711 H   0  0  0  0  0  0  0  0  0  0  0  0
   10.5892    4.3908  -12.6303 H   0  0  0  0  0  0  0  0  0  0  0  0
    9.4598    4.8490  -16.1173 H   0  0  0  0  0  0  0  0  0  0  0  0
   10.9109    5.7279  -17.9121 H   0  0  0  0  0  0  0  0  0  0  0  0
   13.8288    6.9231  -14.9799 H   0  0  0  0  0  0  0  0  0  0  0  0
   12.4321    5.9720  -13.1846 H   0  0  0  0  0  0  0  0  0  0  0  0
   10.7136    2.3566  -14.2512 H   0  0  0  0  0  0  0  0  0  0  0  0
    9.2980    0.4627  -14.9864 H   0  0  0  0  0  0  0  0  0  0  0  0
    5.7625    2.8030  -14.2451 H   0  0  0  0  0  0  0  0  0  0  0  0
    7.1606    4.7024  -13.4994 H   0  0  0  0  0  0  0  0  0  0  0  0
    9.6494    8.6105  -12.3098 H   0  0  0  0  0  0  0  0  0  0  0  0
    8.1698    7.9899  -11.6203 H   0  0  0  0  0  0  0  0  0  0  0  0
    8.2004    7.4289   -9.3916 H   0  0  0  0  0  0  0  0  0  0  0  0
  2  1  1  0
  3  2  1  0
  4  3  1  0
  5  4  1  0
  6  5  1  0
  7  6  1  0
  8  7  1  0
  9  5  1  0
  9  8  1  0
 10  9  1  0
 11 10  1  0
 12 11  1  0
 13 12  1  0
 14 13  1  0
 15 14  1  0
 16 15  2  0
 17 16  1  0
 18 17  1  0
 19 17  2  0
 20 14  2  0
 20 19  1  0
 21 13  1  0
 22 21  1  0
 23 22  2  0
 24 23  1  0
 25 24  1  0
 26 24  2  0
 27 21  2  0
 27 26  1  0
 28  6  1  0
 28 11  1  0
 29  1  1  0
 30  1  1  0
 31  1  1  0
 32  2  1  0
 33  2  1  0
 34  3  1  0
 35  3  1  0
 36  4  1  0
 37  4  1  0
  6 38  1  1
 39  7  1  0
 40  7  1  0
 41  8  1  0
 42  8  1  0
  9 43  1  1
 44 10  1  0
 45 10  1  0
 11 46  1  6
 47 13  1  0
 48 15  1  0
 49 16  1  0
 50 19  1  0
 51 20  1  0
 52 22  1  0
 53 23  1  0
 54 26  1  0
 55 27  1  0
 56 28  1  0
 57 28  1  0
  5 58  1  6
M  CHG  1   5   1
M  END
>  <b_m_subgroup_collapsed>  (933) 
0

>  <r_i_docking_score>  (933) 
-7.1093714305837299

>  <s_m_subgroup_title>  (933) 
glide-dock_SP_D22_pv

>  <s_m_subgroupid>  (933) 
glide-dock_SP_D22_pv

>  <Molecule ChEMBL ID>  (933) 
CHEMBL11493

>  <Standard Type>  (933) 
Ki

>  <Standard Value>  (933) 
68.1

>  <label>  (933) 
1

$$$$
CHEMBL2115519
     RDKit          3D

 50 53  0  0  1  0  0  0  0  0999 V2000
    8.4859    4.5723   -9.4042 O   0  0  0  0  0  0  0  0  0  0  0  0
    9.1342    5.4053  -10.0186 C   0  0  0  0  0  0  0  0  0  0  0  0
   10.1597    6.1802   -9.2369 C   0  0  0  0  0  0  0  0  0  0  0  0
   10.5289    7.5163   -9.9070 C   0  0  1  0  0  0  0  0  0  0  0  0
    9.4494    8.5868   -9.6820 C   0  0  0  0  0  0  0  0  0  0  0  0
    9.2898    8.9168   -8.1910 C   0  0  0  0  0  0  0  0  0  0  0  0
   10.6320    9.2099   -7.4854 C   0  0  1  0  0  0  0  0  0  0  0  0
   10.3171    9.2677   -6.1094 O   0  0  0  0  0  0  0  0  0  0  0  0
   11.2850    9.8671   -5.2726 C   0  0  0  0  0  0  0  0  0  0  0  0
   11.6934    8.9043   -4.1870 C   0  0  0  0  0  0  0  0  0  0  0  0
   12.0883    9.3800   -2.9251 C   0  0  0  0  0  0  0  0  0  0  0  0
   12.4860    8.4754   -1.9285 C   0  0  0  0  0  0  0  0  0  0  0  0
   12.4860    7.0948   -2.1979 C   0  0  0  0  0  0  0  0  0  0  0  0
   12.0858    6.6163   -3.4467 C   0  0  0  0  0  0  0  0  0  0  0  0
   11.6857    7.5185   -4.4360 C   0  0  0  0  0  0  0  0  0  0  0  0
   11.7632    8.2282   -7.8329 C   0  0  0  0  0  0  0  0  0  0  0  0
   11.8598    8.0460   -9.3486 C   0  0  0  0  0  0  0  0  0  0  0  0
   10.7635    7.3655  -11.3040 O   0  0  0  0  0  0  0  0  0  0  0  0
    9.9392    6.5077  -11.9947 C   0  0  0  0  0  0  0  0  0  0  0  0
    9.0782    5.6089  -11.4747 C   0  0  0  0  0  0  0  0  0  0  0  0
    8.2681    4.7546  -12.3635 C   0  0  0  0  0  0  0  0  0  0  0  0
    8.8840    4.0043  -13.3905 C   0  0  0  0  0  0  0  0  0  0  0  0
    8.1081    3.1652  -14.2158 C   0  0  0  0  0  0  0  0  0  0  0  0
    6.7142    3.0815  -14.0216 C   0  0  0  0  0  0  0  0  0  0  0  0
    6.0930    3.8527  -13.0203 C   0  0  0  0  0  0  0  0  0  0  0  0
    6.8690    4.6917  -12.1978 C   0  0  0  0  0  0  0  0  0  0  0  0
    9.7826    6.3193   -8.2266 H   0  0  0  0  0  0  0  0  0  0  0  0
   11.0262    5.5453   -9.1329 H   0  0  0  0  0  0  0  0  0  0  0  0
    9.7322    9.4815  -10.2231 H   0  0  0  0  0  0  0  0  0  0  0  0
    8.4888    8.2833  -10.0983 H   0  0  0  0  0  0  0  0  0  0  0  0
    8.7766    8.0976   -7.6860 H   0  0  0  0  0  0  0  0  0  0  0  0
    8.6233    9.7712   -8.0847 H   0  0  0  0  0  0  0  0  0  0  0  0
   11.0101   10.1721   -7.7979 H   0  0  0  0  0  0  0  0  0  0  0  0
   12.1751   10.1964   -5.8119 H   0  0  0  0  0  0  0  0  0  0  0  0
   10.8396   10.7567   -4.8264 H   0  0  0  0  0  0  0  0  0  0  0  0
   12.0858   10.4397   -2.7137 H   0  0  0  0  0  0  0  0  0  0  0  0
   12.8026    8.8466   -0.9673 H   0  0  0  0  0  0  0  0  0  0  0  0
   12.8089    6.3896   -1.4478 H   0  0  0  0  0  0  0  0  0  0  0  0
   12.0861    5.5622   -3.6534 H   0  0  0  0  0  0  0  0  0  0  0  0
   11.3411    7.1175   -5.3698 H   0  0  0  0  0  0  0  0  0  0  0  0
   11.6080    7.2560   -7.3787 H   0  0  0  0  0  0  0  0  0  0  0  0
   12.7139    8.5984   -7.4488 H   0  0  0  0  0  0  0  0  0  0  0  0
   12.6765    7.3729   -9.5961 H   0  0  0  0  0  0  0  0  0  0  0  0
   12.1083    8.9968   -9.8220 H   0  0  0  0  0  0  0  0  0  0  0  0
   10.0334    6.6679  -13.0472 H   0  0  0  0  0  0  0  0  0  0  0  0
    9.9539    4.0459  -13.5299 H   0  0  0  0  0  0  0  0  0  0  0  0
    8.5840    2.5751  -14.9840 H   0  0  0  0  0  0  0  0  0  0  0  0
    6.1172    2.4337  -14.6457 H   0  0  0  0  0  0  0  0  0  0  0  0
    5.0237    3.7999  -12.8808 H   0  0  0  0  0  0  0  0  0  0  0  0
    6.3866    5.2826  -11.4324 H   0  0  0  0  0  0  0  0  0  0  0  0
  2  1  2  0
  3  2  1  0
  4  3  1  0
  5  4  1  0
  6  5  1  0
  7  6  1  0
  8  7  1  0
  9  8  1  0
 10  9  1  0
 11 10  2  0
 12 11  1  0
 13 12  2  0
 14 13  1  0
 15 10  1  0
 15 14  2  0
 16  7  1  0
 17  4  1  0
 17 16  1  0
  4 18  1  6
 19 18  1  0
 20  2  1  0
 20 19  2  0
 21 20  1  0
 22 21  2  0
 23 22  1  0
 24 23  2  0
 25 24  1  0
 26 21  1  0
 26 25  2  0
 27  3  1  0
 28  3  1  0
 29  5  1  0
 30  5  1  0
 31  6  1  0
 32  6  1  0
  7 33  1  6
 34  9  1  0
 35  9  1  0
 36 11  1  0
 37 12  1  0
 38 13  1  0
 39 14  1  0
 40 15  1  0
 41 16  1  0
 42 16  1  0
 43 17  1  0
 44 17  1  0
 45 19  1  0
 46 22  1  0
 47 23  1  0
 48 24  1  0
 49 25  1  0
 50 26  1  0
M  END
>  <b_m_subgroup_collapsed>  (934) 
0

>  <r_i_docking_score>  (934) 
-7.1055292119326801

>  <s_m_subgroup_title>  (934) 
glide-dock_SP_D22_pv

>  <s_m_subgroupid>  (934) 
glide-dock_SP_D22_pv

>  <Molecule ChEMBL ID>  (934) 
CHEMBL2115519

>  <Standard Type>  (934) 
Ki

>  <Standard Value>  (934) 
10000.0

>  <label>  (934) 
0

$$$$
CHEMBL4545912
     RDKit          3D

 52 54  0  0  1  0  0  0  0  0999 V2000
    5.2862    1.2028  -12.6481 C   0  0  0  0  0  0  0  0  0  0  0  0
    5.6335    0.6299  -13.6688 C   0  0  0  0  0  0  0  0  0  0  0  0
    6.0525   -0.0134  -14.9239 C   0  0  0  0  0  0  0  0  0  0  0  0
    7.4919   -0.2276  -14.9857 N   0  0  0  0  0  0  0  0  0  0  0  0
    8.2016    0.7256  -15.8334 C   0  0  2  0  0  0  0  0  0  0  0  0
    9.5112    0.0764  -16.3597 C   0  0  0  0  0  0  0  0  0  0  0  0
   10.7024    0.7529  -15.6451 C   0  0  0  0  0  0  0  0  0  0  0  0
   10.0859    1.9521  -14.9842 C   0  0  0  0  0  0  0  0  0  0  0  0
   10.7599    2.9913  -14.3200 C   0  0  0  0  0  0  0  0  0  0  0  0
   10.0072    4.0297  -13.7262 C   0  0  0  0  0  0  0  0  0  0  0  0
   10.7148    5.0045  -13.0531 O   0  0  0  0  0  0  0  0  0  0  0  0
   10.0182    5.8611  -12.1546 C   0  0  0  0  0  0  0  0  0  0  0  0
    9.6293    5.1062  -10.8620 C   0  0  0  0  0  0  0  0  0  0  0  0
    8.4773    5.7382  -10.0708 C   0  0  0  0  0  0  0  0  0  0  0  0
    8.8860    6.7399   -9.0518 N   0  0  0  0  0  0  0  0  0  0  0  0
    9.4209    6.1619   -7.7938 C   0  0  0  0  0  0  0  0  0  0  0  0
    9.5260    7.2417   -6.7036 C   0  0  0  0  0  0  0  0  0  0  0  0
   10.3723    8.4293   -7.1849 C   0  0  0  0  0  0  0  0  0  0  0  0
    9.8088    8.9728   -8.5060 C   0  0  0  0  0  0  0  0  0  0  0  0
    9.6996    7.8673   -9.5628 C   0  0  0  0  0  0  0  0  0  0  0  0
    8.5880    4.0138  -13.8467 C   0  0  0  0  0  0  0  0  0  0  0  0
    7.9308    2.9720  -14.5327 C   0  0  0  0  0  0  0  0  0  0  0  0
    8.7009    1.9362  -15.0841 C   0  0  0  0  0  0  0  0  0  0  0  0
    4.9832    1.7312  -11.7736 H   0  0  0  0  0  0  0  0  0  0  0  0
    5.5576   -0.9844  -14.9616 H   0  0  0  0  0  0  0  0  0  0  0  0
    5.6851    0.5686  -15.7696 H   0  0  0  0  0  0  0  0  0  0  0  0
    7.6864   -1.1819  -15.2967 H   0  0  0  0  0  0  0  0  0  0  0  0
    7.5845    1.0270  -16.6808 H   0  0  0  0  0  0  0  0  0  0  0  0
    9.5434   -1.0092  -16.2781 H   0  0  0  0  0  0  0  0  0  0  0  0
    9.5885    0.3033  -17.4235 H   0  0  0  0  0  0  0  0  0  0  0  0
   11.4973    1.0362  -16.3355 H   0  0  0  0  0  0  0  0  0  0  0  0
   11.1188    0.0972  -14.8808 H   0  0  0  0  0  0  0  0  0  0  0  0
   11.8370    2.9852  -14.2460 H   0  0  0  0  0  0  0  0  0  0  0  0
   10.6953    6.6794  -11.9158 H   0  0  0  0  0  0  0  0  0  0  0  0
    9.1649    6.3367  -12.6371 H   0  0  0  0  0  0  0  0  0  0  0  0
    9.3087    4.1018  -11.1333 H   0  0  0  0  0  0  0  0  0  0  0  0
   10.4852    4.9700  -10.2077 H   0  0  0  0  0  0  0  0  0  0  0  0
    7.7504    6.1717  -10.7572 H   0  0  0  0  0  0  0  0  0  0  0  0
    7.9404    4.9419   -9.5571 H   0  0  0  0  0  0  0  0  0  0  0  0
    8.7559    5.3717   -7.4473 H   0  0  0  0  0  0  0  0  0  0  0  0
   10.3967    5.7078   -7.9724 H   0  0  0  0  0  0  0  0  0  0  0  0
    8.5254    7.5913   -6.4413 H   0  0  0  0  0  0  0  0  0  0  0  0
    9.9532    6.8156   -5.7947 H   0  0  0  0  0  0  0  0  0  0  0  0
   10.3833    9.2152   -6.4287 H   0  0  0  0  0  0  0  0  0  0  0  0
   11.4076    8.1150   -7.3248 H   0  0  0  0  0  0  0  0  0  0  0  0
    8.8226    9.4058   -8.3320 H   0  0  0  0  0  0  0  0  0  0  0  0
   10.4460    9.7718   -8.8868 H   0  0  0  0  0  0  0  0  0  0  0  0
   10.6993    7.5176   -9.8206 H   0  0  0  0  0  0  0  0  0  0  0  0
    9.2429    8.2688  -10.4688 H   0  0  0  0  0  0  0  0  0  0  0  0
    7.9707    4.7876  -13.4198 H   0  0  0  0  0  0  0  0  0  0  0  0
    6.8556    2.9734  -14.6271 H   0  0  0  0  0  0  0  0  0  0  0  0
    7.9916    7.1535   -8.7948 H   0  0  0  0  0  0  0  0  0  0  0  0
  2  1  3  0
  3  2  1  0
  4  3  1  0
  5  4  1  0
  6  5  1  0
  7  6  1  0
  8  7  1  0
  9  8  1  0
 10  9  2  0
 11 10  1  0
 12 11  1  0
 13 12  1  0
 14 13  1  0
 15 14  1  0
 16 15  1  0
 17 16  1  0
 18 17  1  0
 19 18  1  0
 20 15  1  0
 20 19  1  0
 21 10  1  0
 22 21  2  0
 23  5  1  0
 23  8  2  0
 23 22  1  0
 24  1  1  0
 25  3  1  0
 26  3  1  0
 27  4  1  0
  5 28  1  6
 29  6  1  0
 30  6  1  0
 31  7  1  0
 32  7  1  0
 33  9  1  0
 34 12  1  0
 35 12  1  0
 36 13  1  0
 37 13  1  0
 38 14  1  0
 39 14  1  0
 40 16  1  0
 41 16  1  0
 42 17  1  0
 43 17  1  0
 44 18  1  0
 45 18  1  0
 46 19  1  0
 47 19  1  0
 48 20  1  0
 49 20  1  0
 50 21  1  0
 51 22  1  0
 52 15  1  0
M  CHG  1  15   1
M  END
>  <b_m_subgroup_collapsed>  (935) 
0

>  <r_i_docking_score>  (935) 
-7.1047797808428603

>  <s_m_subgroup_title>  (935) 
glide-dock_SP_D22_pv

>  <s_m_subgroupid>  (935) 
glide-dock_SP_D22_pv

>  <Molecule ChEMBL ID>  (935) 
CHEMBL4545912

>  <Standard Type>  (935) 
Ki

>  <Standard Value>  (935) 
10000.0

>  <label>  (935) 
0

$$$$
CHEMBL542399
     RDKit          3D

 50 51  0  0  1  0  0  0  0  0999 V2000
    5.9285    4.8065  -13.0475 C   0  0  0  0  0  0  0  0  0  0  0  0
    6.8609    5.7116  -12.2242 C   0  0  0  0  0  0  0  0  0  0  0  0
    7.9752    4.9798  -11.5607 N   0  0  0  0  0  0  0  0  0  0  0  0
    8.8108    4.1165  -12.4494 C   0  0  0  0  0  0  0  0  0  0  0  0
    9.5745    4.8430  -13.5711 C   0  0  0  0  0  0  0  0  0  0  0  0
    8.7545    5.7832  -10.5750 C   0  0  0  0  0  0  0  0  0  0  0  0
    9.2733    7.1376  -11.1045 C   0  0  0  0  0  0  0  0  0  0  0  0
   10.5141    7.6748  -10.3742 C   0  0  0  0  0  0  0  0  0  0  0  0
   10.3684    8.0665   -8.8862 C   0  0  2  0  0  0  0  0  0  0  0  0
    9.1369    8.9562   -8.6470 C   0  0  0  0  0  0  0  0  0  0  0  0
   11.6669    8.7900   -8.5199 C   0  0  0  0  0  0  0  0  0  0  0  0
   11.7934    8.9785   -7.0241 C   0  0  0  0  0  0  0  0  0  0  0  0
   12.4750    9.9103   -6.6152 O   0  0  0  0  0  0  0  0  0  0  0  0
   11.1672    7.9916   -6.1314 C   0  0  0  0  0  0  0  0  0  0  0  0
   11.4790    7.9989   -4.6788 C   0  0  0  0  0  0  0  0  0  0  0  0
   11.6241    9.2204   -3.9750 C   0  0  0  0  0  0  0  0  0  0  0  0
   12.0860    9.2341   -2.6506 C   0  0  0  0  0  0  0  0  0  0  0  0
   12.3665    8.0257   -1.9976 C   0  0  0  0  0  0  0  0  0  0  0  0
   12.1346    6.7999   -2.6509 C   0  0  0  0  0  0  0  0  0  0  0  0
   11.6899    6.7859   -3.9873 C   0  0  0  0  0  0  0  0  0  0  0  0
   10.4891    6.9896   -6.7379 C   0  0  0  0  0  0  0  0  0  0  0  0
   10.2199    6.8814   -8.0907 O   0  0  0  0  0  0  0  0  0  0  0  0
    5.0911    5.3785  -13.4458 H   0  0  0  0  0  0  0  0  0  0  0  0
    6.4336    4.3680  -13.9078 H   0  0  0  0  0  0  0  0  0  0  0  0
    5.5205    3.9971  -12.4393 H   0  0  0  0  0  0  0  0  0  0  0  0
    6.2554    6.1722  -11.4475 H   0  0  0  0  0  0  0  0  0  0  0  0
    7.2429    6.5195  -12.8484 H   0  0  0  0  0  0  0  0  0  0  0  0
    9.5172    3.5441  -11.8456 H   0  0  0  0  0  0  0  0  0  0  0  0
    8.1670    3.3721  -12.9116 H   0  0  0  0  0  0  0  0  0  0  0  0
    9.9984    4.1161  -14.2643 H   0  0  0  0  0  0  0  0  0  0  0  0
    8.9287    5.5003  -14.1541 H   0  0  0  0  0  0  0  0  0  0  0  0
   10.4130    5.4208  -13.1828 H   0  0  0  0  0  0  0  0  0  0  0  0
    9.5843    5.1788  -10.2062 H   0  0  0  0  0  0  0  0  0  0  0  0
    8.1205    5.9690   -9.7061 H   0  0  0  0  0  0  0  0  0  0  0  0
    8.4861    7.8849  -11.0726 H   0  0  0  0  0  0  0  0  0  0  0  0
    9.5317    7.0704  -12.1558 H   0  0  0  0  0  0  0  0  0  0  0  0
   10.8333    8.5593  -10.9267 H   0  0  0  0  0  0  0  0  0  0  0  0
   11.3349    6.9670  -10.4823 H   0  0  0  0  0  0  0  0  0  0  0  0
    9.0965    9.7722   -9.3656 H   0  0  0  0  0  0  0  0  0  0  0  0
    8.2302    8.3724   -8.7478 H   0  0  0  0  0  0  0  0  0  0  0  0
    9.1074    9.3727   -7.6428 H   0  0  0  0  0  0  0  0  0  0  0  0
   11.6869    9.7653   -9.0102 H   0  0  0  0  0  0  0  0  0  0  0  0
   12.5366    8.2300   -8.8636 H   0  0  0  0  0  0  0  0  0  0  0  0
   11.4153   10.1675   -4.4502 H   0  0  0  0  0  0  0  0  0  0  0  0
   12.2265   10.1718   -2.1363 H   0  0  0  0  0  0  0  0  0  0  0  0
   12.7468    8.0482   -0.9909 H   0  0  0  0  0  0  0  0  0  0  0  0
   12.3276    5.8681   -2.1390 H   0  0  0  0  0  0  0  0  0  0  0  0
   11.5673    5.8354   -4.4870 H   0  0  0  0  0  0  0  0  0  0  0  0
   10.0428    6.1722   -6.1930 H   0  0  0  0  0  0  0  0  0  0  0  0
    7.4926    4.3182  -10.9662 H   0  0  0  0  0  0  0  0  0  0  0  0
  2  1  1  0
  3  2  1  0
  4  3  1  0
  5  4  1  0
  6  3  1  0
  7  6  1  0
  8  7  1  0
  9  8  1  6
 10  9  1  0
 11  9  1  0
 12 11  1  0
 13 12  2  0
 14 12  1  0
 15 14  1  0
 16 15  2  0
 17 16  1  0
 18 17  2  0
 19 18  1  0
 20 15  1  0
 20 19  2  0
 21 14  2  0
 22  9  1  0
 22 21  1  0
 23  1  1  0
 24  1  1  0
 25  1  1  0
 26  2  1  0
 27  2  1  0
 28  4  1  0
 29  4  1  0
 30  5  1  0
 31  5  1  0
 32  5  1  0
 33  6  1  0
 34  6  1  0
 35  7  1  0
 36  7  1  0
 37  8  1  0
 38  8  1  0
 39 10  1  0
 40 10  1  0
 41 10  1  0
 42 11  1  0
 43 11  1  0
 44 16  1  0
 45 17  1  0
 46 18  1  0
 47 19  1  0
 48 20  1  0
 49 21  1  0
 50  3  1  0
M  CHG  1   3   1
M  END
>  <b_m_subgroup_collapsed>  (936) 
0

>  <r_i_docking_score>  (936) 
-7.1042685578968801

>  <s_m_subgroup_title>  (936) 
glide-dock_SP_D22_pv

>  <s_m_subgroupid>  (936) 
glide-dock_SP_D22_pv

>  <Molecule ChEMBL ID>  (936) 
CHEMBL542399

>  <Standard Type>  (936) 
Ki

>  <Standard Value>  (936) 
10000.0

>  <label>  (936) 
0

$$$$
CHEMBL486534
     RDKit          3D

 63 65  0  0  1  0  0  0  0  0999 V2000
    4.6209   -0.9686  -14.4819 C   0  0  0  0  0  0  0  0  0  0  0  0
    4.6329    0.0106  -13.4500 O   0  0  0  0  0  0  0  0  0  0  0  0
    5.5024    1.0682  -13.5871 C   0  0  0  0  0  0  0  0  0  0  0  0
    5.2859    2.1929  -12.7648 C   0  0  0  0  0  0  0  0  0  0  0  0
    6.0772    3.3510  -12.8982 C   0  0  0  0  0  0  0  0  0  0  0  0
    7.1171    3.3822  -13.8465 C   0  0  0  0  0  0  0  0  0  0  0  0
    7.3731    2.2510  -14.6461 C   0  0  0  0  0  0  0  0  0  0  0  0
    8.4905    2.2844  -15.6718 C   0  0  0  0  0  0  0  0  0  0  0  0
    9.7384    1.5042  -15.2298 C   0  0  0  0  0  0  0  0  0  0  0  0
   10.8222    1.5805  -16.2934 C   0  0  0  0  0  0  0  0  0  0  0  0
   10.9503    0.5276  -17.2237 C   0  0  0  0  0  0  0  0  0  0  0  0
   11.9098    0.6026  -18.2490 C   0  0  0  0  0  0  0  0  0  0  0  0
   12.7451    1.7317  -18.3454 C   0  0  0  0  0  0  0  0  0  0  0  0
   12.6288    2.7783  -17.4105 C   0  0  0  0  0  0  0  0  0  0  0  0
   11.6612    2.7164  -16.3771 C   0  0  0  0  0  0  0  0  0  0  0  0
   11.4669    3.7075  -15.4371 O   0  0  0  0  0  0  0  0  0  0  0  0
   12.2292    4.9053  -15.4975 C   0  0  0  0  0  0  0  0  0  0  0  0
   11.4560    6.0010  -14.7556 C   0  0  0  0  0  0  0  0  0  0  0  0
   11.2621    5.7456  -13.2517 C   0  0  0  0  0  0  0  0  0  0  0  0
   10.3065    6.7754  -12.6214 C   0  0  0  0  0  0  0  0  0  0  0  0
   10.2282    6.6892  -11.1628 N   0  0  0  0  0  0  0  0  0  0  0  0
    9.3321    5.6044  -10.7399 C   0  0  0  0  0  0  0  0  0  0  0  0
    9.3183    5.5080   -9.2011 C   0  0  0  0  0  0  0  0  0  0  0  0
    8.8860    6.7929   -8.6009 N   0  0  0  0  0  0  0  0  0  0  0  0
    8.7918    6.7502   -7.1256 C   0  0  0  0  0  0  0  0  0  0  0  0
    9.7104    7.9164   -9.0989 C   0  0  0  0  0  0  0  0  0  0  0  0
    9.6908    7.9456  -10.6368 C   0  0  0  0  0  0  0  0  0  0  0  0
    6.5689    1.0995  -14.5179 C   0  0  0  0  0  0  0  0  0  0  0  0
    3.7492   -1.6098  -14.3567 H   0  0  0  0  0  0  0  0  0  0  0  0
    4.5433   -0.5096  -15.4685 H   0  0  0  0  0  0  0  0  0  0  0  0
    5.5116   -1.5971  -14.4413 H   0  0  0  0  0  0  0  0  0  0  0  0
    4.4872    2.1726  -12.0394 H   0  0  0  0  0  0  0  0  0  0  0  0
    5.8887    4.2093  -12.2720 H   0  0  0  0  0  0  0  0  0  0  0  0
    7.7254    4.2704  -13.9442 H   0  0  0  0  0  0  0  0  0  0  0  0
    8.7614    3.3242  -15.8745 H   0  0  0  0  0  0  0  0  0  0  0  0
    8.1138    1.8808  -16.6149 H   0  0  0  0  0  0  0  0  0  0  0  0
    9.4836    0.4607  -15.0421 H   0  0  0  0  0  0  0  0  0  0  0  0
   10.1212    1.8983  -14.2883 H   0  0  0  0  0  0  0  0  0  0  0  0
   10.3081   -0.3383  -17.1556 H   0  0  0  0  0  0  0  0  0  0  0  0
   12.0026   -0.2024  -18.9617 H   0  0  0  0  0  0  0  0  0  0  0  0
   13.4846    1.7892  -19.1319 H   0  0  0  0  0  0  0  0  0  0  0  0
   13.3075    3.6093  -17.5105 H   0  0  0  0  0  0  0  0  0  0  0  0
   13.2190    4.7503  -15.0630 H   0  0  0  0  0  0  0  0  0  0  0  0
   12.3611    5.2486  -16.5249 H   0  0  0  0  0  0  0  0  0  0  0  0
   11.9645    6.9539  -14.8975 H   0  0  0  0  0  0  0  0  0  0  0  0
   10.4845    6.1056  -15.2369 H   0  0  0  0  0  0  0  0  0  0  0  0
   10.8818    4.7351  -13.0930 H   0  0  0  0  0  0  0  0  0  0  0  0
   12.2403    5.8000  -12.7738 H   0  0  0  0  0  0  0  0  0  0  0  0
   10.6786    7.7650  -12.8875 H   0  0  0  0  0  0  0  0  0  0  0  0
    9.3062    6.6740  -13.0466 H   0  0  0  0  0  0  0  0  0  0  0  0
    8.3198    5.7738  -11.1178 H   0  0  0  0  0  0  0  0  0  0  0  0
    9.6707    4.6540  -11.1540 H   0  0  0  0  0  0  0  0  0  0  0  0
    8.6352    4.7163   -8.8921 H   0  0  0  0  0  0  0  0  0  0  0  0
   10.3092    5.2398   -8.8301 H   0  0  0  0  0  0  0  0  0  0  0  0
    9.7614    6.5461   -6.6727 H   0  0  0  0  0  0  0  0  0  0  0  0
    8.4192    7.6996   -6.7389 H   0  0  0  0  0  0  0  0  0  0  0  0
    8.0899    5.9761   -6.8142 H   0  0  0  0  0  0  0  0  0  0  0  0
    9.3154    8.8572   -8.7136 H   0  0  0  0  0  0  0  0  0  0  0  0
   10.7349    7.8203   -8.7336 H   0  0  0  0  0  0  0  0  0  0  0  0
   10.3053    8.7819  -10.9762 H   0  0  0  0  0  0  0  0  0  0  0  0
    8.6776    8.1216  -11.0111 H   0  0  0  0  0  0  0  0  0  0  0  0
    6.7780    0.2542  -15.1560 H   0  0  0  0  0  0  0  0  0  0  0  0
    7.9391    6.9735   -8.9334 H   0  0  0  0  0  0  0  0  0  0  0  0
  2  1  1  0
  3  2  1  0
  4  3  1  0
  5  4  2  0
  6  5  1  0
  7  6  2  0
  8  7  1  0
  9  8  1  0
 10  9  1  0
 11 10  2  0
 12 11  1  0
 13 12  2  0
 14 13  1  0
 15 10  1  0
 15 14  2  0
 16 15  1  0
 17 16  1  0
 18 17  1  0
 19 18  1  0
 20 19  1  0
 21 20  1  0
 22 21  1  0
 23 22  1  0
 24 23  1  0
 25 24  1  0
 26 24  1  0
 27 21  1  0
 27 26  1  0
 28  3  2  0
 28  7  1  0
 29  1  1  0
 30  1  1  0
 31  1  1  0
 32  4  1  0
 33  5  1  0
 34  6  1  0
 35  8  1  0
 36  8  1  0
 37  9  1  0
 38  9  1  0
 39 11  1  0
 40 12  1  0
 41 13  1  0
 42 14  1  0
 43 17  1  0
 44 17  1  0
 45 18  1  0
 46 18  1  0
 47 19  1  0
 48 19  1  0
 49 20  1  0
 50 20  1  0
 51 22  1  0
 52 22  1  0
 53 23  1  0
 54 23  1  0
 55 25  1  0
 56 25  1  0
 57 25  1  0
 58 26  1  0
 59 26  1  0
 60 27  1  0
 61 27  1  0
 62 28  1  0
 63 24  1  0
M  CHG  1  24   1
M  END
>  <b_m_subgroup_collapsed>  (937) 
0

>  <r_i_docking_score>  (937) 
-7.1019918733853498

>  <s_m_subgroup_title>  (937) 
glide-dock_SP_D22_pv

>  <s_m_subgroupid>  (937) 
glide-dock_SP_D22_pv

>  <Molecule ChEMBL ID>  (937) 
CHEMBL486534

>  <Standard Type>  (937) 
Ki

>  <Standard Value>  (937) 
1000000.0

>  <label>  (937) 
0

$$$$
CHEMBL100461
     RDKit          3D

 36 37  0  0  1  0  0  0  0  0999 V2000
   12.0860    9.8987   -3.0469 O   0  0  0  0  0  0  0  0  0  0  0  0
   11.6636    9.0779   -4.0467 C   0  0  0  0  0  0  0  0  0  0  0  0
   11.8228    7.6897   -3.9132 C   0  0  0  0  0  0  0  0  0  0  0  0
   11.3051    6.8374   -4.9013 C   0  0  0  0  0  0  0  0  0  0  0  0
   10.6293    7.3449   -6.0267 C   0  0  0  0  0  0  0  0  0  0  0  0
   10.1404    6.4073   -6.9049 O   0  0  0  0  0  0  0  0  0  0  0  0
    9.0252    6.7080   -7.7314 C   0  0  0  0  0  0  0  0  0  0  0  0
    9.5066    6.7229   -9.1893 C   0  0  0  0  0  0  0  0  0  0  0  0
    8.4860    6.1723  -10.1040 N   0  0  0  0  0  0  0  0  0  0  0  0
    8.8115    6.3170  -11.5338 C   0  0  0  0  0  0  0  0  0  0  0  0
    8.0451    5.3029  -12.3574 C   0  0  0  0  0  0  0  0  0  0  0  0
    8.7430    4.3233  -13.0949 C   0  0  0  0  0  0  0  0  0  0  0  0
    8.0346    3.3681  -13.8469 C   0  0  0  0  0  0  0  0  0  0  0  0
    6.6271    3.3723  -13.8469 C   0  0  0  0  0  0  0  0  0  0  0  0
    5.9274    4.3496  -13.1143 C   0  0  0  0  0  0  0  0  0  0  0  0
    6.6336    5.3224  -12.3808 C   0  0  0  0  0  0  0  0  0  0  0  0
   10.5128    8.7472   -6.1832 C   0  0  0  0  0  0  0  0  0  0  0  0
   11.0290    9.6091   -5.1901 C   0  0  0  0  0  0  0  0  0  0  0  0
   12.5257    9.4645   -2.3319 H   0  0  0  0  0  0  0  0  0  0  0  0
   12.3108    7.2693   -3.0460 H   0  0  0  0  0  0  0  0  0  0  0  0
   11.4098    5.7723   -4.7797 H   0  0  0  0  0  0  0  0  0  0  0  0
    8.3166    5.8919   -7.5823 H   0  0  0  0  0  0  0  0  0  0  0  0
    8.4860    7.6174   -7.4636 H   0  0  0  0  0  0  0  0  0  0  0  0
    9.7777    7.7386   -9.4806 H   0  0  0  0  0  0  0  0  0  0  0  0
   10.4041    6.1105   -9.2907 H   0  0  0  0  0  0  0  0  0  0  0  0
    8.3156    5.1995   -9.8924 H   0  0  0  0  0  0  0  0  0  0  0  0
    8.5677    7.3280  -11.8638 H   0  0  0  0  0  0  0  0  0  0  0  0
    9.8822    6.1752  -11.6891 H   0  0  0  0  0  0  0  0  0  0  0  0
    9.8231    4.2954  -13.0883 H   0  0  0  0  0  0  0  0  0  0  0  0
    8.5719    2.6183  -14.4093 H   0  0  0  0  0  0  0  0  0  0  0  0
    6.0860    2.6294  -14.4135 H   0  0  0  0  0  0  0  0  0  0  0  0
    4.8485    4.3561  -13.1232 H   0  0  0  0  0  0  0  0  0  0  0  0
    6.0863    6.0736  -11.8277 H   0  0  0  0  0  0  0  0  0  0  0  0
   10.0272    9.1758   -7.0469 H   0  0  0  0  0  0  0  0  0  0  0  0
   10.9166   10.6785   -5.2952 H   0  0  0  0  0  0  0  0  0  0  0  0
    7.6118    6.6962   -9.9713 H   0  0  0  0  0  0  0  0  0  0  0  0
  2  1  1  0
  3  2  1  0
  4  3  2  0
  5  4  1  0
  6  5  1  0
  7  6  1  0
  8  7  1  0
  9  8  1  0
 10  9  1  0
 11 10  1  0
 12 11  2  0
 13 12  1  0
 14 13  2  0
 15 14  1  0
 16 11  1  0
 16 15  2  0
 17  5  2  0
 18  2  2  0
 18 17  1  0
 19  1  1  0
 20  3  1  0
 21  4  1  0
 22  7  1  0
 23  7  1  0
 24  8  1  0
 25  8  1  0
 26  9  1  0
 27 10  1  0
 28 10  1  0
 29 12  1  0
 30 13  1  0
 31 14  1  0
 32 15  1  0
 33 16  1  0
 34 17  1  0
 35 18  1  0
 36  9  1  0
M  CHG  1   9   1
M  END
>  <b_m_subgroup_collapsed>  (938) 
0

>  <r_i_docking_score>  (938) 
-7.1008022141389304

>  <s_m_subgroup_title>  (938) 
glide-dock_SP_D22_pv

>  <s_m_subgroupid>  (938) 
glide-dock_SP_D22_pv

>  <Molecule ChEMBL ID>  (938) 
CHEMBL100461

>  <Standard Type>  (938) 
Ki

>  <Standard Value>  (938) 
10000.0

>  <label>  (938) 
0

$$$$
CHEMBL476394
     RDKit          3D

 60 63  0  0  1  0  0  0  0  0999 V2000
   11.3476    6.0885   -7.0067 O   0  0  0  0  0  0  0  0  0  0  0  0
   10.9478    7.1510   -6.5493 C   0  0  0  0  0  0  0  0  0  0  0  0
   11.4110    7.5993   -5.1864 C   0  0  0  0  0  0  0  0  0  0  0  0
   11.2903    6.7134   -4.1006 C   0  0  0  0  0  0  0  0  0  0  0  0
   11.7362    7.0700   -2.8137 C   0  0  0  0  0  0  0  0  0  0  0  0
   12.3094    8.3362   -2.6030 C   0  0  0  0  0  0  0  0  0  0  0  0
   12.4637    9.2224   -3.6846 C   0  0  0  0  0  0  0  0  0  0  0  0
   12.0385    8.8522   -4.9802 C   0  0  0  0  0  0  0  0  0  0  0  0
   12.3390    9.7486   -6.1647 C   0  0  0  0  0  0  0  0  0  0  0  0
   11.0995   10.1723   -6.9535 C   0  0  0  0  0  0  0  0  0  0  0  0
    9.8333    9.3192   -6.8429 C   0  0  0  0  0  0  0  0  0  0  0  0
   10.0897    7.9401   -7.2257 N   0  0  0  0  0  0  0  0  0  0  0  0
    9.4448    7.4917   -8.4639 C   0  0  0  0  0  0  0  0  0  0  0  0
   10.3620    7.7356   -9.6735 C   0  0  0  0  0  0  0  0  0  0  0  0
    9.7289    7.3596  -11.0143 C   0  0  0  0  0  0  0  0  0  0  0  0
    9.3578    5.8689  -11.1129 C   0  0  0  0  0  0  0  0  0  0  0  0
    9.2193    5.4402  -12.5234 N   0  0  0  0  0  0  0  0  0  0  0  0
   10.5220    5.1858  -13.1953 C   0  0  0  0  0  0  0  0  0  0  0  0
   10.3366    4.9258  -14.7009 C   0  0  0  0  0  0  0  0  0  0  0  0
    9.2914    3.9362  -14.9480 N   0  0  0  0  0  0  0  0  0  0  0  0
    9.6869    2.6920  -15.4725 C   0  0  0  0  0  0  0  0  0  0  0  0
    9.4683    1.5109  -14.7279 C   0  0  0  0  0  0  0  0  0  0  0  0
    9.8632    0.2606  -15.2312 C   0  0  0  0  0  0  0  0  0  0  0  0
   10.4853    0.1720  -16.4870 C   0  0  0  0  0  0  0  0  0  0  0  0
   10.7139    1.3347  -17.2426 C   0  0  0  0  0  0  0  0  0  0  0  0
   11.4878    1.1839  -18.7797 Cl  0  0  0  0  0  0  0  0  0  0  0  0
   10.3064    2.5945  -16.7487 C   0  0  0  0  0  0  0  0  0  0  0  0
   10.5321    4.0007  -17.7394 Cl  0  0  0  0  0  0  0  0  0  0  0  0
    8.0472    4.0568  -14.1922 C   0  0  0  0  0  0  0  0  0  0  0  0
    8.3152    4.2805  -12.6961 C   0  0  0  0  0  0  0  0  0  0  0  0
   10.8203    5.7645   -4.2539 H   0  0  0  0  0  0  0  0  0  0  0  0
   11.6238    6.3748   -1.9934 H   0  0  0  0  0  0  0  0  0  0  0  0
   12.6477    8.6246   -1.6193 H   0  0  0  0  0  0  0  0  0  0  0  0
   12.9442   10.1722   -3.5122 H   0  0  0  0  0  0  0  0  0  0  0  0
   12.8859   10.6329   -5.8466 H   0  0  0  0  0  0  0  0  0  0  0  0
   13.0129    9.2165   -6.8363 H   0  0  0  0  0  0  0  0  0  0  0  0
   11.3222   10.1722   -8.0159 H   0  0  0  0  0  0  0  0  0  0  0  0
   10.8774   11.1886   -6.6468 H   0  0  0  0  0  0  0  0  0  0  0  0
    9.0912    9.7404   -7.5179 H   0  0  0  0  0  0  0  0  0  0  0  0
    9.4057    9.3713   -5.8471 H   0  0  0  0  0  0  0  0  0  0  0  0
    9.1900    6.4343   -8.3810 H   0  0  0  0  0  0  0  0  0  0  0  0
    8.4884    7.9952   -8.6099 H   0  0  0  0  0  0  0  0  0  0  0  0
   10.6346    8.7898   -9.7133 H   0  0  0  0  0  0  0  0  0  0  0  0
   11.2967    7.1871   -9.5505 H   0  0  0  0  0  0  0  0  0  0  0  0
    8.8412    7.9709  -11.1881 H   0  0  0  0  0  0  0  0  0  0  0  0
   10.4357    7.6414  -11.7931 H   0  0  0  0  0  0  0  0  0  0  0  0
   10.0865    5.2361  -10.6068 H   0  0  0  0  0  0  0  0  0  0  0  0
    8.4140    5.7222  -10.5833 H   0  0  0  0  0  0  0  0  0  0  0  0
   11.2125    6.0180  -13.0605 H   0  0  0  0  0  0  0  0  0  0  0  0
   10.9901    4.3151  -12.7367 H   0  0  0  0  0  0  0  0  0  0  0  0
   10.0709    5.8442  -15.2216 H   0  0  0  0  0  0  0  0  0  0  0  0
   11.2905    4.6031  -15.1215 H   0  0  0  0  0  0  0  0  0  0  0  0
    9.0050    1.5509  -13.7535 H   0  0  0  0  0  0  0  0  0  0  0  0
    9.6896   -0.6277  -14.6473 H   0  0  0  0  0  0  0  0  0  0  0  0
   10.7865   -0.7883  -16.8762 H   0  0  0  0  0  0  0  0  0  0  0  0
    7.5097    4.9202  -14.5805 H   0  0  0  0  0  0  0  0  0  0  0  0
    7.3995    3.1929  -14.3482 H   0  0  0  0  0  0  0  0  0  0  0  0
    8.7759    3.3993  -12.2507 H   0  0  0  0  0  0  0  0  0  0  0  0
    7.3680    4.4522  -12.1793 H   0  0  0  0  0  0  0  0  0  0  0  0
    8.7762    6.2099  -13.0033 H   0  0  0  0  0  0  0  0  0  0  0  0
  2  1  2  0
  3  2  1  0
  4  3  2  0
  5  4  1  0
  6  5  2  0
  7  6  1  0
  8  3  1  0
  8  7  2  0
  9  8  1  0
 10  9  1  0
 11 10  1  0
 12  2  1  0
 12 11  1  0
 13 12  1  0
 14 13  1  0
 15 14  1  0
 16 15  1  0
 17 16  1  0
 18 17  1  0
 19 18  1  0
 20 19  1  0
 21 20  1  0
 22 21  2  0
 23 22  1  0
 24 23  2  0
 25 24  1  0
 26 25  1  0
 27 21  1  0
 27 25  2  0
 28 27  1  0
 29 20  1  0
 30 17  1  0
 30 29  1  0
 31  4  1  0
 32  5  1  0
 33  6  1  0
 34  7  1  0
 35  9  1  0
 36  9  1  0
 37 10  1  0
 38 10  1  0
 39 11  1  0
 40 11  1  0
 41 13  1  0
 42 13  1  0
 43 14  1  0
 44 14  1  0
 45 15  1  0
 46 15  1  0
 47 16  1  0
 48 16  1  0
 49 18  1  0
 50 18  1  0
 51 19  1  0
 52 19  1  0
 53 22  1  0
 54 23  1  0
 55 24  1  0
 56 29  1  0
 57 29  1  0
 58 30  1  0
 59 30  1  0
 60 17  1  0
M  CHG  1  17   1
M  END
>  <b_m_subgroup_collapsed>  (939) 
0

>  <r_i_docking_score>  (939) 
-7.1007985680461099

>  <s_m_subgroup_title>  (939) 
glide-dock_SP_D22_pv

>  <s_m_subgroupid>  (939) 
glide-dock_SP_D22_pv

>  <Molecule ChEMBL ID>  (939) 
CHEMBL476394

>  <Standard Type>  (939) 
Ki

>  <Standard Value>  (939) 
36.31

>  <label>  (939) 
1

$$$$
CHEMBL4752919
     RDKit          3D

 56 58  0  0  1  0  0  0  0  0999 V2000
    9.9103   -0.9271  -17.1599 C   0  0  0  0  0  0  0  0  0  0  0  0
    9.8388    0.2581  -16.2110 C   0  0  0  0  0  0  0  0  0  0  0  0
   10.8863    0.7910  -15.8518 O   0  0  0  0  0  0  0  0  0  0  0  0
    8.6076    0.6177  -15.8025 N   0  0  0  0  0  0  0  0  0  0  0  0
    8.2143    1.7493  -15.0369 C   0  0  0  0  0  0  0  0  0  0  0  0
    9.0585    2.8534  -14.7669 C   0  0  0  0  0  0  0  0  0  0  0  0
    8.5770    3.9594  -14.0432 C   0  0  0  0  0  0  0  0  0  0  0  0
    7.2405    3.9940  -13.5809 C   0  0  0  0  0  0  0  0  0  0  0  0
    6.6740    5.0513  -12.9026 O   0  0  0  0  0  0  0  0  0  0  0  0
    7.4648    6.1997  -12.6087 C   0  0  0  0  0  0  0  0  0  0  0  0
    8.3441    5.9576  -11.3778 C   0  0  0  0  0  0  0  0  0  0  0  0
    9.1503    7.2094  -10.9838 C   0  0  0  0  0  0  0  0  0  0  0  0
   10.0863    6.9695   -9.8872 N   0  0  0  0  0  0  0  0  0  0  0  0
    9.3967    6.5612   -8.6525 C   0  0  0  0  0  0  0  0  0  0  0  0
   10.4295    6.2541   -7.5531 C   0  0  0  0  0  0  0  0  0  0  0  0
   11.2855    7.4096   -7.3394 N   0  0  0  0  0  0  0  0  0  0  0  0
   11.2866    8.0683   -6.1038 C   0  0  0  0  0  0  0  0  0  0  0  0
   11.1511    9.4693   -6.0425 C   0  0  0  0  0  0  0  0  0  0  0  0
   11.2859   10.1398   -4.8197 C   0  0  0  0  0  0  0  0  0  0  0  0
   11.5790    9.4235   -3.6472 C   0  0  0  0  0  0  0  0  0  0  0  0
   11.6861    8.0150   -3.6807 C   0  0  0  0  0  0  0  0  0  0  0  0
   11.9903    7.2383   -2.4083 C   0  0  0  0  0  0  0  0  0  0  0  0
   10.8885    6.6582   -1.9328 F   0  0  0  0  0  0  0  0  0  0  0  0
   12.8860    6.2840   -2.6474 F   0  0  0  0  0  0  0  0  0  0  0  0
   12.4862    8.0630   -1.4832 F   0  0  0  0  0  0  0  0  0  0  0  0
   11.5134    7.3412   -4.9099 C   0  0  0  0  0  0  0  0  0  0  0  0
   11.8621    8.0215   -8.5342 C   0  0  0  0  0  0  0  0  0  0  0  0
   10.7844    8.2327   -9.6086 C   0  0  0  0  0  0  0  0  0  0  0  0
    6.4083    2.8898  -13.8468 C   0  0  0  0  0  0  0  0  0  0  0  0
    6.8863    1.7793  -14.5681 C   0  0  0  0  0  0  0  0  0  0  0  0
   10.0867   -1.8286  -16.5827 H   0  0  0  0  0  0  0  0  0  0  0  0
    8.9875   -1.0414  -17.7336 H   0  0  0  0  0  0  0  0  0  0  0  0
   10.7389   -0.8059  -17.8616 H   0  0  0  0  0  0  0  0  0  0  0  0
    7.8581    0.0012  -16.0874 H   0  0  0  0  0  0  0  0  0  0  0  0
   10.0759    2.8924  -15.1172 H   0  0  0  0  0  0  0  0  0  0  0  0
    9.2629    4.7749  -13.8711 H   0  0  0  0  0  0  0  0  0  0  0  0
    6.7698    7.0136  -12.4008 H   0  0  0  0  0  0  0  0  0  0  0  0
    8.0496    6.5284  -13.4684 H   0  0  0  0  0  0  0  0  0  0  0  0
    9.0244    5.1247  -11.5479 H   0  0  0  0  0  0  0  0  0  0  0  0
    7.6803    5.6554  -10.5707 H   0  0  0  0  0  0  0  0  0  0  0  0
    8.4863    8.0330  -10.7268 H   0  0  0  0  0  0  0  0  0  0  0  0
    9.7227    7.5370  -11.8530 H   0  0  0  0  0  0  0  0  0  0  0  0
    8.8135    5.6552   -8.8123 H   0  0  0  0  0  0  0  0  0  0  0  0
    8.6983    7.3357   -8.3287 H   0  0  0  0  0  0  0  0  0  0  0  0
   11.0434    5.4018   -7.8437 H   0  0  0  0  0  0  0  0  0  0  0  0
    9.9087    5.9793   -6.6368 H   0  0  0  0  0  0  0  0  0  0  0  0
   10.9524   10.0440   -6.9340 H   0  0  0  0  0  0  0  0  0  0  0  0
   11.1753   11.2134   -4.7892 H   0  0  0  0  0  0  0  0  0  0  0  0
   11.6959    9.9637   -2.7191 H   0  0  0  0  0  0  0  0  0  0  0  0
   11.6191    6.2668   -4.9407 H   0  0  0  0  0  0  0  0  0  0  0  0
   12.3587    8.9646   -8.3103 H   0  0  0  0  0  0  0  0  0  0  0  0
   12.6435    7.3725   -8.9241 H   0  0  0  0  0  0  0  0  0  0  0  0
   11.2568    8.6033  -10.5217 H   0  0  0  0  0  0  0  0  0  0  0  0
   10.0741    8.9968   -9.2850 H   0  0  0  0  0  0  0  0  0  0  0  0
    5.3838    2.9013  -13.5001 H   0  0  0  0  0  0  0  0  0  0  0  0
    6.2175    0.9502  -14.7640 H   0  0  0  0  0  0  0  0  0  0  0  0
  2  1  1  0
  3  2  2  0
  4  2  1  0
  5  4  1  0
  6  5  1  0
  7  6  2  0
  8  7  1  0
  9  8  1  0
 10  9  1  0
 11 10  1  0
 12 11  1  0
 13 12  1  0
 14 13  1  0
 15 14  1  0
 16 15  1  0
 17 16  1  0
 18 17  1  0
 19 18  2  0
 20 19  1  0
 21 20  2  0
 22 21  1  0
 23 22  1  0
 24 22  1  0
 25 22  1  0
 26 17  2  0
 26 21  1  0
 27 16  1  0
 28 13  1  0
 28 27  1  0
 29  8  2  0
 30  5  2  0
 30 29  1  0
 31  1  1  0
 32  1  1  0
 33  1  1  0
 34  4  1  0
 35  6  1  0
 36  7  1  0
 37 10  1  0
 38 10  1  0
 39 11  1  0
 40 11  1  0
 41 12  1  0
 42 12  1  0
 43 14  1  0
 44 14  1  0
 45 15  1  0
 46 15  1  0
 47 18  1  0
 48 19  1  0
 49 20  1  0
 50 26  1  0
 51 27  1  0
 52 27  1  0
 53 28  1  0
 54 28  1  0
 55 29  1  0
 56 30  1  0
M  END
>  <b_m_subgroup_collapsed>  (940) 
0

>  <r_i_docking_score>  (940) 
-7.0979065400342396

>  <s_m_subgroup_title>  (940) 
glide-dock_SP_D22_pv

>  <s_m_subgroupid>  (940) 
glide-dock_SP_D22_pv

>  <Molecule ChEMBL ID>  (940) 
CHEMBL4752919

>  <Standard Type>  (940) 
Ki

>  <Standard Value>  (940) 
10000.0

>  <label>  (940) 
0

$$$$
CHEMBL4745313
     RDKit          3D

 52 54  0  0  1  0  0  0  0  0999 V2000
    5.0464   -1.5020  -15.0495 C   0  0  0  0  0  0  0  0  0  0  0  0
    5.2725   -0.1782  -14.3250 C   0  0  0  0  0  0  0  0  0  0  0  0
    4.4862    0.1663  -13.4465 O   0  0  0  0  0  0  0  0  0  0  0  0
    6.3576    0.5215  -14.7068 N   0  0  0  0  0  0  0  0  0  0  0  0
    6.8393    1.7816  -14.2474 C   0  0  0  0  0  0  0  0  0  0  0  0
    8.1421    2.1405  -14.6508 C   0  0  0  0  0  0  0  0  0  0  0  0
    8.7099    3.3622  -14.2458 C   0  0  0  0  0  0  0  0  0  0  0  0
    7.9994    4.2472  -13.4126 C   0  0  0  0  0  0  0  0  0  0  0  0
    8.6512    5.4068  -13.0427 O   0  0  0  0  0  0  0  0  0  0  0  0
    8.3370    6.0069  -11.7875 C   0  0  0  0  0  0  0  0  0  0  0  0
    8.9202    5.1762  -10.6268 C   0  0  0  0  0  0  0  0  0  0  0  0
    8.5262    5.7080   -9.2403 C   0  0  0  0  0  0  0  0  0  0  0  0
    9.5343    6.6197   -8.6846 N   0  0  0  0  0  0  0  0  0  0  0  0
   10.4359    5.8253   -7.8501 C   0  0  0  0  0  0  0  0  0  0  0  0
   11.5240    6.7075   -7.2293 C   0  0  0  0  0  0  0  0  0  0  0  0
   10.8919    7.7334   -6.4186 N   0  0  0  0  0  0  0  0  0  0  0  0
   11.2876    7.9885   -5.0955 C   0  0  0  0  0  0  0  0  0  0  0  0
   11.6860    6.9286   -4.2481 C   0  0  0  0  0  0  0  0  0  0  0  0
   12.0860    7.2136   -2.9304 C   0  0  0  0  0  0  0  0  0  0  0  0
   12.0950    8.5516   -2.5066 C   0  0  0  0  0  0  0  0  0  0  0  0
   11.6863    9.5400   -3.4190 C   0  0  0  0  0  0  0  0  0  0  0  0
   11.2863    9.2748   -4.6786 N   0  0  0  0  0  0  0  0  0  0  0  0
    9.9093    8.5426   -7.1221 C   0  0  0  0  0  0  0  0  0  0  0  0
    8.8857    7.6192   -7.8203 C   0  0  0  0  0  0  0  0  0  0  0  0
    6.6789    3.9067  -13.0262 C   0  0  0  0  0  0  0  0  0  0  0  0
    6.0980    2.6897  -13.4473 C   0  0  0  0  0  0  0  0  0  0  0  0
    5.6861   -2.2762  -14.6260 H   0  0  0  0  0  0  0  0  0  0  0  0
    4.0090   -1.8260  -14.9560 H   0  0  0  0  0  0  0  0  0  0  0  0
    5.2695   -1.4117  -16.1132 H   0  0  0  0  0  0  0  0  0  0  0  0
    6.9358    0.0669  -15.3988 H   0  0  0  0  0  0  0  0  0  0  0  0
    8.7206    1.4744  -15.2732 H   0  0  0  0  0  0  0  0  0  0  0  0
    9.7131    3.6164  -14.5578 H   0  0  0  0  0  0  0  0  0  0  0  0
    7.2655    6.1699  -11.6754 H   0  0  0  0  0  0  0  0  0  0  0  0
    8.7886    6.9997  -11.7733 H   0  0  0  0  0  0  0  0  0  0  0  0
   10.0016    5.0774  -10.7242 H   0  0  0  0  0  0  0  0  0  0  0  0
    8.5160    4.1724  -10.7089 H   0  0  0  0  0  0  0  0  0  0  0  0
    8.3553    4.8734   -8.5567 H   0  0  0  0  0  0  0  0  0  0  0  0
    7.5539    6.1722   -9.3293 H   0  0  0  0  0  0  0  0  0  0  0  0
   10.8857    5.0241   -8.4360 H   0  0  0  0  0  0  0  0  0  0  0  0
    9.8571    5.3723   -7.0472 H   0  0  0  0  0  0  0  0  0  0  0  0
   12.0979    7.1993   -8.0136 H   0  0  0  0  0  0  0  0  0  0  0  0
   12.2207    6.0961   -6.6580 H   0  0  0  0  0  0  0  0  0  0  0  0
   11.6592    5.9021   -4.5800 H   0  0  0  0  0  0  0  0  0  0  0  0
   12.3812    6.4175   -2.2622 H   0  0  0  0  0  0  0  0  0  0  0  0
   12.3922    8.8194   -1.5041 H   0  0  0  0  0  0  0  0  0  0  0  0
   11.6685   10.5728   -3.1152 H   0  0  0  0  0  0  0  0  0  0  0  0
    9.3880    9.2020   -6.4315 H   0  0  0  0  0  0  0  0  0  0  0  0
   10.4173    9.1727   -7.8520 H   0  0  0  0  0  0  0  0  0  0  0  0
    8.2228    8.2367   -8.4221 H   0  0  0  0  0  0  0  0  0  0  0  0
    8.2670    7.1210   -7.0719 H   0  0  0  0  0  0  0  0  0  0  0  0
    6.0887    4.5646  -12.4055 H   0  0  0  0  0  0  0  0  0  0  0  0
    5.0891    2.4749  -13.1361 H   0  0  0  0  0  0  0  0  0  0  0  0
  2  1  1  0
  3  2  2  0
  4  2  1  0
  5  4  1  0
  6  5  1  0
  7  6  2  0
  8  7  1  0
  9  8  1  0
 10  9  1  0
 11 10  1  0
 12 11  1  0
 13 12  1  0
 14 13  1  0
 15 14  1  0
 16 15  1  0
 17 16  1  0
 18 17  2  0
 19 18  1  0
 20 19  2  0
 21 20  1  0
 22 17  1  0
 22 21  2  0
 23 16  1  0
 24 13  1  0
 24 23  1  0
 25  8  2  0
 26  5  2  0
 26 25  1  0
 27  1  1  0
 28  1  1  0
 29  1  1  0
 30  4  1  0
 31  6  1  0
 32  7  1  0
 33 10  1  0
 34 10  1  0
 35 11  1  0
 36 11  1  0
 37 12  1  0
 38 12  1  0
 39 14  1  0
 40 14  1  0
 41 15  1  0
 42 15  1  0
 43 18  1  0
 44 19  1  0
 45 20  1  0
 46 21  1  0
 47 23  1  0
 48 23  1  0
 49 24  1  0
 50 24  1  0
 51 25  1  0
 52 26  1  0
M  END
>  <b_m_subgroup_collapsed>  (941) 
0

>  <r_i_docking_score>  (941) 
-7.0958481025000202

>  <s_m_subgroup_title>  (941) 
glide-dock_SP_D22_pv

>  <s_m_subgroupid>  (941) 
glide-dock_SP_D22_pv

>  <Molecule ChEMBL ID>  (941) 
CHEMBL4745313

>  <Standard Type>  (941) 
Ki

>  <Standard Value>  (941) 
10000.0

>  <label>  (941) 
0

$$$$
CHEMBL2432050
     RDKit          3D

 47 52  0  0  1  0  0  0  0  0999 V2000
   10.9202    0.8705  -16.3894 F   0  0  0  0  0  0  0  0  0  0  0  0
   10.8864    2.1153  -15.8577 C   0  0  0  0  0  0  0  0  0  0  0  0
   11.4774    3.1938  -16.5418 C   0  0  0  0  0  0  0  0  0  0  0  0
   11.4373    4.4865  -15.9836 C   0  0  0  0  0  0  0  0  0  0  0  0
   10.8112    4.7034  -14.7396 C   0  0  0  0  0  0  0  0  0  0  0  0
   10.2239    3.6215  -14.0410 C   0  0  0  0  0  0  0  0  0  0  0  0
    9.5507    3.7814  -12.6824 C   0  0  0  0  0  0  0  0  0  0  0  0
    9.4724    5.2116  -12.1172 C   0  0  0  0  0  0  0  0  0  0  0  0
    8.9193    5.2365  -10.6834 C   0  0  0  0  0  0  0  0  0  0  0  0
    8.8860    6.6161  -10.1536 N   0  0  0  0  0  0  0  0  0  0  0  0
    9.1829    6.7551   -8.7179 C   0  0  1  0  0  0  0  0  0  0  0  0
   10.7063    6.6122   -8.4165 C   0  0  2  0  0  0  0  0  0  0  0  0
   11.0584    6.8615   -6.8868 C   0  0  2  0  0  0  0  0  0  0  0  0
    9.7957    7.1634   -6.0644 C   0  0  0  0  0  0  0  0  0  0  0  0
    9.2844    8.4033   -6.7771 C   0  0  1  0  0  0  0  0  0  0  0  0
   10.5429    9.1591   -7.1895 C   0  0  1  0  0  0  0  0  0  0  0  0
   11.7372    8.2621   -6.9216 C   0  0  2  0  0  0  0  0  0  0  0  0
   12.5219    8.2139   -8.2240 C   0  0  0  0  0  0  0  0  0  0  0  0
   11.3029    7.8861   -9.0709 C   0  0  2  0  0  0  0  0  0  0  0  0
   10.2534    8.9096   -8.6556 C   0  0  1  0  0  0  0  0  0  0  0  0
    8.9714    8.1878   -8.2709 C   0  0  1  0  0  0  0  0  0  0  0  0
   10.2662    2.3321  -14.6136 C   0  0  0  0  0  0  0  0  0  0  0  0
   11.9592    3.0289  -17.4937 H   0  0  0  0  0  0  0  0  0  0  0  0
   11.8914    5.3133  -16.5105 H   0  0  0  0  0  0  0  0  0  0  0  0
   10.7967    5.7061  -14.3385 H   0  0  0  0  0  0  0  0  0  0  0  0
    8.5431    3.3729  -12.7594 H   0  0  0  0  0  0  0  0  0  0  0  0
   10.0854    3.1435  -11.9791 H   0  0  0  0  0  0  0  0  0  0  0  0
   10.4696    5.6534  -12.1083 H   0  0  0  0  0  0  0  0  0  0  0  0
    8.8542    5.8300  -12.7697 H   0  0  0  0  0  0  0  0  0  0  0  0
    7.9110    4.8191  -10.6420 H   0  0  0  0  0  0  0  0  0  0  0  0
    9.5425    4.6011  -10.0524 H   0  0  0  0  0  0  0  0  0  0  0  0
    9.5181    7.2069  -10.6694 H   0  0  0  0  0  0  0  0  0  0  0  0
    8.5609    6.0511   -8.1632 H   0  0  0  0  0  0  0  0  0  0  0  0
   11.1245    5.6879   -8.7866 H   0  0  0  0  0  0  0  0  0  0  0  0
   11.6912    6.0825   -6.4596 H   0  0  0  0  0  0  0  0  0  0  0  0
    9.0785    6.3430   -6.0331 H   0  0  0  0  0  0  0  0  0  0  0  0
   10.0861    7.3915   -5.0467 H   0  0  0  0  0  0  0  0  0  0  0  0
    8.5244    8.9723   -6.2483 H   0  0  0  0  0  0  0  0  0  0  0  0
   10.6121   10.1972   -6.8801 H   0  0  0  0  0  0  0  0  0  0  0  0
   12.2853    8.5724   -6.0303 H   0  0  0  0  0  0  0  0  0  0  0  0
   12.9756    9.1687   -8.4815 H   0  0  0  0  0  0  0  0  0  0  0  0
   13.2832    7.4343   -8.2475 H   0  0  0  0  0  0  0  0  0  0  0  0
   11.4797    7.8213  -10.1446 H   0  0  0  0  0  0  0  0  0  0  0  0
   10.1359    9.7738   -9.2986 H   0  0  0  0  0  0  0  0  0  0  0  0
    8.0880    8.7187   -8.6068 H   0  0  0  0  0  0  0  0  0  0  0  0
    9.8250    1.4966  -14.0900 H   0  0  0  0  0  0  0  0  0  0  0  0
    7.9364    6.9886  -10.2584 H   0  0  0  0  0  0  0  0  0  0  0  0
  2  1  1  0
  3  2  1  0
  4  3  2  0
  5  4  1  0
  6  5  2  0
  7  6  1  0
  8  7  1  0
  9  8  1  0
 10  9  1  0
 11 10  1  0
 12 11  1  0
 13 12  1  0
 14 13  1  0
 15 14  1  0
 16 15  1  0
 17 13  1  0
 17 16  1  0
 18 17  1  0
 19 12  1  0
 19 18  1  0
 20 16  1  0
 20 19  1  0
 21 11  1  0
 21 15  1  0
 21 20  1  0
 22  2  2  0
 22  6  1  0
 23  3  1  0
 24  4  1  0
 25  5  1  0
 26  7  1  0
 27  7  1  0
 28  8  1  0
 29  8  1  0
 30  9  1  0
 31  9  1  0
 32 10  1  0
 11 33  1  1
 12 34  1  6
 13 35  1  1
 36 14  1  0
 37 14  1  0
 15 38  1  1
 16 39  1  6
 17 40  1  1
 41 18  1  0
 42 18  1  0
 19 43  1  6
 20 44  1  6
 21 45  1  6
 46 22  1  0
 47 10  1  0
M  CHG  1  10   1
M  END
>  <b_m_subgroup_collapsed>  (942) 
0

>  <r_i_docking_score>  (942) 
-7.0915560246301101

>  <s_m_subgroup_title>  (942) 
glide-dock_SP_D22_pv

>  <s_m_subgroupid>  (942) 
glide-dock_SP_D22_pv

>  <Molecule ChEMBL ID>  (942) 
CHEMBL2432050

>  <Standard Type>  (942) 
Ki

>  <Standard Value>  (942) 
10000.0

>  <label>  (942) 
0

$$$$
CHEMBL316125
     RDKit          3D

 58 61  0  0  1  0  0  0  0  0999 V2000
   10.8874    7.0316  -12.6469 C   0  0  0  0  0  0  0  0  0  0  0  0
    9.8976    6.3257  -11.7518 C   0  0  0  0  0  0  0  0  0  0  0  0
    9.2333    5.1882  -11.9635 C   0  0  0  0  0  0  0  0  0  0  0  0
    9.2658    4.2570  -13.0997 C   0  0  0  0  0  0  0  0  0  0  0  0
   10.4860    3.8845  -13.7018 C   0  0  0  0  0  0  0  0  0  0  0  0
   10.4950    2.9641  -14.7680 C   0  0  0  0  0  0  0  0  0  0  0  0
    9.2844    2.4197  -15.2385 C   0  0  0  0  0  0  0  0  0  0  0  0
    8.0641    2.8004  -14.6467 C   0  0  0  0  0  0  0  0  0  0  0  0
    8.0530    3.7245  -13.5835 C   0  0  0  0  0  0  0  0  0  0  0  0
    8.6417    4.8801  -10.7641 N   0  0  0  0  0  0  0  0  0  0  0  0
    8.9861    5.7663   -9.8281 C   0  0  0  0  0  0  0  0  0  0  0  0
    8.7467    5.6352   -8.6343 O   0  0  0  0  0  0  0  0  0  0  0  0
    9.6492    6.7688  -10.4531 N   0  0  0  0  0  0  0  0  0  0  0  0
    9.9635    8.1506  -10.0027 C   0  0  1  0  0  0  0  0  0  0  0  0
    9.1509    8.7071   -8.8208 C   0  0  0  0  0  0  0  0  0  0  0  0
    9.5459    8.2390   -7.4130 C   0  0  0  0  0  0  0  0  0  0  0  0
   11.0102    8.0518   -7.2146 N   0  0  1  0  0  0  0  0  0  0  0  0
   11.2862    7.1051   -6.1144 C   0  0  0  0  0  0  0  0  0  0  0  0
   11.3083    7.7928   -4.7534 C   0  0  0  0  0  0  0  0  0  0  0  0
   11.7944    6.7924   -3.6841 C   0  0  0  0  0  0  0  0  0  0  0  0
   11.7619    7.3117   -2.2469 C   0  0  0  0  0  0  0  0  0  0  0  0
   12.4418    8.6759   -2.1244 C   0  0  0  0  0  0  0  0  0  0  0  0
   11.9352    9.6525   -3.1879 C   0  0  0  0  0  0  0  0  0  0  0  0
   12.1011    9.1100   -4.6189 C   0  0  0  0  0  0  0  0  0  0  0  0
   11.7999    7.6622   -8.4041 C   0  0  0  0  0  0  0  0  0  0  0  0
   11.4341    8.4029   -9.6754 C   0  0  0  0  0  0  0  0  0  0  0  0
   10.8923    6.5944  -13.6449 H   0  0  0  0  0  0  0  0  0  0  0  0
   10.6189    8.0814  -12.7481 H   0  0  0  0  0  0  0  0  0  0  0  0
   11.9035    6.9412  -12.2674 H   0  0  0  0  0  0  0  0  0  0  0  0
   11.4213    4.2812  -13.3358 H   0  0  0  0  0  0  0  0  0  0  0  0
   11.4316    2.6704  -15.2203 H   0  0  0  0  0  0  0  0  0  0  0  0
    9.2920    1.7092  -16.0519 H   0  0  0  0  0  0  0  0  0  0  0  0
    7.1353    2.3837  -15.0091 H   0  0  0  0  0  0  0  0  0  0  0  0
    7.1135    4.0092  -13.1305 H   0  0  0  0  0  0  0  0  0  0  0  0
    8.1318    4.0251  -10.6020 H   0  0  0  0  0  0  0  0  0  0  0  0
    9.7006    8.7912  -10.8447 H   0  0  0  0  0  0  0  0  0  0  0  0
    9.2991    9.7723   -8.8366 H   0  0  0  0  0  0  0  0  0  0  0  0
    8.0860    8.5889   -8.9706 H   0  0  0  0  0  0  0  0  0  0  0  0
    8.9784    7.3587   -7.1318 H   0  0  0  0  0  0  0  0  0  0  0  0
    9.2036    8.9735   -6.6864 H   0  0  0  0  0  0  0  0  0  0  0  0
   10.5432    6.3050   -6.1072 H   0  0  0  0  0  0  0  0  0  0  0  0
   12.2037    6.5586   -6.2859 H   0  0  0  0  0  0  0  0  0  0  0  0
   10.2714    8.0613   -4.6468 H   0  0  0  0  0  0  0  0  0  0  0  0
   11.2508    5.8503   -3.7542 H   0  0  0  0  0  0  0  0  0  0  0  0
   12.8400    6.5725   -3.8851 H   0  0  0  0  0  0  0  0  0  0  0  0
   10.7478    7.3591   -1.8496 H   0  0  0  0  0  0  0  0  0  0  0  0
   12.2944    6.5962   -1.6220 H   0  0  0  0  0  0  0  0  0  0  0  0
   12.2697    9.0880   -1.1290 H   0  0  0  0  0  0  0  0  0  0  0  0
   13.5197    8.5722   -2.2233 H   0  0  0  0  0  0  0  0  0  0  0  0
   10.8859    9.8911   -3.0153 H   0  0  0  0  0  0  0  0  0  0  0  0
   12.4856   10.5724   -3.0468 H   0  0  0  0  0  0  0  0  0  0  0  0
   13.1600    8.9719   -4.8398 H   0  0  0  0  0  0  0  0  0  0  0  0
   11.7364    9.8593   -5.3223 H   0  0  0  0  0  0  0  0  0  0  0  0
   11.6689    6.5954   -8.5715 H   0  0  0  0  0  0  0  0  0  0  0  0
   12.8594    7.8166   -8.1947 H   0  0  0  0  0  0  0  0  0  0  0  0
   12.0971    8.0989  -10.4800 H   0  0  0  0  0  0  0  0  0  0  0  0
   11.6115    9.4714   -9.5440 H   0  0  0  0  0  0  0  0  0  0  0  0
   11.3768    8.9519   -6.9427 H   0  0  0  0  0  0  0  0  0  0  0  0
  2  1  1  0
  3  2  2  0
  4  3  1  0
  5  4  2  0
  6  5  1  0
  7  6  2  0
  8  7  1  0
  9  4  1  0
  9  8  2  0
 10  3  1  0
 11 10  1  0
 12 11  2  0
 13  2  1  0
 13 11  1  0
 14 13  1  0
 15 14  1  0
 16 15  1  0
 17 16  1  0
 18 17  1  0
 19 18  1  0
 20 19  1  0
 21 20  1  0
 22 21  1  0
 23 22  1  0
 24 19  1  0
 24 23  1  0
 25 17  1  0
 26 14  1  0
 26 25  1  0
 27  1  1  0
 28  1  1  0
 29  1  1  0
 30  5  1  0
 31  6  1  0
 32  7  1  0
 33  8  1  0
 34  9  1  0
 35 10  1  0
 14 36  1  6
 37 15  1  0
 38 15  1  0
 39 16  1  0
 40 16  1  0
 41 18  1  0
 42 18  1  0
 43 19  1  0
 44 20  1  0
 45 20  1  0
 46 21  1  0
 47 21  1  0
 48 22  1  0
 49 22  1  0
 50 23  1  0
 51 23  1  0
 52 24  1  0
 53 24  1  0
 54 25  1  0
 55 25  1  0
 56 26  1  0
 57 26  1  0
 17 58  1  1
M  CHG  1  17   1
M  END
>  <b_m_subgroup_collapsed>  (943) 
0

>  <r_i_docking_score>  (943) 
-7.0913823546250301

>  <s_m_subgroup_title>  (943) 
glide-dock_SP_D22_pv

>  <s_m_subgroupid>  (943) 
glide-dock_SP_D22_pv

>  <Molecule ChEMBL ID>  (943) 
CHEMBL316125

>  <Standard Type>  (943) 
Ki

>  <Standard Value>  (943) 
83.0

>  <label>  (943) 
1

$$$$
CHEMBL5722945
     RDKit          3D

 51 53  0  0  1  0  0  0  0  0999 V2000
   10.8837    1.6712  -15.1084 C   0  0  0  0  0  0  0  0  0  0  0  0
   10.0233    2.8920  -15.4500 C   0  0  0  0  0  0  0  0  0  0  0  0
   10.5011    4.0938  -14.7856 N   0  0  0  0  0  0  0  0  0  0  0  0
   11.4081    4.8556  -15.4234 N   0  0  0  0  0  0  0  0  0  0  0  0
   11.6421    5.8596  -14.5999 C   0  0  0  0  0  0  0  0  0  0  0  0
   12.6149    6.9258  -15.0154 C   0  0  0  0  0  0  0  0  0  0  0  0
   10.8893    5.7723  -13.3899 C   0  0  0  0  0  0  0  0  0  0  0  0
   10.9890    6.7993  -12.2730 C   0  0  0  0  0  0  0  0  0  0  0  0
   10.1755    6.5227  -11.0000 C   0  0  0  0  0  0  0  0  0  0  0  0
   10.6116    7.4233   -9.9439 N   0  0  0  0  0  0  0  0  0  0  0  0
    9.8785    7.1331   -8.7217 C   0  0  0  0  0  0  0  0  0  0  0  0
   10.4960    7.8278   -7.5206 C   0  0  0  0  0  0  0  0  0  0  0  0
   10.7832    9.1453   -7.4709 C   0  0  0  0  0  0  0  0  0  0  0  0
   11.3567    9.7719   -6.2536 C   0  0  0  0  0  0  0  0  0  0  0  0
   11.6758   10.9666   -6.2337 O   0  0  0  0  0  0  0  0  0  0  0  0
   11.5432    8.8540   -5.0861 C   0  0  0  0  0  0  0  0  0  0  0  0
   11.9702    9.3158   -3.8205 C   0  0  0  0  0  0  0  0  0  0  0  0
   12.2308    8.4027   -2.7752 C   0  0  0  0  0  0  0  0  0  0  0  0
   12.7359    8.8871   -1.4393 C   0  0  0  0  0  0  0  0  0  0  0  0
   12.0355    7.0255   -2.9751 C   0  0  0  0  0  0  0  0  0  0  0  0
   11.5429    6.5730   -4.2067 C   0  0  0  0  0  0  0  0  0  0  0  0
   11.2860    7.4716   -5.2515 C   0  0  0  0  0  0  0  0  0  0  0  0
   10.7700    6.9924   -6.4554 N   0  0  0  0  0  0  0  0  0  0  0  0
   10.1723    4.6045  -13.5393 C   0  0  0  0  0  0  0  0  0  0  0  0
    9.2124    3.8690  -12.6546 C   0  0  0  0  0  0  0  0  0  0  0  0
   10.4970    0.7730  -15.5892 H   0  0  0  0  0  0  0  0  0  0  0  0
   11.9072    1.8172  -15.4519 H   0  0  0  0  0  0  0  0  0  0  0  0
   10.9089    1.4907  -14.0339 H   0  0  0  0  0  0  0  0  0  0  0  0
    8.9833    2.7124  -15.1762 H   0  0  0  0  0  0  0  0  0  0  0  0
   10.0304    3.0585  -16.5290 H   0  0  0  0  0  0  0  0  0  0  0  0
   12.3260    7.9000  -14.6209 H   0  0  0  0  0  0  0  0  0  0  0  0
   13.6181    6.7065  -14.6488 H   0  0  0  0  0  0  0  0  0  0  0  0
   12.6708    7.0183  -16.1004 H   0  0  0  0  0  0  0  0  0  0  0  0
   10.6788    7.7730  -12.6469 H   0  0  0  0  0  0  0  0  0  0  0  0
   12.0372    6.9341  -12.0014 H   0  0  0  0  0  0  0  0  0  0  0  0
   10.3411    5.5015  -10.6572 H   0  0  0  0  0  0  0  0  0  0  0  0
    9.1083    6.6473  -11.1890 H   0  0  0  0  0  0  0  0  0  0  0  0
   10.4343    8.3797  -10.2183 H   0  0  0  0  0  0  0  0  0  0  0  0
    9.8644    6.0565   -8.5409 H   0  0  0  0  0  0  0  0  0  0  0  0
    8.8398    7.4516   -8.8308 H   0  0  0  0  0  0  0  0  0  0  0  0
   10.5883    9.7723   -8.3255 H   0  0  0  0  0  0  0  0  0  0  0  0
   12.0858   10.3701   -3.6357 H   0  0  0  0  0  0  0  0  0  0  0  0
   13.8187    8.9725   -1.4640 H   0  0  0  0  0  0  0  0  0  0  0  0
   12.3071    9.8513   -1.1802 H   0  0  0  0  0  0  0  0  0  0  0  0
   12.4870    8.1817   -0.6488 H   0  0  0  0  0  0  0  0  0  0  0  0
   12.2302    6.3150   -2.1852 H   0  0  0  0  0  0  0  0  0  0  0  0
   11.3482    5.5266   -4.3484 H   0  0  0  0  0  0  0  0  0  0  0  0
   10.5521    6.0077   -6.5286 H   0  0  0  0  0  0  0  0  0  0  0  0
    8.8504    4.4709  -11.8255 H   0  0  0  0  0  0  0  0  0  0  0  0
    8.3262    3.5576  -13.2071 H   0  0  0  0  0  0  0  0  0  0  0  0
    9.6860    2.9741  -12.2469 H   0  0  0  0  0  0  0  0  0  0  0  0
  2  1  1  0
  3  2  1  0
  4  3  1  0
  5  4  2  0
  6  5  1  0
  7  5  1  0
  8  7  1  0
  9  8  1  0
 10  9  1  0
 11 10  1  0
 12 11  1  0
 13 12  2  0
 14 13  1  0
 15 14  2  0
 16 14  1  0
 17 16  2  0
 18 17  1  0
 19 18  1  0
 20 18  2  0
 21 20  1  0
 22 16  1  0
 22 21  2  0
 23 12  1  0
 23 22  1  0
 24  3  1  0
 24  7  2  0
 25 24  1  0
 26  1  1  0
 27  1  1  0
 28  1  1  0
 29  2  1  0
 30  2  1  0
 31  6  1  0
 32  6  1  0
 33  6  1  0
 34  8  1  0
 35  8  1  0
 36  9  1  0
 37  9  1  0
 38 10  1  0
 39 11  1  0
 40 11  1  0
 41 13  1  0
 42 17  1  0
 43 19  1  0
 44 19  1  0
 45 19  1  0
 46 20  1  0
 47 21  1  0
 48 23  1  0
 49 25  1  0
 50 25  1  0
 51 25  1  0
M  END
>  <b_m_subgroup_collapsed>  (944) 
0

>  <r_i_docking_score>  (944) 
-7.08816677432515

>  <s_m_subgroup_title>  (944) 
glide-dock_SP_D22_pv

>  <s_m_subgroupid>  (944) 
glide-dock_SP_D22_pv

>  <Molecule ChEMBL ID>  (944) 
CHEMBL5722945

>  <Standard Type>  (944) 
Ki

>  <Standard Value>  (944) 
10000.0

>  <label>  (944) 
0

$$$$
CHEMBL553666
     RDKit          3D

 37 39  0  0  1  0  0  0  0  0999 V2000
    9.6858    4.6783  -12.1812 C   0  0  0  0  0  0  0  0  0  0  0  0
    9.8859    5.8827  -12.2178 C   0  0  0  0  0  0  0  0  0  0  0  0
   10.1531    7.3383  -12.2468 C   0  0  0  0  0  0  0  0  0  0  0  0
   10.4621    7.9686  -10.9618 N   0  0  0  0  0  0  0  0  0  0  0  0
    9.2857    7.9692  -10.0902 C   0  0  0  0  0  0  0  0  0  0  0  0
    9.5492    8.7318   -8.7872 C   0  0  0  0  0  0  0  0  0  0  0  0
   10.8044    8.2028   -8.0874 C   0  0  0  0  0  0  0  0  0  0  0  0
   11.9878    8.2096   -9.0638 C   0  0  0  0  0  0  0  0  0  0  0  0
   11.6175    7.3766  -10.2945 C   0  0  0  0  0  0  0  0  0  0  0  0
   10.5808    6.8570   -7.6788 O   0  0  0  0  0  0  0  0  0  0  0  0
   10.8857    6.7690   -6.3564 C   0  0  0  0  0  0  0  0  0  0  0  0
   11.2224    7.9082   -5.7473 C   0  0  0  0  0  0  0  0  0  0  0  0
   11.6860    8.0366   -4.3610 C   0  0  0  0  0  0  0  0  0  0  0  0
   11.6861    9.2881   -3.7124 C   0  0  0  0  0  0  0  0  0  0  0  0
   12.0861    9.3724   -2.3728 C   0  0  0  0  0  0  0  0  0  0  0  0
   12.4861    8.2229   -1.6778 C   0  0  0  0  0  0  0  0  0  0  0  0
   12.4812    6.9720   -2.3147 C   0  0  0  0  0  0  0  0  0  0  0  0
   12.0830    6.8808   -3.6544 C   0  0  0  0  0  0  0  0  0  0  0  0
   11.1322    8.9187   -6.7803 C   0  0  0  0  0  0  0  0  0  0  0  0
   11.2861   10.1341   -6.6587 O   0  0  0  0  0  0  0  0  0  0  0  0
    9.5187    3.6247  -12.1368 H   0  0  0  0  0  0  0  0  0  0  0  0
   10.9715    7.5130  -12.9456 H   0  0  0  0  0  0  0  0  0  0  0  0
    9.2658    7.8270  -12.6469 H   0  0  0  0  0  0  0  0  0  0  0  0
    8.4860    8.4684  -10.6285 H   0  0  0  0  0  0  0  0  0  0  0  0
    8.9527    6.9544   -9.8674 H   0  0  0  0  0  0  0  0  0  0  0  0
    9.6908    9.7723   -9.0443 H   0  0  0  0  0  0  0  0  0  0  0  0
    8.6776    8.6763   -8.1330 H   0  0  0  0  0  0  0  0  0  0  0  0
   12.2258    9.2296   -9.3665 H   0  0  0  0  0  0  0  0  0  0  0  0
   12.8821    7.8007   -8.5917 H   0  0  0  0  0  0  0  0  0  0  0  0
   11.3474    6.3731   -9.9678 H   0  0  0  0  0  0  0  0  0  0  0  0
   12.4625    7.3159  -10.9811 H   0  0  0  0  0  0  0  0  0  0  0  0
   10.8503    5.7723   -5.9550 H   0  0  0  0  0  0  0  0  0  0  0  0
   11.3648   10.1881   -4.2127 H   0  0  0  0  0  0  0  0  0  0  0  0
   12.0861   10.3258   -1.8750 H   0  0  0  0  0  0  0  0  0  0  0  0
   12.8077    8.2994   -0.6519 H   0  0  0  0  0  0  0  0  0  0  0  0
   12.7845    6.0828   -1.7813 H   0  0  0  0  0  0  0  0  0  0  0  0
   12.0856    5.9088   -4.1238 H   0  0  0  0  0  0  0  0  0  0  0  0
  2  1  3  0
  3  2  1  0
  4  3  1  0
  5  4  1  0
  6  5  1  0
  7  6  1  0
  8  7  1  0
  9  4  1  0
  9  8  1  0
 10  7  1  0
 11 10  1  0
 12 11  2  0
 13 12  1  0
 14 13  2  0
 15 14  1  0
 16 15  2  0
 17 16  1  0
 18 13  1  0
 18 17  2  0
 19  7  1  0
 19 12  1  0
 20 19  2  0
 21  1  1  0
 22  3  1  0
 23  3  1  0
 24  5  1  0
 25  5  1  0
 26  6  1  0
 27  6  1  0
 28  8  1  0
 29  8  1  0
 30  9  1  0
 31  9  1  0
 32 11  1  0
 33 14  1  0
 34 15  1  0
 35 16  1  0
 36 17  1  0
 37 18  1  0
M  END
>  <b_m_subgroup_collapsed>  (945) 
0

>  <r_i_docking_score>  (945) 
-7.0857520975311097

>  <s_m_subgroup_title>  (945) 
glide-dock_SP_D22_pv

>  <s_m_subgroupid>  (945) 
glide-dock_SP_D22_pv

>  <Molecule ChEMBL ID>  (945) 
CHEMBL553666

>  <Standard Type>  (945) 
Ki

>  <Standard Value>  (945) 
24000.0

>  <label>  (945) 
0

$$$$
CHEMBL3409250
     RDKit          3D

 67 71  0  0  1  0  0  0  0  0999 V2000
   11.6963    9.5796   -6.6310 N   0  0  0  0  0  0  0  0  0  0  0  0
   11.3844    9.8976   -5.3778 C   0  0  0  0  0  0  0  0  0  0  0  0
   10.8848   10.9708   -5.0831 O   0  0  0  0  0  0  0  0  0  0  0  0
   11.7431    8.9127   -4.3108 C   0  0  0  0  0  0  0  0  0  0  0  0
   12.1109    9.4015   -3.0382 C   0  0  0  0  0  0  0  0  0  0  0  0
   12.4855    8.5232   -2.0087 C   0  0  0  0  0  0  0  0  0  0  0  0
   12.4829    7.1396   -2.2468 C   0  0  0  0  0  0  0  0  0  0  0  0
   12.0866    6.6450   -3.4957 C   0  0  0  0  0  0  0  0  0  0  0  0
   11.6855    7.5134   -4.5238 C   0  0  0  0  0  0  0  0  0  0  0  0
   11.2447    6.9604   -5.6975 O   0  0  0  0  0  0  0  0  0  0  0  0
    9.8286    6.9717   -5.8008 C   0  0  0  0  0  0  0  0  0  0  0  0
    9.3703    6.4031   -7.1242 C   0  0  0  0  0  0  0  0  0  0  0  0
    9.9539    7.1706   -8.3032 C   0  0  0  0  0  0  0  0  0  0  0  0
    9.2881    6.8112   -9.5404 N   0  0  0  0  0  0  0  0  0  0  0  0
    9.4313    5.3914   -9.8803 C   0  0  0  0  0  0  0  0  0  0  0  0
    8.7086    5.0875  -11.2079 C   0  0  0  0  0  0  0  0  0  0  0  0
    9.1896    5.9517  -12.2838 N   0  0  0  0  0  0  0  0  0  0  0  0
   10.1712    5.4444  -13.1643 C   0  0  0  0  0  0  0  0  0  0  0  0
   11.3728    6.1616  -13.3954 C   0  0  0  0  0  0  0  0  0  0  0  0
   12.3699    5.6612  -14.2516 C   0  0  0  0  0  0  0  0  0  0  0  0
   12.1816    4.4347  -14.9058 C   0  0  0  0  0  0  0  0  0  0  0  0
   10.9855    3.7213  -14.7084 C   0  0  0  0  0  0  0  0  0  0  0  0
    9.9541    4.2116  -13.8483 C   0  0  0  0  0  0  0  0  0  0  0  0
    8.8659    3.2754  -13.9110 C   0  0  0  0  0  0  0  0  0  0  0  0
    9.2661    2.2503  -14.7239 C   0  0  0  0  0  0  0  0  0  0  0  0
   10.5332    2.5117  -15.2264 N   0  0  0  0  0  0  0  0  0  0  0  0
   11.2478    1.6329  -16.1400 C   0  0  0  0  0  0  0  0  0  0  0  0
   10.4542    1.3905  -17.4142 C   0  0  0  0  0  0  0  0  0  0  0  0
   10.0747    2.4848  -18.2221 C   0  0  0  0  0  0  0  0  0  0  0  0
    9.3221    2.2756  -19.3941 C   0  0  0  0  0  0  0  0  0  0  0  0
    8.9478    0.9692  -19.7683 C   0  0  0  0  0  0  0  0  0  0  0  0
    9.3302   -0.1264  -18.9699 C   0  0  0  0  0  0  0  0  0  0  0  0
   10.0843    0.0806  -17.7983 C   0  0  0  0  0  0  0  0  0  0  0  0
   10.4479   -0.9873  -17.0485 F   0  0  0  0  0  0  0  0  0  0  0  0
    9.1312    7.3656  -11.9088 C   0  0  0  0  0  0  0  0  0  0  0  0
    9.8751    7.6244  -10.5972 C   0  0  0  0  0  0  0  0  0  0  0  0
   11.4875   10.2243   -7.3773 H   0  0  0  0  0  0  0  0  0  0  0  0
   12.1058    8.6769   -6.8226 H   0  0  0  0  0  0  0  0  0  0  0  0
   12.1164   10.4641   -2.8411 H   0  0  0  0  0  0  0  0  0  0  0  0
   12.7791    8.9138   -1.0459 H   0  0  0  0  0  0  0  0  0  0  0  0
   12.7840    6.4491   -1.4722 H   0  0  0  0  0  0  0  0  0  0  0  0
   12.0740    5.5844   -3.6698 H   0  0  0  0  0  0  0  0  0  0  0  0
    9.4303    7.9797   -5.7158 H   0  0  0  0  0  0  0  0  0  0  0  0
    9.4075    6.3640   -5.0045 H   0  0  0  0  0  0  0  0  0  0  0  0
    8.2784    6.4118   -7.1621 H   0  0  0  0  0  0  0  0  0  0  0  0
    9.6885    5.3727   -7.1793 H   0  0  0  0  0  0  0  0  0  0  0  0
   11.0301    6.9964   -8.3774 H   0  0  0  0  0  0  0  0  0  0  0  0
    9.8055    8.2392   -8.1357 H   0  0  0  0  0  0  0  0  0  0  0  0
    8.9692    4.7710   -9.1130 H   0  0  0  0  0  0  0  0  0  0  0  0
   10.4845    5.1139   -9.9130 H   0  0  0  0  0  0  0  0  0  0  0  0
    7.6361    5.2453  -11.0869 H   0  0  0  0  0  0  0  0  0  0  0  0
    8.8424    4.0350  -11.4425 H   0  0  0  0  0  0  0  0  0  0  0  0
   11.5620    7.1005  -12.9006 H   0  0  0  0  0  0  0  0  0  0  0  0
   13.2828    6.2189  -14.3996 H   0  0  0  0  0  0  0  0  0  0  0  0
   12.9509    4.0539  -15.5615 H   0  0  0  0  0  0  0  0  0  0  0  0
    7.9219    3.3631  -13.3948 H   0  0  0  0  0  0  0  0  0  0  0  0
    8.7375    1.3499  -15.0023 H   0  0  0  0  0  0  0  0  0  0  0  0
   11.4479    0.6937  -15.6216 H   0  0  0  0  0  0  0  0  0  0  0  0
   12.2171    2.0630  -16.3973 H   0  0  0  0  0  0  0  0  0  0  0  0
   10.3533    3.4910  -17.9361 H   0  0  0  0  0  0  0  0  0  0  0  0
    9.0337    3.1186  -20.0050 H   0  0  0  0  0  0  0  0  0  0  0  0
    8.3699    0.8072  -20.6674 H   0  0  0  0  0  0  0  0  0  0  0  0
    9.0446   -1.1290  -19.2561 H   0  0  0  0  0  0  0  0  0  0  0  0
    9.5583    8.0294  -12.6465 H   0  0  0  0  0  0  0  0  0  0  0  0
    8.0840    7.6550  -11.8105 H   0  0  0  0  0  0  0  0  0  0  0  0
    9.7865    8.6823  -10.3439 H   0  0  0  0  0  0  0  0  0  0  0  0
   10.9389    7.4070  -10.7025 H   0  0  0  0  0  0  0  0  0  0  0  0
  2  1  1  0
  3  2  2  0
  4  2  1  0
  5  4  2  0
  6  5  1  0
  7  6  2  0
  8  7  1  0
  9  4  1  0
  9  8  2  0
 10  9  1  0
 11 10  1  0
 12 11  1  0
 13 12  1  0
 14 13  1  0
 15 14  1  0
 16 15  1  0
 17 16  1  0
 18 17  1  0
 19 18  1  0
 20 19  2  0
 21 20  1  0
 22 21  2  0
 23 18  2  0
 23 22  1  0
 24 23  1  0
 25 24  2  0
 26 22  1  0
 26 25  1  0
 27 26  1  0
 28 27  1  0
 29 28  2  0
 30 29  1  0
 31 30  2  0
 32 31  1  0
 33 28  1  0
 33 32  2  0
 34 33  1  0
 35 17  1  0
 36 14  1  0
 36 35  1  0
 37  1  1  0
 38  1  1  0
 39  5  1  0
 40  6  1  0
 41  7  1  0
 42  8  1  0
 43 11  1  0
 44 11  1  0
 45 12  1  0
 46 12  1  0
 47 13  1  0
 48 13  1  0
 49 15  1  0
 50 15  1  0
 51 16  1  0
 52 16  1  0
 53 19  1  0
 54 20  1  0
 55 21  1  0
 56 24  1  0
 57 25  1  0
 58 27  1  0
 59 27  1  0
 60 29  1  0
 61 30  1  0
 62 31  1  0
 63 32  1  0
 64 35  1  0
 65 35  1  0
 66 36  1  0
 67 36  1  0
M  END
>  <b_m_subgroup_collapsed>  (946) 
0

>  <r_i_docking_score>  (946) 
-7.0833035118135204

>  <s_m_subgroup_title>  (946) 
glide-dock_SP_D22_pv

>  <s_m_subgroupid>  (946) 
glide-dock_SP_D22_pv

>  <Molecule ChEMBL ID>  (946) 
CHEMBL3409250

>  <Standard Type>  (946) 
Ki

>  <Standard Value>  (946) 
21.0

>  <label>  (946) 
1

$$$$
CHEMBL3298895
     RDKit          3D

 66 69  0  0  1  0  0  0  0  0999 V2000
    3.9112    0.1055  -19.8154 C   0  0  0  0  0  0  0  0  0  0  0  0
    4.8207    0.1324  -18.6044 C   0  0  0  0  0  0  0  0  0  0  0  0
    4.4947   -0.6274  -17.4645 C   0  0  0  0  0  0  0  0  0  0  0  0
    5.3069   -0.5325  -16.3148 C   0  0  0  0  0  0  0  0  0  0  0  0
    4.9146   -1.3179  -15.0779 C   0  0  0  0  0  0  0  0  0  0  0  0
    6.4657    0.2961  -16.3323 C   0  0  0  0  0  0  0  0  0  0  0  0
    7.4934    0.6411  -15.3560 C   0  0  0  0  0  0  0  0  0  0  0  0
    7.4643    0.1692  -14.0345 N   0  0  0  0  0  0  0  0  0  0  0  0
    8.4669    1.4590  -15.8877 C   0  0  0  0  0  0  0  0  0  0  0  0
    9.7406    1.9364  -15.3085 C   0  0  0  0  0  0  0  0  0  0  0  0
   10.4450    1.1708  -14.6518 O   0  0  0  0  0  0  0  0  0  0  0  0
   10.0507    3.2272  -15.5149 N   0  0  0  0  0  0  0  0  0  0  0  0
   11.2589    3.8891  -15.0285 C   0  0  0  0  0  0  0  0  0  0  0  0
   10.9424    5.1631  -14.2257 C   0  0  0  0  0  0  0  0  0  0  0  0
   10.0658    4.9173  -12.9812 C   0  0  0  0  0  0  0  0  0  0  0  0
    9.9852    6.1406  -12.0484 C   0  0  0  0  0  0  0  0  0  0  0  0
    9.4676    5.7634  -10.6429 C   0  0  0  0  0  0  0  0  0  0  0  0
    9.4411    6.8810   -9.6585 N   0  0  0  0  0  0  0  0  0  0  0  0
   10.7751    7.5204   -9.4389 C   0  0  0  0  0  0  0  0  0  0  0  0
   10.7494    8.6403   -8.3790 C   0  0  0  0  0  0  0  0  0  0  0  0
   10.0592    8.2200   -7.1706 N   0  0  0  0  0  0  0  0  0  0  0  0
   10.7911    7.9272   -6.0068 C   0  0  0  0  0  0  0  0  0  0  0  0
   11.0851    6.5985   -5.6646 C   0  0  0  0  0  0  0  0  0  0  0  0
   11.6989    6.3351   -4.4335 C   0  0  0  0  0  0  0  0  0  0  0  0
   12.0396    7.3167   -3.5205 C   0  0  0  0  0  0  0  0  0  0  0  0
   11.7566    8.6278   -3.8540 C   0  0  0  0  0  0  0  0  0  0  0  0
   12.0855    9.7765   -2.6468 Cl  0  0  0  0  0  0  0  0  0  0  0  0
   11.1773    8.9441   -5.1012 C   0  0  0  0  0  0  0  0  0  0  0  0
   10.8863   10.5727   -5.4871 Cl  0  0  0  0  0  0  0  0  0  0  0  0
    8.7710    7.5697   -7.3504 C   0  0  0  0  0  0  0  0  0  0  0  0
    8.8452    6.4246   -8.3770 C   0  0  0  0  0  0  0  0  0  0  0  0
    8.1665    1.9185  -17.5397 S   0  0  0  0  0  0  0  0  0  0  0  0
    6.6909    0.9708  -17.5762 C   0  0  0  0  0  0  0  0  0  0  0  0
    5.9061    0.9297  -18.6927 N   0  0  0  0  0  0  0  0  0  0  0  0
    3.7382   -0.9189  -20.1389 H   0  0  0  0  0  0  0  0  0  0  0  0
    2.9499    0.5520  -19.5700 H   0  0  0  0  0  0  0  0  0  0  0  0
    4.3359    0.6568  -20.6527 H   0  0  0  0  0  0  0  0  0  0  0  0
    3.6087   -1.2477  -17.4640 H   0  0  0  0  0  0  0  0  0  0  0  0
    4.7785   -0.6492  -14.2284 H   0  0  0  0  0  0  0  0  0  0  0  0
    3.9769   -1.8514  -15.2326 H   0  0  0  0  0  0  0  0  0  0  0  0
    5.6803   -2.0537  -14.8319 H   0  0  0  0  0  0  0  0  0  0  0  0
    6.9179   -0.6580  -13.8430 H   0  0  0  0  0  0  0  0  0  0  0  0
    8.3130    0.2406  -13.4871 H   0  0  0  0  0  0  0  0  0  0  0  0
    9.4104    3.7802  -16.0648 H   0  0  0  0  0  0  0  0  0  0  0  0
   11.8759    4.1451  -15.8907 H   0  0  0  0  0  0  0  0  0  0  0  0
   11.8634    3.2185  -14.4149 H   0  0  0  0  0  0  0  0  0  0  0  0
   10.4772    5.9036  -14.8751 H   0  0  0  0  0  0  0  0  0  0  0  0
   11.8930    5.6003  -13.9161 H   0  0  0  0  0  0  0  0  0  0  0  0
   10.4766    4.0710  -12.4305 H   0  0  0  0  0  0  0  0  0  0  0  0
    9.0603    4.6167  -13.2779 H   0  0  0  0  0  0  0  0  0  0  0  0
    9.3494    6.9065  -12.4943 H   0  0  0  0  0  0  0  0  0  0  0  0
   10.9827    6.5693  -11.9820 H   0  0  0  0  0  0  0  0  0  0  0  0
   10.0791    4.9567  -10.2349 H   0  0  0  0  0  0  0  0  0  0  0  0
    8.4574    5.3620  -10.7413 H   0  0  0  0  0  0  0  0  0  0  0  0
   11.1602    7.9514  -10.3614 H   0  0  0  0  0  0  0  0  0  0  0  0
   11.4794    6.7487   -9.1297 H   0  0  0  0  0  0  0  0  0  0  0  0
   10.2212    9.5047   -8.7814 H   0  0  0  0  0  0  0  0  0  0  0  0
   11.7627    8.9712   -8.1490 H   0  0  0  0  0  0  0  0  0  0  0  0
   10.8532    5.7739   -6.3224 H   0  0  0  0  0  0  0  0  0  0  0  0
   12.0095    5.3723   -4.1612 H   0  0  0  0  0  0  0  0  0  0  0  0
   12.5019    7.0637   -2.5774 H   0  0  0  0  0  0  0  0  0  0  0  0
    8.3799    7.2079   -6.4002 H   0  0  0  0  0  0  0  0  0  0  0  0
    8.0866    8.3401   -7.6954 H   0  0  0  0  0  0  0  0  0  0  0  0
    7.8505    6.0131   -8.5561 H   0  0  0  0  0  0  0  0  0  0  0  0
    9.4356    5.6002   -7.9797 H   0  0  0  0  0  0  0  0  0  0  0  0
    8.8002    7.5826  -10.0139 H   0  0  0  0  0  0  0  0  0  0  0  0
  2  1  1  0
  3  2  1  0
  4  3  2  0
  5  4  1  0
  6  4  1  0
  7  6  1  0
  8  7  1  0
  9  7  2  0
 10  9  1  0
 11 10  2  0
 12 10  1  0
 13 12  1  0
 14 13  1  0
 15 14  1  0
 16 15  1  0
 17 16  1  0
 18 17  1  0
 19 18  1  0
 20 19  1  0
 21 20  1  0
 22 21  1  0
 23 22  2  0
 24 23  1  0
 25 24  2  0
 26 25  1  0
 27 26  1  0
 28 22  1  0
 28 26  2  0
 29 28  1  0
 30 21  1  0
 31 18  1  0
 31 30  1  0
 32  9  1  0
 33  6  2  0
 33 32  1  0
 34  2  2  0
 34 33  1  0
 35  1  1  0
 36  1  1  0
 37  1  1  0
 38  3  1  0
 39  5  1  0
 40  5  1  0
 41  5  1  0
 42  8  1  0
 43  8  1  0
 44 12  1  0
 45 13  1  0
 46 13  1  0
 47 14  1  0
 48 14  1  0
 49 15  1  0
 50 15  1  0
 51 16  1  0
 52 16  1  0
 53 17  1  0
 54 17  1  0
 55 19  1  0
 56 19  1  0
 57 20  1  0
 58 20  1  0
 59 23  1  0
 60 24  1  0
 61 25  1  0
 62 30  1  0
 63 30  1  0
 64 31  1  0
 65 31  1  0
 66 18  1  0
M  CHG  1  18   1
M  END
>  <b_m_subgroup_collapsed>  (947) 
0

>  <r_i_docking_score>  (947) 
-7.0807872591034302

>  <s_m_subgroup_title>  (947) 
glide-dock_SP_D22_pv

>  <s_m_subgroupid>  (947) 
glide-dock_SP_D22_pv

>  <Molecule ChEMBL ID>  (947) 
CHEMBL3298895

>  <Standard Type>  (947) 
Ki

>  <Standard Value>  (947) 
11.2

>  <label>  (947) 
1

$$$$
CHEMBL541559
     RDKit          3D

 37 39  0  0  1  0  0  0  0  0999 V2000
    9.2470   -0.2277  -15.3997 O   0  0  0  0  0  0  0  0  0  0  0  0
    8.3962    0.6980  -14.8731 C   0  0  0  0  0  0  0  0  0  0  0  0
    8.8673    2.0099  -14.6995 C   0  0  0  0  0  0  0  0  0  0  0  0
    8.0392    3.0440  -14.1929 C   0  0  0  0  0  0  0  0  0  0  0  0
    6.6966    2.7193  -13.8478 C   0  0  0  0  0  0  0  0  0  0  0  0
    6.2428    1.3746  -13.9753 C   0  0  0  0  0  0  0  0  0  0  0  0
    4.4953    0.8292  -13.4469 Br  0  0  0  0  0  0  0  0  0  0  0  0
    7.0762    0.3731  -14.5035 C   0  0  0  0  0  0  0  0  0  0  0  0
    6.5626   -0.8921  -14.6438 O   0  0  0  0  0  0  0  0  0  0  0  0
    5.7449    3.8002  -13.3463 C   0  0  0  0  0  0  0  0  0  0  0  0
    6.1643    4.4036  -12.0041 C   0  0  0  0  0  0  0  0  0  0  0  0
    7.1888    5.4544  -12.1378 N   0  0  0  0  0  0  0  0  0  0  0  0
    8.5343    5.0232  -12.5796 C   0  0  0  0  0  0  0  0  0  0  0  0
    8.5997    4.4757  -14.0343 C   0  0  1  0  0  0  0  0  0  0  0  0
   10.0035    4.6390  -14.6289 C   0  0  0  0  0  0  0  0  0  0  0  0
   11.1637    4.4499  -13.8449 C   0  0  0  0  0  0  0  0  0  0  0  0
   12.4447    4.6200  -14.4034 C   0  0  0  0  0  0  0  0  0  0  0  0
   12.5813    4.9687  -15.7584 C   0  0  0  0  0  0  0  0  0  0  0  0
   11.4340    5.1397  -16.5556 C   0  0  0  0  0  0  0  0  0  0  0  0
   10.1536    4.9721  -15.9938 C   0  0  0  0  0  0  0  0  0  0  0  0
    8.8782   -1.1007  -15.4508 H   0  0  0  0  0  0  0  0  0  0  0  0
    9.8918    2.1949  -14.9817 H   0  0  0  0  0  0  0  0  0  0  0  0
    7.1179   -1.5532  -15.0484 H   0  0  0  0  0  0  0  0  0  0  0  0
    5.6503    4.5740  -14.1079 H   0  0  0  0  0  0  0  0  0  0  0  0
    4.7336    3.4187  -13.2337 H   0  0  0  0  0  0  0  0  0  0  0  0
    5.2951    4.8818  -11.5531 H   0  0  0  0  0  0  0  0  0  0  0  0
    6.4856    3.6291  -11.3076 H   0  0  0  0  0  0  0  0  0  0  0  0
    6.8421    6.1630  -12.7667 H   0  0  0  0  0  0  0  0  0  0  0  0
    9.1475    5.9235  -12.5133 H   0  0  0  0  0  0  0  0  0  0  0  0
    8.9522    4.3071  -11.8697 H   0  0  0  0  0  0  0  0  0  0  0  0
    7.9715    5.1207  -14.6451 H   0  0  0  0  0  0  0  0  0  0  0  0
   11.0838    4.1728  -12.8055 H   0  0  0  0  0  0  0  0  0  0  0  0
   13.3207    4.4932  -13.7873 H   0  0  0  0  0  0  0  0  0  0  0  0
   13.5644    5.0991  -16.1881 H   0  0  0  0  0  0  0  0  0  0  0  0
   11.5354    5.4011  -17.5984 H   0  0  0  0  0  0  0  0  0  0  0  0
    9.2853    5.1091  -16.6210 H   0  0  0  0  0  0  0  0  0  0  0  0
    7.2797    5.9014  -11.2302 H   0  0  0  0  0  0  0  0  0  0  0  0
  2  1  1  0
  3  2  2  0
  4  3  1  0
  5  4  2  0
  6  5  1  0
  7  6  1  0
  8  2  1  0
  8  6  2  0
  9  8  1  0
 10  5  1  0
 11 10  1  0
 12 11  1  0
 13 12  1  0
 14  4  1  0
 14 13  1  0
 15 14  1  0
 16 15  2  0
 17 16  1  0
 18 17  2  0
 19 18  1  0
 20 15  1  0
 20 19  2  0
 21  1  1  0
 22  3  1  0
 23  9  1  0
 24 10  1  0
 25 10  1  0
 26 11  1  0
 27 11  1  0
 28 12  1  0
 29 13  1  0
 30 13  1  0
 14 31  1  6
 32 16  1  0
 33 17  1  0
 34 18  1  0
 35 19  1  0
 36 20  1  0
 37 12  1  0
M  CHG  1  12   1
M  END
>  <b_m_subgroup_collapsed>  (948) 
0

>  <r_i_docking_score>  (948) 
-7.0806712649035202

>  <s_m_subgroup_title>  (948) 
glide-dock_SP_D22_pv

>  <s_m_subgroupid>  (948) 
glide-dock_SP_D22_pv

>  <Molecule ChEMBL ID>  (948) 
CHEMBL541559

>  <Standard Type>  (948) 
Ki

>  <Standard Value>  (948) 
39.0

>  <label>  (948) 
1

$$$$
CHEMBL2030636
     RDKit          3D

 31 32  0  0  1  0  0  0  0  0999 V2000
   12.2545    6.8745   -3.2828 F   0  0  0  0  0  0  0  0  0  0  0  0
   11.7003    7.6023   -4.2804 C   0  0  0  0  0  0  0  0  0  0  0  0
   11.9392    8.9881   -4.3504 C   0  0  0  0  0  0  0  0  0  0  0  0
   11.3608    9.7471   -5.3850 C   0  0  0  0  0  0  0  0  0  0  0  0
   10.5338    9.1224   -6.3385 C   0  0  0  0  0  0  0  0  0  0  0  0
   10.2819    7.7353   -6.2695 C   0  0  0  0  0  0  0  0  0  0  0  0
    9.3377    7.0811   -7.2678 C   0  0  0  0  0  0  0  0  0  0  0  0
    9.8318    7.1900   -8.7222 C   0  0  0  0  0  0  0  0  0  0  0  0
    8.8861    6.5920   -9.6945 N   0  0  0  0  0  0  0  0  0  0  0  0
    9.1544    6.9503  -11.0978 C   0  0  0  0  0  0  0  0  0  0  0  0
    8.3240    5.9613  -11.9101 C   0  0  0  0  0  0  0  0  0  0  0  0
    8.3066    4.6875  -11.0598 C   0  0  0  0  0  0  0  0  0  0  0  0
    8.7706    5.1192   -9.6585 C   0  0  0  0  0  0  0  0  0  0  0  0
   10.8867    6.9743   -5.2448 C   0  0  0  0  0  0  0  0  0  0  0  0
   12.5668    9.4680   -3.6119 H   0  0  0  0  0  0  0  0  0  0  0  0
   11.5446   10.8107   -5.4455 H   0  0  0  0  0  0  0  0  0  0  0  0
   10.0847    9.7236   -7.1150 H   0  0  0  0  0  0  0  0  0  0  0  0
    9.1940    6.0352   -6.9962 H   0  0  0  0  0  0  0  0  0  0  0  0
    8.3613    7.5571   -7.1667 H   0  0  0  0  0  0  0  0  0  0  0  0
    9.9574    8.2427   -8.9793 H   0  0  0  0  0  0  0  0  0  0  0  0
   10.8133    6.7253   -8.8300 H   0  0  0  0  0  0  0  0  0  0  0  0
    8.8876    7.9869  -11.3092 H   0  0  0  0  0  0  0  0  0  0  0  0
   10.2151    6.8166  -11.3199 H   0  0  0  0  0  0  0  0  0  0  0  0
    7.3081    6.3422  -12.0193 H   0  0  0  0  0  0  0  0  0  0  0  0
    8.7230    5.8003  -12.9125 H   0  0  0  0  0  0  0  0  0  0  0  0
    7.3062    4.2501  -11.0426 H   0  0  0  0  0  0  0  0  0  0  0  0
    8.9857    3.9408  -11.4731 H   0  0  0  0  0  0  0  0  0  0  0  0
    9.7422    4.6715   -9.4461 H   0  0  0  0  0  0  0  0  0  0  0  0
    8.0863    4.7972   -8.8733 H   0  0  0  0  0  0  0  0  0  0  0  0
   10.7101    5.9133   -5.1710 H   0  0  0  0  0  0  0  0  0  0  0  0
    7.9541    6.9684   -9.5190 H   0  0  0  0  0  0  0  0  0  0  0  0
  2  1  1  0
  3  2  1  0
  4  3  2  0
  5  4  1  0
  6  5  2  0
  7  6  1  0
  8  7  1  0
  9  8  1  0
 10  9  1  0
 11 10  1  0
 12 11  1  0
 13  9  1  0
 13 12  1  0
 14  2  2  0
 14  6  1  0
 15  3  1  0
 16  4  1  0
 17  5  1  0
 18  7  1  0
 19  7  1  0
 20  8  1  0
 21  8  1  0
 22 10  1  0
 23 10  1  0
 24 11  1  0
 25 11  1  0
 26 12  1  0
 27 12  1  0
 28 13  1  0
 29 13  1  0
 30 14  1  0
 31  9  1  0
M  CHG  1   9   1
M  END
>  <b_m_subgroup_collapsed>  (949) 
0

>  <r_i_docking_score>  (949) 
-7.0784521553212496

>  <s_m_subgroup_title>  (949) 
glide-dock_SP_D22_pv

>  <s_m_subgroupid>  (949) 
glide-dock_SP_D22_pv

>  <Molecule ChEMBL ID>  (949) 
CHEMBL2030636

>  <Standard Type>  (949) 
Ki

>  <Standard Value>  (949) 
10000.0

>  <label>  (949) 
0

$$$$
CHEMBL4554558
     RDKit          3D

 39 42  0  0  1  0  0  0  0  0999 V2000
    9.2855    7.0130   -8.5950 C   0  0  0  0  0  0  0  0  0  0  0  0
    9.9107    7.0813   -9.7928 C   0  0  0  0  0  0  0  0  0  0  0  0
    9.4180    6.3190  -10.9696 C   0  0  0  0  0  0  0  0  0  0  0  0
    8.2403    5.6214  -11.0144 C   0  0  0  0  0  0  0  0  0  0  0  0
    8.1599    4.9755  -12.2341 N   0  0  0  0  0  0  0  0  0  0  0  0
    9.2750    5.2382  -13.0050 C   0  0  0  0  0  0  0  0  0  0  0  0
    9.6555    4.7857  -14.2815 C   0  0  0  0  0  0  0  0  0  0  0  0
   10.8712    5.2218  -14.8383 C   0  0  0  0  0  0  0  0  0  0  0  0
   11.6861    6.1162  -14.1211 C   0  0  0  0  0  0  0  0  0  0  0  0
   11.2925    6.5723  -12.8473 C   0  0  0  0  0  0  0  0  0  0  0  0
   10.0861    6.1337  -12.2379 C   0  0  0  0  0  0  0  0  0  0  0  0
   11.1449    7.9600   -9.8931 C   0  0  0  0  0  0  0  0  0  0  0  0
   11.3093    8.9171   -8.7002 C   0  0  0  0  0  0  0  0  0  0  0  0
   11.1487    8.1988   -7.4357 N   0  0  0  0  0  0  0  0  0  0  0  0
   11.5064    9.0738   -6.3163 C   0  0  0  0  0  0  0  0  0  0  0  0
   11.6849    8.4051   -4.9818 C   0  0  0  0  0  0  0  0  0  0  0  0
   11.6348    7.0718   -4.6473 C   0  0  0  0  0  0  0  0  0  0  0  0
   11.8581    6.8284   -3.2621 C   0  0  0  0  0  0  0  0  0  0  0  0
   12.0885    7.9749   -2.5522 C   0  0  0  0  0  0  0  0  0  0  0  0
   12.0832    9.3723   -3.5842 S   0  0  0  0  0  0  0  0  0  0  0  0
    9.7605    7.7280   -7.3361 C   0  0  0  0  0  0  0  0  0  0  0  0
    8.3836    6.4294   -8.4774 H   0  0  0  0  0  0  0  0  0  0  0  0
    7.4504    5.5357  -10.2819 H   0  0  0  0  0  0  0  0  0  0  0  0
    7.3751    4.3953  -12.4941 H   0  0  0  0  0  0  0  0  0  0  0  0
    9.0195    4.1032  -14.8265 H   0  0  0  0  0  0  0  0  0  0  0  0
   11.1745    4.8765  -15.8167 H   0  0  0  0  0  0  0  0  0  0  0  0
   12.6209    6.4525  -14.5456 H   0  0  0  0  0  0  0  0  0  0  0  0
   11.9543    7.2443  -12.3284 H   0  0  0  0  0  0  0  0  0  0  0  0
   12.0242    7.3252  -10.0012 H   0  0  0  0  0  0  0  0  0  0  0  0
   11.0643    8.5702  -10.7930 H   0  0  0  0  0  0  0  0  0  0  0  0
   12.3000    9.3670   -8.7548 H   0  0  0  0  0  0  0  0  0  0  0  0
   10.5862    9.7298   -8.7629 H   0  0  0  0  0  0  0  0  0  0  0  0
   12.4502    9.5660   -6.5569 H   0  0  0  0  0  0  0  0  0  0  0  0
   10.7694    9.8727   -6.2285 H   0  0  0  0  0  0  0  0  0  0  0  0
   11.4359    6.2683   -5.3431 H   0  0  0  0  0  0  0  0  0  0  0  0
   11.8342    5.8341   -2.8394 H   0  0  0  0  0  0  0  0  0  0  0  0
   12.2790    8.0853   -1.4955 H   0  0  0  0  0  0  0  0  0  0  0  0
    9.0847    8.5639   -7.1501 H   0  0  0  0  0  0  0  0  0  0  0  0
    9.6566    7.0476   -6.4940 H   0  0  0  0  0  0  0  0  0  0  0  0
  2  1  2  0
  3  2  1  0
  4  3  2  0
  5  4  1  0
  6  5  1  0
  7  6  2  0
  8  7  1  0
  9  8  2  0
 10  9  1  0
 11  3  1  0
 11  6  1  0
 11 10  2  0
 12  2  1  0
 13 12  1  0
 14 13  1  0
 15 14  1  0
 16 15  1  0
 17 16  2  0
 18 17  1  0
 19 18  2  0
 20 16  1  0
 20 19  1  0
 21  1  1  0
 21 14  1  0
 22  1  1  0
 23  4  1  0
 24  5  1  0
 25  7  1  0
 26  8  1  0
 27  9  1  0
 28 10  1  0
 29 12  1  0
 30 12  1  0
 31 13  1  0
 32 13  1  0
 33 15  1  0
 34 15  1  0
 35 17  1  0
 36 18  1  0
 37 19  1  0
 38 21  1  0
 39 21  1  0
M  END
>  <b_m_subgroup_collapsed>  (950) 
0

>  <r_i_docking_score>  (950) 
-7.0750646042038401

>  <s_m_subgroup_title>  (950) 
glide-dock_SP_D22_pv

>  <s_m_subgroupid>  (950) 
glide-dock_SP_D22_pv

>  <Molecule ChEMBL ID>  (950) 
CHEMBL4554558

>  <Standard Type>  (950) 
Ki

>  <Standard Value>  (950) 
71.9

>  <label>  (950) 
1

$$$$
CHEMBL2298801
     RDKit          3D

 47 50  0  0  1  0  0  0  0  0999 V2000
    4.2988   -0.6018  -13.8468 O   0  0  0  0  0  0  0  0  0  0  0  0
    5.2458    0.1745  -13.9319 C   0  0  0  0  0  0  0  0  0  0  0  0
    6.4241   -0.0620  -14.5406 N   0  0  0  0  0  0  0  0  0  0  0  0
    7.2238    1.0842  -14.4682 C   0  0  0  0  0  0  0  0  0  0  0  0
    8.5450    1.3187  -14.8739 C   0  0  0  0  0  0  0  0  0  0  0  0
    9.0998    2.5795  -14.5449 C   0  0  0  0  0  0  0  0  0  0  0  0
    8.3545    3.5707  -13.8475 C   0  0  0  0  0  0  0  0  0  0  0  0
    9.0349    4.7248  -13.5173 O   0  0  0  0  0  0  0  0  0  0  0  0
    8.3433    5.7822  -12.8583 C   0  0  0  0  0  0  0  0  0  0  0  0
    8.1286    5.5431  -11.3451 C   0  0  0  0  0  0  0  0  0  0  0  0
    9.2868    5.8079  -10.4793 N   0  0  0  0  0  0  0  0  0  0  0  0
    8.8965    5.4206   -9.1151 C   0  0  0  0  0  0  0  0  0  0  0  0
   10.0284    5.6665   -8.0932 C   0  0  0  0  0  0  0  0  0  0  0  0
   10.4494    7.0630   -8.1329 N   0  0  0  0  0  0  0  0  0  0  0  0
   10.8850    7.7586   -6.9817 C   0  0  0  0  0  0  0  0  0  0  0  0
   10.9379    9.1737   -6.9849 C   0  0  0  0  0  0  0  0  0  0  0  0
   11.3452    9.8944   -5.8466 C   0  0  0  0  0  0  0  0  0  0  0  0
   11.7084    9.2104   -4.6739 C   0  0  0  0  0  0  0  0  0  0  0  0
   11.6637    7.8054   -4.6464 C   0  0  0  0  0  0  0  0  0  0  0  0
   12.0866    6.9726   -3.1965 Cl  0  0  0  0  0  0  0  0  0  0  0  0
   11.2566    7.0845   -5.7902 C   0  0  0  0  0  0  0  0  0  0  0  0
   10.7924    7.5133   -9.4799 C   0  0  0  0  0  0  0  0  0  0  0  0
    9.6212    7.2406  -10.4465 C   0  0  0  0  0  0  0  0  0  0  0  0
    6.9952    3.3151  -13.5015 C   0  0  0  0  0  0  0  0  0  0  0  0
    6.4849    2.0427  -13.8118 C   0  0  0  0  0  0  0  0  0  0  0  0
    5.2811    1.4312  -13.4471 N   0  0  0  0  0  0  0  0  0  0  0  0
    6.7043   -0.9225  -14.9935 H   0  0  0  0  0  0  0  0  0  0  0  0
    9.1254    0.5580  -15.3758 H   0  0  0  0  0  0  0  0  0  0  0  0
   10.1273    2.7837  -14.8064 H   0  0  0  0  0  0  0  0  0  0  0  0
    7.3822    5.9499  -13.3432 H   0  0  0  0  0  0  0  0  0  0  0  0
    8.8925    6.7006  -13.0438 H   0  0  0  0  0  0  0  0  0  0  0  0
    7.7973    4.5168  -11.1878 H   0  0  0  0  0  0  0  0  0  0  0  0
    7.2978    6.1721  -11.0327 H   0  0  0  0  0  0  0  0  0  0  0  0
    8.6202    4.3655   -9.0955 H   0  0  0  0  0  0  0  0  0  0  0  0
    8.0112    5.9825   -8.8100 H   0  0  0  0  0  0  0  0  0  0  0  0
   10.8847    5.0269   -8.3059 H   0  0  0  0  0  0  0  0  0  0  0  0
    9.6592    5.3859   -7.1071 H   0  0  0  0  0  0  0  0  0  0  0  0
   10.6408    9.7344   -7.8547 H   0  0  0  0  0  0  0  0  0  0  0  0
   11.3735   10.9737   -5.8720 H   0  0  0  0  0  0  0  0  0  0  0  0
   12.0167    9.7636   -3.7974 H   0  0  0  0  0  0  0  0  0  0  0  0
   11.2425    6.0076   -5.7381 H   0  0  0  0  0  0  0  0  0  0  0  0
   11.0549    8.5681   -9.5193 H   0  0  0  0  0  0  0  0  0  0  0  0
   11.6783    6.9724   -9.8135 H   0  0  0  0  0  0  0  0  0  0  0  0
    9.9123    7.5872  -11.4356 H   0  0  0  0  0  0  0  0  0  0  0  0
    8.7526    7.8282  -10.1467 H   0  0  0  0  0  0  0  0  0  0  0  0
    6.3838    4.0152  -12.9533 H   0  0  0  0  0  0  0  0  0  0  0  0
    4.5404    1.8992  -12.9470 H   0  0  0  0  0  0  0  0  0  0  0  0
  2  1  2  0
  3  2  1  0
  4  3  1  0
  5  4  2  0
  6  5  1  0
  7  6  2  0
  8  7  1  0
  9  8  1  0
 10  9  1  0
 11 10  1  0
 12 11  1  0
 13 12  1  0
 14 13  1  0
 15 14  1  0
 16 15  2  0
 17 16  1  0
 18 17  2  0
 19 18  1  0
 20 19  1  0
 21 15  1  0
 21 19  2  0
 22 14  1  0
 23 11  1  0
 23 22  1  0
 24  7  1  0
 25  4  1  0
 25 24  2  0
 26  2  1  0
 26 25  1  0
 27  3  1  0
 28  5  1  0
 29  6  1  0
 30  9  1  0
 31  9  1  0
 32 10  1  0
 33 10  1  0
 34 12  1  0
 35 12  1  0
 36 13  1  0
 37 13  1  0
 38 16  1  0
 39 17  1  0
 40 18  1  0
 41 21  1  0
 42 22  1  0
 43 22  1  0
 44 23  1  0
 45 23  1  0
 46 24  1  0
 47 26  1  0
M  END
>  <b_m_subgroup_collapsed>  (951) 
0

>  <r_i_docking_score>  (951) 
-7.0750332284447497

>  <s_m_subgroup_title>  (951) 
glide-dock_SP_D22_pv

>  <s_m_subgroupid>  (951) 
glide-dock_SP_D22_pv

>  <Molecule ChEMBL ID>  (951) 
CHEMBL2298801

>  <Standard Type>  (951) 
Ki

>  <Standard Value>  (951) 
45.5

>  <label>  (951) 
1

$$$$
CHEMBL384634
     RDKit          3D

 56 61  0  0  1  0  0  0  0  0999 V2000
   18.5330    6.9426  -17.0380 F   0  0  0  0  0  0  0  0  0  0  0  0
   17.8626    6.9723  -18.1874 C   0  0  0  0  0  0  0  0  0  0  0  0
   18.4853    6.1721  -19.0474 F   0  0  0  0  0  0  0  0  0  0  0  0
   17.7969    8.2775  -18.7022 O   0  0  0  0  0  0  0  0  0  0  0  0
   16.4861    8.5216  -18.9466 C   0  0  0  0  0  0  0  0  0  0  0  0
   15.8929    9.6590  -19.5185 C   0  0  0  0  0  0  0  0  0  0  0  0
   14.4866    9.6678  -19.6522 C   0  0  0  0  0  0  0  0  0  0  0  0
   13.7125    8.5607  -19.2208 C   0  0  0  0  0  0  0  0  0  0  0  0
   14.3338    7.4276  -18.6405 C   0  0  0  0  0  0  0  0  0  0  0  0
   13.5242    6.2352  -18.1566 C   0  0  0  0  0  0  0  0  0  0  0  0
   13.3995    6.1898  -16.6768 N   0  0  0  0  0  0  0  0  0  0  0  0
   12.7744    4.9277  -16.2038 C   0  0  0  0  0  0  0  0  0  0  0  0
   12.7027    4.8740  -14.6668 C   0  0  0  0  0  0  0  0  0  0  0  0
   12.0823    6.0701  -14.0981 N   0  0  0  0  0  0  0  0  0  0  0  0
   10.8808    6.0053  -13.3879 C   0  0  0  0  0  0  0  0  0  0  0  0
    9.9741    5.1707  -13.7963 N   0  0  0  0  0  0  0  0  0  0  0  0
    8.6671    4.9751  -13.3287 C   0  0  0  0  0  0  0  0  0  0  0  0
    8.0896    3.7399  -13.7032 C   0  0  0  0  0  0  0  0  0  0  0  0
    6.7466    3.4310  -13.4109 C   0  0  0  0  0  0  0  0  0  0  0  0
    6.0864    1.8969  -13.8467 Cl  0  0  0  0  0  0  0  0  0  0  0  0
    5.9489    4.3706  -12.7412 C   0  0  0  0  0  0  0  0  0  0  0  0
    6.5026    5.6033  -12.3649 C   0  0  0  0  0  0  0  0  0  0  0  0
    7.8490    5.9152  -12.6473 C   0  0  0  0  0  0  0  0  0  0  0  0
    8.2720    7.1763  -12.2455 N   0  0  0  0  0  0  0  0  0  0  0  0
    9.5191    7.4685  -11.7039 C   0  0  0  0  0  0  0  0  0  0  0  0
    9.5079    8.3164  -10.5736 C   0  0  0  0  0  0  0  0  0  0  0  0
   10.6947    8.6669   -9.9120 C   0  0  0  0  0  0  0  0  0  0  0  0
   11.9167    8.1962  -10.4070 C   0  0  0  0  0  0  0  0  0  0  0  0
   11.9309    7.3723  -11.5446 C   0  0  0  0  0  0  0  0  0  0  0  0
   10.7459    6.9610  -12.2083 C   0  0  0  0  0  0  0  0  0  0  0  0
   12.6662    7.3192  -14.5795 C   0  0  0  0  0  0  0  0  0  0  0  0
   12.7011    7.3701  -16.1121 C   0  0  0  0  0  0  0  0  0  0  0  0
   15.7341    7.4454  -18.5240 C   0  0  0  0  0  0  0  0  0  0  0  0
   16.5512    6.4997  -17.9975 O   0  0  0  0  0  0  0  0  0  0  0  0
   16.4898   10.4975  -19.8466 H   0  0  0  0  0  0  0  0  0  0  0  0
   13.9970   10.5298  -20.0834 H   0  0  0  0  0  0  0  0  0  0  0  0
   12.6373    8.5954  -19.3282 H   0  0  0  0  0  0  0  0  0  0  0  0
   14.0165    5.3274  -18.5088 H   0  0  0  0  0  0  0  0  0  0  0  0
   12.5335    6.2496  -18.6141 H   0  0  0  0  0  0  0  0  0  0  0  0
   13.3424    4.0713  -16.5703 H   0  0  0  0  0  0  0  0  0  0  0  0
   11.7687    4.8433  -16.6191 H   0  0  0  0  0  0  0  0  0  0  0  0
   13.6992    4.7851  -14.2470 H   0  0  0  0  0  0  0  0  0  0  0  0
   12.1787    3.9685  -14.3565 H   0  0  0  0  0  0  0  0  0  0  0  0
    8.6863    3.0112  -14.2324 H   0  0  0  0  0  0  0  0  0  0  0  0
    4.9151    4.1602  -12.5115 H   0  0  0  0  0  0  0  0  0  0  0  0
    5.8749    6.3201  -11.8550 H   0  0  0  0  0  0  0  0  0  0  0  0
    7.5317    7.6296  -11.7049 H   0  0  0  0  0  0  0  0  0  0  0  0
    8.5702    8.6922  -10.1889 H   0  0  0  0  0  0  0  0  0  0  0  0
   10.6661    9.3063   -9.0419 H   0  0  0  0  0  0  0  0  0  0  0  0
   12.8417    8.4748   -9.9222 H   0  0  0  0  0  0  0  0  0  0  0  0
   12.8860    7.0227  -11.8917 H   0  0  0  0  0  0  0  0  0  0  0  0
   12.1017    8.1741  -14.2094 H   0  0  0  0  0  0  0  0  0  0  0  0
   13.6768    7.4091  -14.1794 H   0  0  0  0  0  0  0  0  0  0  0  0
   13.1739    8.3021  -16.4234 H   0  0  0  0  0  0  0  0  0  0  0  0
   11.6856    7.3738  -16.5023 H   0  0  0  0  0  0  0  0  0  0  0  0
   14.3406    6.2021  -16.3081 H   0  0  0  0  0  0  0  0  0  0  0  0
  2  1  1  0
  3  2  1  0
  4  2  1  0
  5  4  1  0
  6  5  1  0
  7  6  2  0
  8  7  1  0
  9  8  2  0
 10  9  1  0
 11 10  1  0
 12 11  1  0
 13 12  1  0
 14 13  1  0
 15 14  1  0
 16 15  2  0
 17 16  1  0
 18 17  1  0
 19 18  2  0
 20 19  1  0
 21 19  1  0
 22 21  2  0
 23 17  2  0
 23 22  1  0
 24 23  1  0
 25 24  1  0
 26 25  2  0
 27 26  1  0
 28 27  2  0
 29 28  1  0
 30 15  1  0
 30 25  1  0
 30 29  2  0
 31 14  1  0
 32 11  1  0
 32 31  1  0
 33  5  2  0
 33  9  1  0
 34  2  1  0
 34 33  1  0
 35  6  1  0
 36  7  1  0
 37  8  1  0
 38 10  1  0
 39 10  1  0
 40 12  1  0
 41 12  1  0
 42 13  1  0
 43 13  1  0
 44 18  1  0
 45 21  1  0
 46 22  1  0
 47 24  1  0
 48 26  1  0
 49 27  1  0
 50 28  1  0
 51 29  1  0
 52 31  1  0
 53 31  1  0
 54 32  1  0
 55 32  1  0
 56 11  1  0
M  CHG  1  11   1
M  END
>  <b_m_subgroup_collapsed>  (952) 
0

>  <r_i_docking_score>  (952) 
-7.0705417106399304

>  <s_m_subgroup_title>  (952) 
glide-dock_SP_D22_pv

>  <s_m_subgroupid>  (952) 
glide-dock_SP_D22_pv

>  <Molecule ChEMBL ID>  (952) 
CHEMBL384634

>  <Standard Type>  (952) 
Ki

>  <Standard Value>  (952) 
8.0

>  <label>  (952) 
1

$$$$
CHEMBL1632174
     RDKit          3D

 64 67  0  0  1  0  0  0  0  0999 V2000
   12.4854    8.3261   -2.4467 O   0  0  0  0  0  0  0  0  0  0  0  0
   12.2247    8.1065   -3.6489 C   0  0  0  0  0  0  0  0  0  0  0  0
   11.9499    6.9849   -4.1282 O   0  0  0  0  0  0  0  0  0  0  0  0
   12.2896    9.3185   -4.5921 C   0  0  0  0  0  0  0  0  0  0  0  0
   11.6457    9.0830   -5.9783 C   0  0  0  0  0  0  0  0  0  0  0  0
   10.1247    8.8955   -5.9246 C   0  0  0  0  0  0  0  0  0  0  0  0
    9.4751    8.6477   -7.2918 C   0  0  0  0  0  0  0  0  0  0  0  0
    9.5915    7.1688   -7.6954 C   0  0  0  0  0  0  0  0  0  0  0  0
    9.0638    6.8906   -9.0523 N   0  0  2  0  0  0  0  0  0  0  0  0
    8.7361    5.4530   -9.2247 C   0  0  0  0  0  0  0  0  0  0  0  0
    8.0860    5.2135  -10.5889 C   0  0  0  0  0  0  0  0  0  0  0  0
    9.0283    5.6359  -11.7226 C   0  0  1  0  0  0  0  0  0  0  0  0
    8.4124    5.3608  -13.1139 C   0  0  0  0  0  0  0  0  0  0  0  0
    9.2545    4.5250  -13.9652 N   0  0  0  0  0  0  0  0  0  0  0  0
   10.5079    4.7874  -14.3653 C   0  0  0  0  0  0  0  0  0  0  0  0
   11.1532    5.7646  -13.9909 O   0  0  0  0  0  0  0  0  0  0  0  0
   11.0242    3.8185  -15.3680 C   0  0  0  0  0  0  0  0  0  0  0  0
   10.6440    2.5182  -15.5737 C   0  0  0  0  0  0  0  0  0  0  0  0
   11.3530    2.0101  -16.6641 N   0  0  0  0  0  0  0  0  0  0  0  0
   12.2433    2.9730  -17.1271 C   0  0  0  0  0  0  0  0  0  0  0  0
   13.1808    2.9505  -18.1787 C   0  0  0  0  0  0  0  0  0  0  0  0
   13.9718    4.0860  -18.4336 C   0  0  0  0  0  0  0  0  0  0  0  0
   13.8165    5.2368  -17.6378 C   0  0  0  0  0  0  0  0  0  0  0  0
   12.8740    5.2566  -16.5909 C   0  0  0  0  0  0  0  0  0  0  0  0
   12.0630    4.1301  -16.3088 C   0  0  0  0  0  0  0  0  0  0  0  0
   11.1849    0.6730  -17.2073 C   0  0  0  0  0  0  0  0  0  0  0  0
   10.0174   -0.0619  -16.5332 C   0  0  0  0  0  0  0  0  0  0  0  0
    9.9102    0.3362  -15.0572 C   0  0  0  0  0  0  0  0  0  0  0  0
    9.7185    1.7429  -14.9470 O   0  0  0  0  0  0  0  0  0  0  0  0
    9.3757    7.1246  -11.5221 C   0  0  0  0  0  0  0  0  0  0  0  0
    9.9661    7.3815  -10.1302 C   0  0  0  0  0  0  0  0  0  0  0  0
   13.3404    9.5760   -4.7241 H   0  0  0  0  0  0  0  0  0  0  0  0
   11.8200   10.1720   -4.1031 H   0  0  0  0  0  0  0  0  0  0  0  0
   12.0860    8.2137   -6.4630 H   0  0  0  0  0  0  0  0  0  0  0  0
   11.8792    9.9340   -6.6188 H   0  0  0  0  0  0  0  0  0  0  0  0
    9.6867    9.7710   -5.4471 H   0  0  0  0  0  0  0  0  0  0  0  0
    9.9020    8.0379   -5.2944 H   0  0  0  0  0  0  0  0  0  0  0  0
    9.9191    9.3177   -8.0249 H   0  0  0  0  0  0  0  0  0  0  0  0
    8.4172    8.9107   -7.2380 H   0  0  0  0  0  0  0  0  0  0  0  0
    9.0310    6.5827   -6.9666 H   0  0  0  0  0  0  0  0  0  0  0  0
   10.6250    6.8245   -7.6340 H   0  0  0  0  0  0  0  0  0  0  0  0
    8.0595    5.1342   -8.4344 H   0  0  0  0  0  0  0  0  0  0  0  0
    9.6406    4.8508   -9.1255 H   0  0  0  0  0  0  0  0  0  0  0  0
    7.1509    5.7725  -10.6500 H   0  0  0  0  0  0  0  0  0  0  0  0
    7.8162    4.1681  -10.6923 H   0  0  0  0  0  0  0  0  0  0  0  0
    9.9442    5.0531  -11.6106 H   0  0  0  0  0  0  0  0  0  0  0  0
    8.1783    6.2904  -13.6332 H   0  0  0  0  0  0  0  0  0  0  0  0
    7.4597    4.8440  -13.0095 H   0  0  0  0  0  0  0  0  0  0  0  0
    8.8384    3.6757  -14.3189 H   0  0  0  0  0  0  0  0  0  0  0  0
   13.2946    2.0642  -18.7854 H   0  0  0  0  0  0  0  0  0  0  0  0
   14.6909    4.0784  -19.2371 H   0  0  0  0  0  0  0  0  0  0  0  0
   14.4204    6.1120  -17.8321 H   0  0  0  0  0  0  0  0  0  0  0  0
   12.7681    6.1515  -15.9967 H   0  0  0  0  0  0  0  0  0  0  0  0
   11.0329    0.7371  -18.2851 H   0  0  0  0  0  0  0  0  0  0  0  0
   12.1148    0.1343  -17.0467 H   0  0  0  0  0  0  0  0  0  0  0  0
    9.0860    0.2041  -17.0348 H   0  0  0  0  0  0  0  0  0  0  0  0
   10.1288   -1.1413  -16.6377 H   0  0  0  0  0  0  0  0  0  0  0  0
    9.0654   -0.1680  -14.5901 H   0  0  0  0  0  0  0  0  0  0  0  0
   10.8037    0.0405  -14.5077 H   0  0  0  0  0  0  0  0  0  0  0  0
   10.0852    7.4548  -12.2802 H   0  0  0  0  0  0  0  0  0  0  0  0
    8.4850    7.7395  -11.6567 H   0  0  0  0  0  0  0  0  0  0  0  0
   10.1454    8.4486  -10.0213 H   0  0  0  0  0  0  0  0  0  0  0  0
   10.9379    6.8933  -10.0416 H   0  0  0  0  0  0  0  0  0  0  0  0
    8.1739    7.3734   -9.1476 H   0  0  0  0  0  0  0  0  0  0  0  0
  2  1  2  0
  3  2  1  0
  4  2  1  0
  5  4  1  0
  6  5  1  0
  7  6  1  0
  8  7  1  0
  9  8  1  0
 10  9  1  0
 11 10  1  0
 12 11  1  0
 13 12  1  0
 14 13  1  0
 15 14  1  0
 16 15  2  0
 17 15  1  0
 18 17  2  0
 19 18  1  0
 20 19  1  0
 21 20  2  0
 22 21  1  0
 23 22  2  0
 24 23  1  0
 25 17  1  0
 25 20  1  0
 25 24  2  0
 26 19  1  0
 27 26  1  0
 28 27  1  0
 29 18  1  0
 29 28  1  0
 30 12  1  0
 31  9  1  0
 31 30  1  0
 32  4  1  0
 33  4  1  0
 34  5  1  0
 35  5  1  0
 36  6  1  0
 37  6  1  0
 38  7  1  0
 39  7  1  0
 40  8  1  0
 41  8  1  0
 42 10  1  0
 43 10  1  0
 44 11  1  0
 45 11  1  0
 12 46  1  6
 47 13  1  0
 48 13  1  0
 49 14  1  0
 50 21  1  0
 51 22  1  0
 52 23  1  0
 53 24  1  0
 54 26  1  0
 55 26  1  0
 56 27  1  0
 57 27  1  0
 58 28  1  0
 59 28  1  0
 60 30  1  0
 61 30  1  0
 62 31  1  0
 63 31  1  0
  9 64  1  1
M  CHG  2   3  -1   9   1
M  END
>  <b_m_subgroup_collapsed>  (953) 
0

>  <r_i_docking_score>  (953) 
-7.0702552858029

>  <s_m_subgroup_title>  (953) 
glide-dock_SP_D22_pv

>  <s_m_subgroupid>  (953) 
glide-dock_SP_D22_pv

>  <Molecule ChEMBL ID>  (953) 
CHEMBL1632174

>  <Standard Type>  (953) 
Ki

>  <Standard Value>  (953) 
10000.0

>  <label>  (953) 
0

$$$$
CHEMBL314952
     RDKit          3D

 45 48  0  0  1  0  0  0  0  0999 V2000
    6.8524    4.1718  -12.3937 O   0  0  0  0  0  0  0  0  0  0  0  0
    7.9455    4.7178  -12.5153 C   0  0  0  0  0  0  0  0  0  0  0  0
    8.4888    5.7722  -11.5410 C   0  0  0  0  0  0  0  0  0  0  0  0
    9.7970    6.1202  -12.2298 C   0  0  0  0  0  0  0  0  0  0  0  0
    9.9341    5.3240  -13.3649 C   0  0  0  0  0  0  0  0  0  0  0  0
   11.0643    5.3729  -14.1940 C   0  0  0  0  0  0  0  0  0  0  0  0
   12.0860    6.2786  -13.8439 C   0  0  0  0  0  0  0  0  0  0  0  0
   11.9640    7.0877  -12.6889 C   0  0  0  0  0  0  0  0  0  0  0  0
   10.8178    7.0316  -11.8546 C   0  0  0  0  0  0  0  0  0  0  0  0
   10.7604    7.8473  -10.7068 N   0  0  0  0  0  0  0  0  0  0  0  0
   11.8790    7.9174   -9.7793 C   0  0  0  0  0  0  0  0  0  0  0  0
   11.4344    7.4266   -8.3870 C   0  0  0  0  0  0  0  0  0  0  0  0
   10.2287    8.1518   -7.9129 N   0  0  0  0  0  0  0  0  0  0  0  0
    9.7490    7.7032   -6.5866 C   0  0  0  0  0  0  0  0  0  0  0  0
   10.7141    7.9931   -5.4491 C   0  0  0  0  0  0  0  0  0  0  0  0
   11.2914    6.9263   -4.7336 C   0  0  0  0  0  0  0  0  0  0  0  0
   12.0816    7.1771   -3.5938 C   0  0  0  0  0  0  0  0  0  0  0  0
   12.2650    8.4981   -3.1443 C   0  0  0  0  0  0  0  0  0  0  0  0
   11.6858    9.5673   -3.8555 C   0  0  0  0  0  0  0  0  0  0  0  0
   10.9375    9.3218   -5.0230 C   0  0  0  0  0  0  0  0  0  0  0  0
    9.1229    8.1059   -8.8995 C   0  0  0  0  0  0  0  0  0  0  0  0
    9.5585    8.5519  -10.2994 C   0  0  0  0  0  0  0  0  0  0  0  0
    8.8156    4.5017  -13.5064 N   0  0  0  0  0  0  0  0  0  0  0  0
    8.6523    5.3460  -10.5525 H   0  0  0  0  0  0  0  0  0  0  0  0
    7.7953    6.6043  -11.4870 H   0  0  0  0  0  0  0  0  0  0  0  0
   11.1526    4.7451  -15.0681 H   0  0  0  0  0  0  0  0  0  0  0  0
   12.9751    6.3468  -14.4524 H   0  0  0  0  0  0  0  0  0  0  0  0
   12.7695    7.7679  -12.4521 H   0  0  0  0  0  0  0  0  0  0  0  0
   12.2235    8.9527   -9.7233 H   0  0  0  0  0  0  0  0  0  0  0  0
   12.7279    7.3333  -10.1327 H   0  0  0  0  0  0  0  0  0  0  0  0
   12.2529    7.5524   -7.6808 H   0  0  0  0  0  0  0  0  0  0  0  0
   11.2094    6.3596   -8.4259 H   0  0  0  0  0  0  0  0  0  0  0  0
    9.5120    6.6379   -6.6198 H   0  0  0  0  0  0  0  0  0  0  0  0
    8.8100    8.2069   -6.3475 H   0  0  0  0  0  0  0  0  0  0  0  0
   11.1201    5.9055   -5.0404 H   0  0  0  0  0  0  0  0  0  0  0  0
   12.5119    6.3522   -3.0439 H   0  0  0  0  0  0  0  0  0  0  0  0
   12.8359    8.6925   -2.2483 H   0  0  0  0  0  0  0  0  0  0  0  0
   11.7947   10.5722   -3.4780 H   0  0  0  0  0  0  0  0  0  0  0  0
   10.4815   10.1506   -5.5445 H   0  0  0  0  0  0  0  0  0  0  0  0
    8.7087    7.0976   -8.9399 H   0  0  0  0  0  0  0  0  0  0  0  0
    8.3238    8.7637   -8.5579 H   0  0  0  0  0  0  0  0  0  0  0  0
    9.7967    9.6089  -10.2431 H   0  0  0  0  0  0  0  0  0  0  0  0
    8.7544    8.4591  -11.0284 H   0  0  0  0  0  0  0  0  0  0  0  0
    8.6938    3.8446  -14.2624 H   0  0  0  0  0  0  0  0  0  0  0  0
   10.4906    9.1227   -7.8226 H   0  0  0  0  0  0  0  0  0  0  0  0
  2  1  2  0
  3  2  1  0
  4  3  1  0
  5  4  2  0
  6  5  1  0
  7  6  2  0
  8  7  1  0
  9  4  1  0
  9  8  2  0
 10  9  1  0
 11 10  1  0
 12 11  1  0
 13 12  1  0
 14 13  1  0
 15 14  1  0
 16 15  2  0
 17 16  1  0
 18 17  2  0
 19 18  1  0
 20 15  1  0
 20 19  2  0
 21 13  1  0
 22 10  1  0
 22 21  1  0
 23  2  1  0
 23  5  1  0
 24  3  1  0
 25  3  1  0
 26  6  1  0
 27  7  1  0
 28  8  1  0
 29 11  1  0
 30 11  1  0
 31 12  1  0
 32 12  1  0
 33 14  1  0
 34 14  1  0
 35 16  1  0
 36 17  1  0
 37 18  1  0
 38 19  1  0
 39 20  1  0
 40 21  1  0
 41 21  1  0
 42 22  1  0
 43 22  1  0
 44 23  1  0
 45 13  1  0
M  CHG  1  13   1
M  END
>  <b_m_subgroup_collapsed>  (954) 
0

>  <r_i_docking_score>  (954) 
-7.0662605066784003

>  <s_m_subgroup_title>  (954) 
glide-dock_SP_D22_pv

>  <s_m_subgroupid>  (954) 
glide-dock_SP_D22_pv

>  <Molecule ChEMBL ID>  (954) 
CHEMBL314952

>  <Standard Type>  (954) 
Ki

>  <Standard Value>  (954) 
8.0

>  <label>  (954) 
1

$$$$
CHEMBL594799
     RDKit          3D

 45 47  0  0  1  0  0  0  0  0999 V2000
   12.6823    8.4359  -10.4316 C   0  0  0  0  0  0  0  0  0  0  0  0
   11.3359    9.0726  -10.0522 C   0  0  0  0  0  0  0  0  0  0  0  0
   10.7254    8.4317   -8.8194 C   0  0  0  0  0  0  0  0  0  0  0  0
   11.3029    8.8202   -7.5899 C   0  0  0  0  0  0  0  0  0  0  0  0
   10.8106    8.3474   -6.3581 C   0  0  0  0  0  0  0  0  0  0  0  0
   11.3469    8.6528   -5.1268 O   0  0  0  0  0  0  0  0  0  0  0  0
   12.3575    9.6463   -5.0669 C   0  0  0  0  0  0  0  0  0  0  0  0
    9.6861    7.5165   -6.3805 C   0  0  0  0  0  0  0  0  0  0  0  0
    9.0745    7.1576   -7.5931 C   0  0  0  0  0  0  0  0  0  0  0  0
    9.6258    7.5168   -8.8510 C   0  0  0  0  0  0  0  0  0  0  0  0
    9.0441    6.9028  -10.1677 C   0  0  1  0  0  0  0  0  0  0  0  0
   10.1403    6.3740  -11.1137 C   0  0  0  0  0  0  0  0  0  0  0  0
    9.6810    5.5301  -12.2897 C   0  0  0  0  0  0  0  0  0  0  0  0
   10.5813    5.2179  -13.3308 C   0  0  0  0  0  0  0  0  0  0  0  0
   10.1807    4.3768  -14.3845 C   0  0  0  0  0  0  0  0  0  0  0  0
    8.8759    3.8503  -14.4040 C   0  0  0  0  0  0  0  0  0  0  0  0
    7.9672    4.1770  -13.3791 C   0  0  0  0  0  0  0  0  0  0  0  0
    8.3682    5.0203  -12.3212 C   0  0  0  0  0  0  0  0  0  0  0  0
    7.3971    5.3738  -11.2101 C   0  0  0  0  0  0  0  0  0  0  0  0
    8.0862    5.7723   -9.9487 N   0  0  1  0  0  0  0  0  0  0  0  0
    8.6570    4.5721   -9.2641 C   0  0  0  0  0  0  0  0  0  0  0  0
   13.0803    8.8753  -11.3464 H   0  0  0  0  0  0  0  0  0  0  0  0
   13.4205    8.5721   -9.6414 H   0  0  0  0  0  0  0  0  0  0  0  0
   12.6041    7.3658  -10.5851 H   0  0  0  0  0  0  0  0  0  0  0  0
   10.6261    9.0754  -10.8737 H   0  0  0  0  0  0  0  0  0  0  0  0
   11.4974   10.1313   -9.8464 H   0  0  0  0  0  0  0  0  0  0  0  0
   12.1560    9.4781   -7.6111 H   0  0  0  0  0  0  0  0  0  0  0  0
   12.6487    9.7838   -4.0263 H   0  0  0  0  0  0  0  0  0  0  0  0
   13.2540    9.3726   -5.6221 H   0  0  0  0  0  0  0  0  0  0  0  0
   11.9838   10.5974   -5.4484 H   0  0  0  0  0  0  0  0  0  0  0  0
    9.2862    7.1529   -5.4476 H   0  0  0  0  0  0  0  0  0  0  0  0
    8.1805    6.5575   -7.5173 H   0  0  0  0  0  0  0  0  0  0  0  0
    8.4982    7.6970  -10.6806 H   0  0  0  0  0  0  0  0  0  0  0  0
   10.7880    5.7890  -10.4678 H   0  0  0  0  0  0  0  0  0  0  0  0
   10.7154    7.1560  -11.5844 H   0  0  0  0  0  0  0  0  0  0  0  0
   11.5892    5.6062  -13.3144 H   0  0  0  0  0  0  0  0  0  0  0  0
   10.8761    4.1305  -15.1736 H   0  0  0  0  0  0  0  0  0  0  0  0
    8.5714    3.2010  -15.2121 H   0  0  0  0  0  0  0  0  0  0  0  0
    6.9637    3.7746  -13.4080 H   0  0  0  0  0  0  0  0  0  0  0  0
    6.7472    6.1725  -11.5619 H   0  0  0  0  0  0  0  0  0  0  0  0
    6.7580    4.5062  -11.0469 H   0  0  0  0  0  0  0  0  0  0  0  0
    9.4139    4.0966   -9.8852 H   0  0  0  0  0  0  0  0  0  0  0  0
    9.1417    4.7694   -8.3126 H   0  0  0  0  0  0  0  0  0  0  0  0
    7.8872    3.8272   -9.0638 H   0  0  0  0  0  0  0  0  0  0  0  0
    7.3620    6.1820   -9.3673 H   0  0  0  0  0  0  0  0  0  0  0  0
  2  1  1  0
  3  2  1  0
  4  3  1  0
  5  4  2  0
  6  5  1  0
  7  6  1  0
  8  5  1  0
  9  8  2  0
 10  3  2  0
 10  9  1  0
 11 10  1  0
 12 11  1  0
 13 12  1  0
 14 13  2  0
 15 14  1  0
 16 15  2  0
 17 16  1  0
 18 13  1  0
 18 17  2  0
 19 18  1  0
 20 11  1  0
 20 19  1  0
 21 20  1  0
 22  1  1  0
 23  1  1  0
 24  1  1  0
 25  2  1  0
 26  2  1  0
 27  4  1  0
 28  7  1  0
 29  7  1  0
 30  7  1  0
 31  8  1  0
 32  9  1  0
 11 33  1  6
 34 12  1  0
 35 12  1  0
 36 14  1  0
 37 15  1  0
 38 16  1  0
 39 17  1  0
 40 19  1  0
 41 19  1  0
 42 21  1  0
 43 21  1  0
 44 21  1  0
 20 45  1  1
M  CHG  1  20   1
M  END
>  <b_m_subgroup_collapsed>  (955) 
0

>  <r_i_docking_score>  (955) 
-7.0659015595332004

>  <s_m_subgroup_title>  (955) 
glide-dock_SP_D22_pv

>  <s_m_subgroupid>  (955) 
glide-dock_SP_D22_pv

>  <Molecule ChEMBL ID>  (955) 
CHEMBL594799

>  <Standard Type>  (955) 
Ki

>  <Standard Value>  (955) 
10000.0

>  <label>  (955) 
0

$$$$
CHEMBL397180
     RDKit          3D

 45 47  0  0  1  0  0  0  0  0999 V2000
    8.3485    3.4380  -14.2457 C   0  0  0  0  0  0  0  0  0  0  0  0
    9.3635    4.4131  -14.0542 O   0  0  0  0  0  0  0  0  0  0  0  0
    9.3744    5.1202  -12.8698 C   0  0  0  0  0  0  0  0  0  0  0  0
    8.3992    4.9724  -11.8497 C   0  0  0  0  0  0  0  0  0  0  0  0
    8.4954    5.7063  -10.6529 C   0  0  0  0  0  0  0  0  0  0  0  0
    9.5531    6.6204  -10.4626 C   0  0  0  0  0  0  0  0  0  0  0  0
    9.6828    7.3914   -9.1603 C   0  0  0  0  0  0  0  0  0  0  0  0
   11.0760    7.2213   -8.5004 C   0  0  0  0  0  0  0  0  0  0  0  0
   11.2834    8.0310   -7.2696 N   0  0  1  0  0  0  0  0  0  0  0  0
   11.0752    9.4774   -7.5169 C   0  0  0  0  0  0  0  0  0  0  0  0
   11.7303   10.3785   -6.4655 C   0  0  0  0  0  0  0  0  0  0  0  0
   11.0156   10.3079   -5.1194 C   0  0  0  0  0  0  0  0  0  0  0  0
   11.4835    9.1365   -4.3013 C   0  0  0  0  0  0  0  0  0  0  0  0
   12.0859    9.3676   -3.0481 C   0  0  0  0  0  0  0  0  0  0  0  0
   12.4856    8.2864   -2.2462 C   0  0  0  0  0  0  0  0  0  0  0  0
   12.2848    6.9711   -2.7009 C   0  0  0  0  0  0  0  0  0  0  0  0
   11.6866    6.7442   -3.9530 C   0  0  0  0  0  0  0  0  0  0  0  0
   11.2859    7.8165   -4.7699 C   0  0  0  0  0  0  0  0  0  0  0  0
   10.5559    7.5180   -6.0814 C   0  0  0  0  0  0  0  0  0  0  0  0
   10.4859    6.8184  -11.5001 C   0  0  0  0  0  0  0  0  0  0  0  0
   10.4255    6.0433  -12.6732 C   0  0  0  0  0  0  0  0  0  0  0  0
   11.6857    6.1996  -13.8475 Cl  0  0  0  0  0  0  0  0  0  0  0  0
    8.4890    2.9606  -15.2143 H   0  0  0  0  0  0  0  0  0  0  0  0
    7.3553    3.8886  -14.2444 H   0  0  0  0  0  0  0  0  0  0  0  0
    8.4005    2.6598  -13.4838 H   0  0  0  0  0  0  0  0  0  0  0  0
    7.5674    4.2908  -11.9528 H   0  0  0  0  0  0  0  0  0  0  0  0
    7.7479    5.5721   -9.8830 H   0  0  0  0  0  0  0  0  0  0  0  0
    9.4788    8.4339   -9.4025 H   0  0  0  0  0  0  0  0  0  0  0  0
    8.8970    7.0781   -8.4727 H   0  0  0  0  0  0  0  0  0  0  0  0
   11.2719    6.1725   -8.2796 H   0  0  0  0  0  0  0  0  0  0  0  0
   11.8539    7.5170   -9.2045 H   0  0  0  0  0  0  0  0  0  0  0  0
   11.4861    9.7346   -8.4940 H   0  0  0  0  0  0  0  0  0  0  0  0
   10.0088    9.6939   -7.5690 H   0  0  0  0  0  0  0  0  0  0  0  0
   12.7927   10.1587   -6.3523 H   0  0  0  0  0  0  0  0  0  0  0  0
   11.6849   11.4085   -6.8130 H   0  0  0  0  0  0  0  0  0  0  0  0
   11.1657   11.2370   -4.5803 H   0  0  0  0  0  0  0  0  0  0  0  0
    9.9440   10.1865   -5.2375 H   0  0  0  0  0  0  0  0  0  0  0  0
   12.2271   10.3743   -2.6809 H   0  0  0  0  0  0  0  0  0  0  0  0
   12.9407    8.4671   -1.2851 H   0  0  0  0  0  0  0  0  0  0  0  0
   12.5845    6.1333   -2.0859 H   0  0  0  0  0  0  0  0  0  0  0  0
   11.5221    5.7364   -4.2851 H   0  0  0  0  0  0  0  0  0  0  0  0
    9.5382    7.9108   -6.0513 H   0  0  0  0  0  0  0  0  0  0  0  0
   10.4460    6.4359   -6.1668 H   0  0  0  0  0  0  0  0  0  0  0  0
   11.2938    7.5254  -11.3868 H   0  0  0  0  0  0  0  0  0  0  0  0
   12.2628    7.9209   -7.0513 H   0  0  0  0  0  0  0  0  0  0  0  0
  2  1  1  0
  3  2  1  0
  4  3  1  0
  5  4  2  0
  6  5  1  0
  7  6  1  0
  8  7  1  0
  9  8  1  0
 10  9  1  0
 11 10  1  0
 12 11  1  0
 13 12  1  0
 14 13  2  0
 15 14  1  0
 16 15  2  0
 17 16  1  0
 18 13  1  0
 18 17  2  0
 19  9  1  0
 19 18  1  0
 20  6  2  0
 21  3  2  0
 21 20  1  0
 22 21  1  0
 23  1  1  0
 24  1  1  0
 25  1  1  0
 26  4  1  0
 27  5  1  0
 28  7  1  0
 29  7  1  0
 30  8  1  0
 31  8  1  0
 32 10  1  0
 33 10  1  0
 34 11  1  0
 35 11  1  0
 36 12  1  0
 37 12  1  0
 38 14  1  0
 39 15  1  0
 40 16  1  0
 41 17  1  0
 42 19  1  0
 43 19  1  0
 44 20  1  0
  9 45  1  1
M  CHG  1   9   1
M  END
>  <b_m_subgroup_collapsed>  (956) 
0

>  <r_i_docking_score>  (956) 
-7.0612727448246497

>  <s_m_subgroup_title>  (956) 
glide-dock_SP_D22_pv

>  <s_m_subgroupid>  (956) 
glide-dock_SP_D22_pv

>  <Molecule ChEMBL ID>  (956) 
CHEMBL397180

>  <Standard Type>  (956) 
Ki

>  <Standard Value>  (956) 
10000.0

>  <label>  (956) 
0

$$$$
CHEMBL597882
     RDKit          3D

 51 55  0  0  1  0  0  0  0  0999 V2000
   10.7563    7.4068   -7.1251 C   0  0  0  0  0  0  0  0  0  0  0  0
    9.3635    6.9463   -7.5815 C   0  0  0  0  0  0  0  0  0  0  0  0
    9.3445    6.2413   -8.9560 C   0  0  0  0  0  0  0  0  0  0  0  0
    8.8860    7.1106  -10.0833 N   0  0  1  0  0  0  0  0  0  0  0  0
    9.6639    8.3428  -10.2897 C   0  0  0  0  0  0  0  0  0  0  0  0
   11.0411    7.9814  -10.8336 C   0  0  0  0  0  0  0  0  0  0  0  0
   11.0301    7.0741  -12.0634 C   0  0  0  0  0  0  0  0  0  0  0  0
   12.0988    6.9723  -12.9606 C   0  0  0  0  0  0  0  0  0  0  0  0
   12.0787    5.9953  -13.9611 C   0  0  0  0  0  0  0  0  0  0  0  0
   10.9807    5.1261  -14.0787 C   0  0  0  0  0  0  0  0  0  0  0  0
    9.8295    5.1950  -13.2464 C   0  0  0  0  0  0  0  0  0  0  0  0
    9.9144    6.2053  -12.2411 C   0  0  0  0  0  0  0  0  0  0  0  0
    8.6550    6.4520  -11.3978 C   0  0  1  0  0  0  0  0  0  0  0  0
    7.6485    5.2996  -11.3112 C   0  0  0  0  0  0  0  0  0  0  0  0
    7.5275    4.4709  -12.5568 C   0  0  0  0  0  0  0  0  0  0  0  0
    6.3340    3.7439  -12.7310 C   0  0  0  0  0  0  0  0  0  0  0  0
    6.2212    2.7977  -13.7597 C   0  0  0  0  0  0  0  0  0  0  0  0
    7.2985    2.5683  -14.6397 C   0  0  0  0  0  0  0  0  0  0  0  0
    7.5426    1.6833  -15.7438 C   0  0  0  0  0  0  0  0  0  0  0  0
    6.6197    0.6454  -16.3062 C   0  0  0  0  0  0  0  0  0  0  0  0
    8.8114    1.9799  -16.1760 C   0  0  0  0  0  0  0  0  0  0  0  0
    9.6419    1.4077  -17.2747 C   0  0  0  0  0  0  0  0  0  0  0  0
    9.3814    2.9778  -15.4357 O   0  0  0  0  0  0  0  0  0  0  0  0
    8.4734    3.3550  -14.4647 C   0  0  0  0  0  0  0  0  0  0  0  0
    8.6218    4.3347  -13.4425 C   0  0  0  0  0  0  0  0  0  0  0  0
   10.7067    7.8378   -6.1248 H   0  0  0  0  0  0  0  0  0  0  0  0
   11.1807    8.1628   -7.7836 H   0  0  0  0  0  0  0  0  0  0  0  0
   11.4531    6.5687   -7.0851 H   0  0  0  0  0  0  0  0  0  0  0  0
    9.0008    6.2401   -6.8328 H   0  0  0  0  0  0  0  0  0  0  0  0
    8.6505    7.7722   -7.5554 H   0  0  0  0  0  0  0  0  0  0  0  0
   10.3033    5.7723   -9.1803 H   0  0  0  0  0  0  0  0  0  0  0  0
    8.6387    5.4246   -8.8309 H   0  0  0  0  0  0  0  0  0  0  0  0
    9.1387    8.9736  -11.0079 H   0  0  0  0  0  0  0  0  0  0  0  0
    9.7351    8.9347   -9.3784 H   0  0  0  0  0  0  0  0  0  0  0  0
   11.5923    8.8967  -11.0469 H   0  0  0  0  0  0  0  0  0  0  0  0
   11.6281    7.4766  -10.0665 H   0  0  0  0  0  0  0  0  0  0  0  0
   12.9646    7.6100  -12.8537 H   0  0  0  0  0  0  0  0  0  0  0  0
   12.9192    5.8989  -14.6331 H   0  0  0  0  0  0  0  0  0  0  0  0
   11.0609    4.4086  -14.8737 H   0  0  0  0  0  0  0  0  0  0  0  0
    8.1275    7.1974  -11.9968 H   0  0  0  0  0  0  0  0  0  0  0  0
    7.9240    4.5683  -10.5565 H   0  0  0  0  0  0  0  0  0  0  0  0
    6.6684    5.6965  -11.0469 H   0  0  0  0  0  0  0  0  0  0  0  0
    5.5191    3.8658  -12.0306 H   0  0  0  0  0  0  0  0  0  0  0  0
    5.3157    2.2164  -13.8469 H   0  0  0  0  0  0  0  0  0  0  0  0
    7.1640   -0.2522  -16.6020 H   0  0  0  0  0  0  0  0  0  0  0  0
    6.0933    1.0205  -17.1840 H   0  0  0  0  0  0  0  0  0  0  0  0
    5.8695    0.3417  -15.5758 H   0  0  0  0  0  0  0  0  0  0  0  0
    9.0164    1.0726  -18.1021 H   0  0  0  0  0  0  0  0  0  0  0  0
   10.2154    0.5527  -16.9164 H   0  0  0  0  0  0  0  0  0  0  0  0
   10.3434    2.1469  -17.6625 H   0  0  0  0  0  0  0  0  0  0  0  0
    7.9329    7.4109   -9.8469 H   0  0  0  0  0  0  0  0  0  0  0  0
  2  1  1  0
  3  2  1  0
  4  3  1  0
  5  4  1  0
  6  5  1  0
  7  6  1  0
  8  7  1  0
  9  8  2  0
 10  9  1  0
 11 10  2  0
 12  7  2  0
 12 11  1  0
 13  4  1  0
 13 12  1  0
 14 13  1  0
 15 14  1  0
 16 15  2  0
 17 16  1  0
 18 17  2  0
 19 18  1  0
 20 19  1  0
 21 19  2  0
 22 21  1  0
 23 21  1  0
 24 18  1  0
 24 23  1  0
 25 11  1  0
 25 15  1  0
 25 24  2  0
 26  1  1  0
 27  1  1  0
 28  1  1  0
 29  2  1  0
 30  2  1  0
 31  3  1  0
 32  3  1  0
 33  5  1  0
 34  5  1  0
 35  6  1  0
 36  6  1  0
 37  8  1  0
 38  9  1  0
 39 10  1  0
 13 40  1  6
 41 14  1  0
 42 14  1  0
 43 16  1  0
 44 17  1  0
 45 20  1  0
 46 20  1  0
 47 20  1  0
 48 22  1  0
 49 22  1  0
 50 22  1  0
  4 51  1  1
M  CHG  1   4   1
M  END
>  <b_m_subgroup_collapsed>  (957) 
0

>  <r_i_docking_score>  (957) 
-7.0606625842975896

>  <s_m_subgroup_title>  (957) 
glide-dock_SP_D22_pv

>  <s_m_subgroupid>  (957) 
glide-dock_SP_D22_pv

>  <Molecule ChEMBL ID>  (957) 
CHEMBL597882

>  <Standard Type>  (957) 
Ki

>  <Standard Value>  (957) 
10000.0

>  <label>  (957) 
0

$$$$
CHEMBL131299
     RDKit          3D

 45 46  0  0  1  0  0  0  0  0999 V2000
   12.5129    8.2712   -1.7021 C   0  0  0  0  0  0  0  0  0  0  0  0
   12.0133    8.3275   -3.1245 C   0  0  0  0  0  0  0  0  0  0  0  0
   11.7359    9.5749   -3.7116 C   0  0  0  0  0  0  0  0  0  0  0  0
   11.2628    9.6433   -5.0347 C   0  0  0  0  0  0  0  0  0  0  0  0
   11.0351    8.4683   -5.7788 C   0  0  0  0  0  0  0  0  0  0  0  0
   10.5773    8.6353   -7.0674 O   0  0  0  0  0  0  0  0  0  0  0  0
   10.4430    7.4988   -7.9103 C   0  0  0  0  0  0  0  0  0  0  0  0
    9.1234    6.7525   -7.6466 C   0  0  0  0  0  0  0  0  0  0  0  0
    8.8698    5.6257   -8.6576 C   0  0  0  0  0  0  0  0  0  0  0  0
    8.4860    6.1723   -9.9737 N   0  0  0  0  0  0  0  0  0  0  0  0
    8.3138    5.1691  -11.0405 C   0  0  0  0  0  0  0  0  0  0  0  0
    7.6940    5.8072  -12.3006 C   0  0  0  0  0  0  0  0  0  0  0  0
    7.7983    4.9402  -13.4271 O   0  0  0  0  0  0  0  0  0  0  0  0
    7.0656    3.7725  -13.4416 C   0  0  0  0  0  0  0  0  0  0  0  0
    7.4894    2.7569  -14.3240 C   0  0  0  0  0  0  0  0  0  0  0  0
    6.8307    1.5119  -14.3652 C   0  0  0  0  0  0  0  0  0  0  0  0
    5.7329    1.2698  -13.5184 C   0  0  0  0  0  0  0  0  0  0  0  0
    5.2931    2.2820  -12.6468 C   0  0  0  0  0  0  0  0  0  0  0  0
    5.9409    3.5305  -12.6155 C   0  0  0  0  0  0  0  0  0  0  0  0
   11.2863    7.2126   -5.1685 C   0  0  0  0  0  0  0  0  0  0  0  0
   11.7804    7.1442   -3.8517 C   0  0  0  0  0  0  0  0  0  0  0  0
   12.8828    7.2782   -1.4469 H   0  0  0  0  0  0  0  0  0  0  0  0
   13.3205    8.9863   -1.5464 H   0  0  0  0  0  0  0  0  0  0  0  0
   11.6887    8.5290   -1.0393 H   0  0  0  0  0  0  0  0  0  0  0  0
   11.8865   10.4820   -3.1428 H   0  0  0  0  0  0  0  0  0  0  0  0
   11.0660   10.6064   -5.4827 H   0  0  0  0  0  0  0  0  0  0  0  0
   11.3074    6.8370   -7.8415 H   0  0  0  0  0  0  0  0  0  0  0  0
   10.4451    7.8760   -8.9330 H   0  0  0  0  0  0  0  0  0  0  0  0
    8.2974    7.4633   -7.6561 H   0  0  0  0  0  0  0  0  0  0  0  0
    9.1239    6.3269   -6.6444 H   0  0  0  0  0  0  0  0  0  0  0  0
    8.0686    4.9827   -8.2948 H   0  0  0  0  0  0  0  0  0  0  0  0
    9.7571    4.9980   -8.7550 H   0  0  0  0  0  0  0  0  0  0  0  0
    9.1853    6.8370  -10.2676 H   0  0  0  0  0  0  0  0  0  0  0  0
    7.6861    4.3568  -10.6732 H   0  0  0  0  0  0  0  0  0  0  0  0
    9.2877    4.7384  -11.2773 H   0  0  0  0  0  0  0  0  0  0  0  0
    8.2523    6.7087  -12.5558 H   0  0  0  0  0  0  0  0  0  0  0  0
    6.6684    6.1375  -12.1323 H   0  0  0  0  0  0  0  0  0  0  0  0
    8.3428    2.9277  -14.9639 H   0  0  0  0  0  0  0  0  0  0  0  0
    7.1760    0.7385  -15.0362 H   0  0  0  0  0  0  0  0  0  0  0  0
    5.2380    0.3100  -13.5347 H   0  0  0  0  0  0  0  0  0  0  0  0
    4.4860    2.0958  -11.9647 H   0  0  0  0  0  0  0  0  0  0  0  0
    5.5733    4.2712  -11.9219 H   0  0  0  0  0  0  0  0  0  0  0  0
   11.1300    6.2811   -5.6891 H   0  0  0  0  0  0  0  0  0  0  0  0
   11.9709    6.1790   -3.4037 H   0  0  0  0  0  0  0  0  0  0  0  0
    7.6082    6.6980   -9.8718 H   0  0  0  0  0  0  0  0  0  0  0  0
  2  1  1  0
  3  2  1  0
  4  3  2  0
  5  4  1  0
  6  5  1  0
  7  6  1  0
  8  7  1  0
  9  8  1  0
 10  9  1  0
 11 10  1  0
 12 11  1  0
 13 12  1  0
 14 13  1  0
 15 14  2  0
 16 15  1  0
 17 16  2  0
 18 17  1  0
 19 14  1  0
 19 18  2  0
 20  5  2  0
 21  2  2  0
 21 20  1  0
 22  1  1  0
 23  1  1  0
 24  1  1  0
 25  3  1  0
 26  4  1  0
 27  7  1  0
 28  7  1  0
 29  8  1  0
 30  8  1  0
 31  9  1  0
 32  9  1  0
 33 10  1  0
 34 11  1  0
 35 11  1  0
 36 12  1  0
 37 12  1  0
 38 15  1  0
 39 16  1  0
 40 17  1  0
 41 18  1  0
 42 19  1  0
 43 20  1  0
 44 21  1  0
 45 10  1  0
M  CHG  1  10   1
M  END
>  <b_m_subgroup_collapsed>  (958) 
0

>  <r_i_docking_score>  (958) 
-7.0597348863827998

>  <s_m_subgroup_title>  (958) 
glide-dock_SP_D22_pv

>  <s_m_subgroupid>  (958) 
glide-dock_SP_D22_pv

>  <Molecule ChEMBL ID>  (958) 
CHEMBL131299

>  <Standard Type>  (958) 
Ki

>  <Standard Value>  (958) 
64.0

>  <label>  (958) 
1

$$$$
CHEMBL1188090
     RDKit          3D

 47 48  0  0  1  0  0  0  0  0999 V2000
    9.6861    4.1734   -9.6765 C   0  0  0  0  0  0  0  0  0  0  0  0
    8.4867    4.7660   -8.9334 C   0  0  0  0  0  0  0  0  0  0  0  0
    8.8655    5.7836   -7.8443 C   0  0  0  0  0  0  0  0  0  0  0  0
    9.0284    7.2176   -8.2448 N   0  0  2  0  0  0  0  0  0  0  0  0
    9.9093    7.4845   -9.4199 C   0  0  0  0  0  0  0  0  0  0  0  0
    9.1969    7.3654  -10.7844 C   0  0  0  0  0  0  0  0  0  0  0  0
   10.0785    6.8313  -11.8978 C   0  0  0  0  0  0  0  0  0  0  0  0
    9.6135    5.7713  -12.7076 C   0  0  0  0  0  0  0  0  0  0  0  0
   10.4162    5.2655  -13.7489 C   0  0  0  0  0  0  0  0  0  0  0  0
   11.6780    5.8348  -14.0040 C   0  0  0  0  0  0  0  0  0  0  0  0
   12.1383    6.8970  -13.2042 C   0  0  0  0  0  0  0  0  0  0  0  0
   11.3562    7.3723  -12.1361 C   0  0  0  0  0  0  0  0  0  0  0  0
    9.4273    8.0146   -7.0479 C   0  0  0  0  0  0  0  0  0  0  0  0
   10.9334    7.8757   -6.7020 C   0  0  0  0  0  0  0  0  0  0  0  0
   11.2864    8.1884   -5.2597 C   0  0  0  0  0  0  0  0  0  0  0  0
   11.2857    9.5136   -4.7748 C   0  0  0  0  0  0  0  0  0  0  0  0
   11.6853    9.7719   -3.4466 C   0  0  0  0  0  0  0  0  0  0  0  0
   12.0885    8.7210   -2.6048 C   0  0  0  0  0  0  0  0  0  0  0  0
   12.0857    7.3998   -3.0831 C   0  0  0  0  0  0  0  0  0  0  0  0
   12.4781    6.3851   -2.2631 O   0  0  0  0  0  0  0  0  0  0  0  0
   11.6829    7.1342   -4.4056 C   0  0  0  0  0  0  0  0  0  0  0  0
    9.4214    3.7786  -10.6579 H   0  0  0  0  0  0  0  0  0  0  0  0
   10.4826    4.8865   -9.8389 H   0  0  0  0  0  0  0  0  0  0  0  0
   10.1054    3.3550   -9.0932 H   0  0  0  0  0  0  0  0  0  0  0  0
    8.0230    3.9172   -8.4336 H   0  0  0  0  0  0  0  0  0  0  0  0
    7.7192    5.1443   -9.6049 H   0  0  0  0  0  0  0  0  0  0  0  0
    9.7547    5.4162   -7.3374 H   0  0  0  0  0  0  0  0  0  0  0  0
    8.0680    5.7698   -7.1001 H   0  0  0  0  0  0  0  0  0  0  0  0
   10.2836    8.5082   -9.3675 H   0  0  0  0  0  0  0  0  0  0  0  0
   10.8054    6.8712   -9.3550 H   0  0  0  0  0  0  0  0  0  0  0  0
    8.3142    6.7425  -10.7389 H   0  0  0  0  0  0  0  0  0  0  0  0
    8.8243    8.3451  -11.0828 H   0  0  0  0  0  0  0  0  0  0  0  0
    8.6389    5.3371  -12.5350 H   0  0  0  0  0  0  0  0  0  0  0  0
   10.0564    4.4523  -14.3619 H   0  0  0  0  0  0  0  0  0  0  0  0
   12.2913    5.4603  -14.8110 H   0  0  0  0  0  0  0  0  0  0  0  0
   13.1080    7.3339  -13.3965 H   0  0  0  0  0  0  0  0  0  0  0  0
   11.7361    8.1719  -11.5170 H   0  0  0  0  0  0  0  0  0  0  0  0
    8.8153    7.7037   -6.2018 H   0  0  0  0  0  0  0  0  0  0  0  0
    9.1830    9.0635   -7.2147 H   0  0  0  0  0  0  0  0  0  0  0  0
   11.5208    8.5383   -7.3390 H   0  0  0  0  0  0  0  0  0  0  0  0
   11.3016    6.8746   -6.9191 H   0  0  0  0  0  0  0  0  0  0  0  0
   10.9952   10.3314   -5.4183 H   0  0  0  0  0  0  0  0  0  0  0  0
   11.6844   10.7788   -3.0565 H   0  0  0  0  0  0  0  0  0  0  0  0
   12.3922    8.9318   -1.5893 H   0  0  0  0  0  0  0  0  0  0  0  0
   12.2289    5.5257   -2.5723 H   0  0  0  0  0  0  0  0  0  0  0  0
   11.6893    6.1165   -4.7690 H   0  0  0  0  0  0  0  0  0  0  0  0
    8.0954    7.5250   -8.5046 H   0  0  0  0  0  0  0  0  0  0  0  0
  2  1  1  0
  3  2  1  0
  4  3  1  0
  5  4  1  0
  6  5  1  0
  7  6  1  0
  8  7  2  0
  9  8  1  0
 10  9  2  0
 11 10  1  0
 12  7  1  0
 12 11  2  0
 13  4  1  0
 14 13  1  0
 15 14  1  0
 16 15  2  0
 17 16  1  0
 18 17  2  0
 19 18  1  0
 20 19  1  0
 21 15  1  0
 21 19  2  0
 22  1  1  0
 23  1  1  0
 24  1  1  0
 25  2  1  0
 26  2  1  0
 27  3  1  0
 28  3  1  0
 29  5  1  0
 30  5  1  0
 31  6  1  0
 32  6  1  0
 33  8  1  0
 34  9  1  0
 35 10  1  0
 36 11  1  0
 37 12  1  0
 38 13  1  0
 39 13  1  0
 40 14  1  0
 41 14  1  0
 42 16  1  0
 43 17  1  0
 44 18  1  0
 45 20  1  0
 46 21  1  0
  4 47  1  6
M  CHG  1   4   1
M  END
>  <b_m_subgroup_collapsed>  (959) 
0

>  <r_i_docking_score>  (959) 
-7.0595382469827799

>  <s_m_subgroup_title>  (959) 
glide-dock_SP_D22_pv

>  <s_m_subgroupid>  (959) 
glide-dock_SP_D22_pv

>  <Molecule ChEMBL ID>  (959) 
CHEMBL1188090

>  <Standard Type>  (959) 
Ki

>  <Standard Value>  (959) 
64.4

>  <label>  (959) 
1

$$$$
CHEMBL4091155
     RDKit          3D

 52 55  0  0  1  0  0  0  0  0999 V2000
   10.4861    6.5182   -8.6385 O   0  0  0  0  0  0  0  0  0  0  0  0
   10.5429    7.7440   -8.7136 C   0  0  0  0  0  0  0  0  0  0  0  0
   10.3763    8.4268  -10.0785 C   0  0  0  0  0  0  0  0  0  0  0  0
   10.2417    7.4367  -11.2584 C   0  0  0  0  0  0  0  0  0  0  0  0
    8.8665    6.7483  -11.3015 C   0  0  0  0  0  0  0  0  0  0  0  0
    8.7454    5.8024  -12.4074 N   0  0  0  0  0  0  0  0  0  0  0  0
    7.3242    5.4898  -12.5917 C   0  0  0  0  0  0  0  0  0  0  0  0
    7.1937    4.6120  -13.8448 C   0  0  0  0  0  0  0  0  0  0  0  0
    7.9228    3.3711  -13.6631 N   0  0  0  0  0  0  0  0  0  0  0  0
    7.4581    2.1750  -14.2471 C   0  0  0  0  0  0  0  0  0  0  0  0
    8.2511    1.4706  -15.1818 C   0  0  0  0  0  0  0  0  0  0  0  0
    7.7940    0.2596  -15.7400 C   0  0  0  0  0  0  0  0  0  0  0  0
    6.5343   -0.2489  -15.3772 C   0  0  0  0  0  0  0  0  0  0  0  0
    5.7467    0.4195  -14.4258 C   0  0  0  0  0  0  0  0  0  0  0  0
    4.1982   -0.2285  -14.0106 Cl  0  0  0  0  0  0  0  0  0  0  0  0
    6.2116    1.6216  -13.8473 C   0  0  0  0  0  0  0  0  0  0  0  0
    5.2580    2.3876  -12.6284 Cl  0  0  0  0  0  0  0  0  0  0  0  0
    9.3252    3.5626  -13.3217 C   0  0  0  0  0  0  0  0  0  0  0  0
    9.4373    4.5364  -12.1237 C   0  0  0  0  0  0  0  0  0  0  0  0
   10.7427    8.5666   -7.6634 N   0  0  0  0  0  0  0  0  0  0  0  0
   11.0961    8.2472   -6.3183 C   0  0  0  0  0  0  0  0  0  0  0  0
   11.2616    6.9113   -5.8448 C   0  0  0  0  0  0  0  0  0  0  0  0
   11.6841    6.6582   -4.5645 C   0  0  0  0  0  0  0  0  0  0  0  0
   11.9448    7.6937   -3.7391 N   0  0  0  0  0  0  0  0  0  0  0  0
   12.3954    7.5852   -2.4514 N   0  0  0  0  0  0  0  0  0  0  0  0
   12.4788    8.8296   -2.0478 C   0  0  0  0  0  0  0  0  0  0  0  0
   12.0829    9.7725   -3.0222 C   0  0  0  0  0  0  0  0  0  0  0  0
   11.7637    9.0339   -4.1241 C   0  0  0  0  0  0  0  0  0  0  0  0
   11.3251    9.2993   -5.4517 C   0  0  0  0  0  0  0  0  0  0  0  0
    9.5080    9.0869  -10.0444 H   0  0  0  0  0  0  0  0  0  0  0  0
   11.2484    9.0610  -10.2432 H   0  0  0  0  0  0  0  0  0  0  0  0
   10.3900    7.9730  -12.1953 H   0  0  0  0  0  0  0  0  0  0  0  0
   11.0428    6.6994  -11.2115 H   0  0  0  0  0  0  0  0  0  0  0  0
    8.6148    6.2599  -10.3583 H   0  0  0  0  0  0  0  0  0  0  0  0
    8.1372    7.5432  -11.4470 H   0  0  0  0  0  0  0  0  0  0  0  0
    6.9091    4.9926  -11.7123 H   0  0  0  0  0  0  0  0  0  0  0  0
    6.7549    6.4106  -12.7291 H   0  0  0  0  0  0  0  0  0  0  0  0
    6.1526    4.4520  -14.1273 H   0  0  0  0  0  0  0  0  0  0  0  0
    7.6847    5.1487  -14.6478 H   0  0  0  0  0  0  0  0  0  0  0  0
    9.2148    1.8569  -15.4791 H   0  0  0  0  0  0  0  0  0  0  0  0
    8.4032   -0.2732  -16.4561 H   0  0  0  0  0  0  0  0  0  0  0  0
    6.1796   -1.1682  -15.8217 H   0  0  0  0  0  0  0  0  0  0  0  0
    9.7832    2.6067  -13.0642 H   0  0  0  0  0  0  0  0  0  0  0  0
    9.8614    3.9601  -14.1848 H   0  0  0  0  0  0  0  0  0  0  0  0
   10.4860    4.7203  -11.9199 H   0  0  0  0  0  0  0  0  0  0  0  0
    9.0199    4.0777  -11.2249 H   0  0  0  0  0  0  0  0  0  0  0  0
   10.7112    9.5496   -7.8795 H   0  0  0  0  0  0  0  0  0  0  0  0
   11.0820    6.0464   -6.4702 H   0  0  0  0  0  0  0  0  0  0  0  0
   11.8390    5.6683   -4.1633 H   0  0  0  0  0  0  0  0  0  0  0  0
   12.8181    9.0450   -1.0467 H   0  0  0  0  0  0  0  0  0  0  0  0
   12.0512   10.8413   -2.8844 H   0  0  0  0  0  0  0  0  0  0  0  0
   11.2018   10.3300   -5.7660 H   0  0  0  0  0  0  0  0  0  0  0  0
  2  1  2  0
  3  2  1  0
  4  3  1  0
  5  4  1  0
  6  5  1  0
  7  6  1  0
  8  7  1  0
  9  8  1  0
 10  9  1  0
 11 10  2  0
 12 11  1  0
 13 12  2  0
 14 13  1  0
 15 14  1  0
 16 10  1  0
 16 14  2  0
 17 16  1  0
 18  9  1  0
 19  6  1  0
 19 18  1  0
 20  2  1  0
 21 20  1  0
 22 21  1  0
 23 22  2  0
 24 23  1  0
 25 24  1  0
 26 25  2  0
 27 26  1  0
 28 24  1  0
 28 27  2  0
 29 21  2  0
 29 28  1  0
 30  3  1  0
 31  3  1  0
 32  4  1  0
 33  4  1  0
 34  5  1  0
 35  5  1  0
 36  7  1  0
 37  7  1  0
 38  8  1  0
 39  8  1  0
 40 11  1  0
 41 12  1  0
 42 13  1  0
 43 18  1  0
 44 18  1  0
 45 19  1  0
 46 19  1  0
 47 20  1  0
 48 22  1  0
 49 23  1  0
 50 26  1  0
 51 27  1  0
 52 29  1  0
M  END
>  <b_m_subgroup_collapsed>  (960) 
0

>  <r_i_docking_score>  (960) 
-7.05845524475993

>  <s_m_subgroup_title>  (960) 
glide-dock_SP_D22_pv

>  <s_m_subgroupid>  (960) 
glide-dock_SP_D22_pv

>  <Molecule ChEMBL ID>  (960) 
CHEMBL4091155

>  <Standard Type>  (960) 
Ki

>  <Standard Value>  (960) 
7.8

>  <label>  (960) 
1

$$$$
CHEMBL509451
     RDKit          3D

 97104  0  0  1  0  0  0  0  0999 V2000
   11.2842    7.8444   -6.7315 C   0  0  0  0  0  0  0  0  0  0  0  0
    9.8755    7.3476   -7.0886 C   0  0  0  0  0  0  0  0  0  0  0  0
    9.7860    6.6364   -8.4574 C   0  0  0  0  0  0  0  0  0  0  0  0
    9.2817    7.4949   -9.5727 N   0  0  1  0  0  0  0  0  0  0  0  0
   10.0466    8.7281   -9.8195 C   0  0  0  0  0  0  0  0  0  0  0  0
   11.4178    8.3711  -10.3942 C   0  0  0  0  0  0  0  0  0  0  0  0
   11.3804    7.4585  -11.6164 C   0  0  0  0  0  0  0  0  0  0  0  0
   12.4053    7.3724  -12.5691 C   0  0  0  0  0  0  0  0  0  0  0  0
   12.2852    6.4916  -13.6505 C   0  0  0  0  0  0  0  0  0  0  0  0
   11.1655    5.6535  -13.7599 C   0  0  0  0  0  0  0  0  0  0  0  0
   10.0881    5.6846  -12.8416 C   0  0  0  0  0  0  0  0  0  0  0  0
   10.2375    6.6316  -11.7880 C   0  0  0  0  0  0  0  0  0  0  0  0
    9.0196    6.8053  -10.8670 C   0  0  1  0  0  0  0  0  0  0  0  0
    8.1867    5.5314  -10.7042 C   0  0  0  0  0  0  0  0  0  0  0  0
    7.8915    4.8418  -12.0094 C   0  0  0  0  0  0  0  0  0  0  0  0
    6.6718    4.1614  -12.1910 C   0  0  0  0  0  0  0  0  0  0  0  0
    6.4836    3.3457  -13.3164 C   0  0  0  0  0  0  0  0  0  0  0  0
    7.5147    3.2078  -14.2617 C   0  0  0  0  0  0  0  0  0  0  0  0
    7.2998    2.3859  -15.3476 O   0  0  0  0  0  0  0  0  0  0  0  0
    8.2763    1.6106  -15.8817 C   0  0  0  0  0  0  0  0  0  0  0  0
    9.3513    1.3223  -15.3511 O   0  0  0  0  0  0  0  0  0  0  0  0
    7.8993    1.1395  -17.2914 C   0  0  0  0  0  0  0  0  0  0  0  0
    9.0064    0.3843  -18.0602 C   0  0  0  0  0  0  0  0  0  0  0  0
   10.2749    1.1918  -18.4223 C   0  0  0  0  0  0  0  0  0  0  0  0
   10.0509    2.3183  -19.4374 C   0  0  0  0  0  0  0  0  0  0  0  0
   10.3315    2.1720  -20.6254 O   0  0  0  0  0  0  0  0  0  0  0  0
    9.5849    3.4447  -18.8640 O   0  0  0  0  0  0  0  0  0  0  0  0
    9.5548    4.6295  -19.5610 C   0  0  0  0  0  0  0  0  0  0  0  0
    8.4860    4.8337  -20.4617 C   0  0  0  0  0  0  0  0  0  0  0  0
    8.3328    6.0542  -21.1372 C   0  0  0  0  0  0  0  0  0  0  0  0
    9.2648    7.0785  -20.9312 C   0  0  0  0  0  0  0  0  0  0  0  0
   10.3511    6.8787  -20.0554 C   0  0  0  0  0  0  0  0  0  0  0  0
   10.5155    5.6644  -19.3401 C   0  0  0  0  0  0  0  0  0  0  0  0
   11.6973    5.5548  -18.4358 C   0  0  0  0  0  0  0  0  0  0  0  0
   11.7813    4.6438  -17.3484 C   0  0  0  0  0  0  0  0  0  0  0  0
   12.9102    4.5337  -16.5187 C   0  0  0  0  0  0  0  0  0  0  0  0
   13.9880    5.4104  -16.6811 C   0  0  0  0  0  0  0  0  0  0  0  0
   13.9501    6.3725  -17.6964 C   0  0  0  0  0  0  0  0  0  0  0  0
   12.8355    6.4004  -18.5778 C   0  0  0  0  0  0  0  0  0  0  0  0
   12.8032    7.3608  -19.7926 C   0  0  1  0  0  0  0  0  0  0  0  0
   11.3928    7.9713  -19.9276 C   0  0  0  0  0  0  0  0  0  0  0  0
   13.8759    8.4019  -19.8443 N   0  0  2  0  0  0  0  0  0  0  0  0
   14.0679    8.9991  -21.1972 C   0  0  0  0  0  0  0  0  0  0  0  0
   14.5542   10.4610  -21.1522 C   0  0  0  0  0  0  0  0  0  0  0  0
   16.0754   10.6643  -21.2854 C   0  0  0  0  0  0  0  0  0  0  0  0
   15.1547    7.8839  -19.3231 C   0  0  0  0  0  0  0  0  0  0  0  0
   14.9868    7.4549  -17.8837 C   0  0  0  0  0  0  0  0  0  0  0  0
    8.6829    3.9946  -14.1277 C   0  0  0  0  0  0  0  0  0  0  0  0
    8.8858    4.8318  -13.0054 C   0  0  0  0  0  0  0  0  0  0  0  0
   11.3189    8.1942   -5.7008 H   0  0  0  0  0  0  0  0  0  0  0  0
   11.6094    8.6685   -7.3645 H   0  0  0  0  0  0  0  0  0  0  0  0
   12.0124    7.0373   -6.8325 H   0  0  0  0  0  0  0  0  0  0  0  0
    9.5902    6.6246   -6.3222 H   0  0  0  0  0  0  0  0  0  0  0  0
    9.1394    8.1505   -7.0134 H   0  0  0  0  0  0  0  0  0  0  0  0
   10.7287    6.1569   -8.7235 H   0  0  0  0  0  0  0  0  0  0  0  0
    9.0735    5.8292   -8.2993 H   0  0  0  0  0  0  0  0  0  0  0  0
    9.4892    9.3384  -10.5305 H   0  0  0  0  0  0  0  0  0  0  0  0
   10.1330    9.3401   -8.9228 H   0  0  0  0  0  0  0  0  0  0  0  0
   11.9475    9.2894  -10.6493 H   0  0  0  0  0  0  0  0  0  0  0  0
   12.0363    7.8873   -9.6369 H   0  0  0  0  0  0  0  0  0  0  0  0
   13.2847    7.9925  -12.4763 H   0  0  0  0  0  0  0  0  0  0  0  0
   13.0794    6.4374  -14.3786 H   0  0  0  0  0  0  0  0  0  0  0  0
   11.1494    4.9719  -14.5916 H   0  0  0  0  0  0  0  0  0  0  0  0
    8.3896    7.4923  -11.4371 H   0  0  0  0  0  0  0  0  0  0  0  0
    8.7245    4.7834  -10.1238 H   0  0  0  0  0  0  0  0  0  0  0  0
    7.2856    5.7722  -10.1598 H   0  0  0  0  0  0  0  0  0  0  0  0
    5.8947    4.2154  -11.4470 H   0  0  0  0  0  0  0  0  0  0  0  0
    5.5622    2.7929  -13.4322 H   0  0  0  0  0  0  0  0  0  0  0  0
    7.0309    0.4887  -17.1913 H   0  0  0  0  0  0  0  0  0  0  0  0
    7.5688    2.0030  -17.8669 H   0  0  0  0  0  0  0  0  0  0  0  0
    9.3056   -0.4882  -17.4796 H   0  0  0  0  0  0  0  0  0  0  0  0
    8.5752   -0.0170  -18.9771 H   0  0  0  0  0  0  0  0  0  0  0  0
   10.7263    1.6125  -17.5247 H   0  0  0  0  0  0  0  0  0  0  0  0
   11.0183    0.5158  -18.8429 H   0  0  0  0  0  0  0  0  0  0  0  0
    7.7628    4.0502  -20.6326 H   0  0  0  0  0  0  0  0  0  0  0  0
    7.5034    6.2010  -21.8120 H   0  0  0  0  0  0  0  0  0  0  0  0
    9.1526    8.0130  -21.4634 H   0  0  0  0  0  0  0  0  0  0  0  0
   10.9612    3.9940  -17.0985 H   0  0  0  0  0  0  0  0  0  0  0  0
   12.9265    3.8034  -15.7240 H   0  0  0  0  0  0  0  0  0  0  0  0
   14.8270    5.3716  -16.0022 H   0  0  0  0  0  0  0  0  0  0  0  0
   12.9755    6.7144  -20.6574 H   0  0  0  0  0  0  0  0  0  0  0  0
   11.3038    8.6398  -20.7804 H   0  0  0  0  0  0  0  0  0  0  0  0
   11.1600    8.5686  -19.0466 H   0  0  0  0  0  0  0  0  0  0  0  0
   14.7290    8.3834  -21.8097 H   0  0  0  0  0  0  0  0  0  0  0  0
   13.1270    9.0078  -21.7442 H   0  0  0  0  0  0  0  0  0  0  0  0
   14.1030   10.9711  -22.0057 H   0  0  0  0  0  0  0  0  0  0  0  0
   14.1740   10.9724  -20.2632 H   0  0  0  0  0  0  0  0  0  0  0  0
   16.3008   11.7161  -21.4648 H   0  0  0  0  0  0  0  0  0  0  0  0
   16.4779   10.1053  -22.1286 H   0  0  0  0  0  0  0  0  0  0  0  0
   16.6217   10.3769  -20.3929 H   0  0  0  0  0  0  0  0  0  0  0  0
   15.5020    7.0457  -19.9328 H   0  0  0  0  0  0  0  0  0  0  0  0
   15.9280    8.6453  -19.3591 H   0  0  0  0  0  0  0  0  0  0  0  0
   14.7026    8.3105  -17.2702 H   0  0  0  0  0  0  0  0  0  0  0  0
   15.9417    7.0946  -17.4940 H   0  0  0  0  0  0  0  0  0  0  0  0
    9.4185    3.9382  -14.9122 H   0  0  0  0  0  0  0  0  0  0  0  0
    8.3512    7.7875   -9.2865 H   0  0  0  0  0  0  0  0  0  0  0  0
   13.5736    9.1418  -19.2254 H   0  0  0  0  0  0  0  0  0  0  0  0
  2  1  1  0
  3  2  1  0
  4  3  1  0
  5  4  1  0
  6  5  1  0
  7  6  1  0
  8  7  2  0
  9  8  1  0
 10  9  2  0
 11 10  1  0
 12  7  1  0
 12 11  2  0
 13  4  1  0
 13 12  1  0
 14 13  1  0
 15 14  1  0
 16 15  2  0
 17 16  1  0
 18 17  2  0
 19 18  1  0
 20 19  1  0
 21 20  2  0
 22 20  1  0
 23 22  1  0
 24 23  1  0
 25 24  1  0
 26 25  2  0
 27 25  1  0
 28 27  1  0
 29 28  1  0
 30 29  2  0
 31 30  1  0
 32 31  2  0
 33 28  2  0
 33 32  1  0
 34 33  1  0
 35 34  1  0
 36 35  2  0
 37 36  1  0
 38 37  2  0
 39 34  2  0
 39 38  1  0
 40 39  1  0
 41 32  1  0
 41 40  1  0
 42 40  1  0
 43 42  1  0
 44 43  1  0
 45 44  1  0
 46 42  1  0
 47 38  1  0
 47 46  1  0
 48 18  1  0
 49 11  1  0
 49 15  1  0
 49 48  2  0
 50  1  1  0
 51  1  1  0
 52  1  1  0
 53  2  1  0
 54  2  1  0
 55  3  1  0
 56  3  1  0
 57  5  1  0
 58  5  1  0
 59  6  1  0
 60  6  1  0
 61  8  1  0
 62  9  1  0
 63 10  1  0
 13 64  1  6
 65 14  1  0
 66 14  1  0
 67 16  1  0
 68 17  1  0
 69 22  1  0
 70 22  1  0
 71 23  1  0
 72 23  1  0
 73 24  1  0
 74 24  1  0
 75 29  1  0
 76 30  1  0
 77 31  1  0
 78 35  1  0
 79 36  1  0
 80 37  1  0
 40 81  1  6
 82 41  1  0
 83 41  1  0
 84 43  1  0
 85 43  1  0
 86 44  1  0
 87 44  1  0
 88 45  1  0
 89 45  1  0
 90 45  1  0
 91 46  1  0
 92 46  1  0
 93 47  1  0
 94 47  1  0
 95 48  1  0
  4 96  1  1
 42 97  1  1
M  CHG  2   4   1  42   1
M  END
>  <b_m_subgroup_collapsed>  (961) 
0

>  <r_i_docking_score>  (961) 
-7.0582655090297699

>  <s_m_subgroup_title>  (961) 
glide-dock_SP_D22_pv

>  <s_m_subgroupid>  (961) 
glide-dock_SP_D22_pv

>  <Molecule ChEMBL ID>  (961) 
CHEMBL509451

>  <Standard Type>  (961) 
Ki

>  <Standard Value>  (961) 
10000.0

>  <label>  (961) 
0

$$$$
CHEMBL88464
     RDKit          3D

 43 46  0  0  1  0  0  0  0  0999 V2000
    9.1643    7.1776   -7.0045 C   0  0  0  0  0  0  0  0  0  0  0  0
    8.8862    6.9884   -8.4434 N   0  0  0  0  0  0  0  0  0  0  0  0
    8.8522    5.5640   -8.8372 C   0  0  0  0  0  0  0  0  0  0  0  0
    8.4161    5.4371  -10.3006 C   0  0  0  0  0  0  0  0  0  0  0  0
    9.2661    6.2146  -11.2107 N   0  0  0  0  0  0  0  0  0  0  0  0
    9.7259    5.7275  -12.4443 C   0  0  0  0  0  0  0  0  0  0  0  0
   10.8865    6.1712  -12.9827 C   0  0  0  0  0  0  0  0  0  0  0  0
   11.5520    5.6941  -14.2027 C   0  0  0  0  0  0  0  0  0  0  0  0
   12.2616    6.6202  -14.9960 C   0  0  0  0  0  0  0  0  0  0  0  0
   12.8820    6.2103  -16.1902 C   0  0  0  0  0  0  0  0  0  0  0  0
   13.7298    7.3610  -17.1551 Cl  0  0  0  0  0  0  0  0  0  0  0  0
   12.8018    4.8654  -16.5988 C   0  0  0  0  0  0  0  0  0  0  0  0
   12.0982    3.9343  -15.8111 C   0  0  0  0  0  0  0  0  0  0  0  0
   11.4736    4.3458  -14.6175 C   0  0  0  0  0  0  0  0  0  0  0  0
   10.8298    3.4181  -13.8477 O   0  0  0  0  0  0  0  0  0  0  0  0
    9.4741    3.5574  -13.7509 C   0  0  0  0  0  0  0  0  0  0  0  0
    8.6614    2.5534  -14.3152 C   0  0  0  0  0  0  0  0  0  0  0  0
    7.2598    2.6502  -14.2488 C   0  0  0  0  0  0  0  0  0  0  0  0
    6.6686    3.7710  -13.6420 C   0  0  0  0  0  0  0  0  0  0  0  0
    7.4804    4.7786  -13.0877 C   0  0  0  0  0  0  0  0  0  0  0  0
    8.8940    4.6712  -13.0921 C   0  0  0  0  0  0  0  0  0  0  0  0
    9.4146    7.6162  -10.8017 C   0  0  0  0  0  0  0  0  0  0  0  0
    9.7978    7.7657   -9.3174 C   0  0  0  0  0  0  0  0  0  0  0  0
   10.1733    6.8481   -6.7503 H   0  0  0  0  0  0  0  0  0  0  0  0
    9.0609    8.2275   -6.7276 H   0  0  0  0  0  0  0  0  0  0  0  0
    8.4599    6.6060   -6.4009 H   0  0  0  0  0  0  0  0  0  0  0  0
    8.1498    5.0213   -8.2034 H   0  0  0  0  0  0  0  0  0  0  0  0
    9.8343    5.1103   -8.6930 H   0  0  0  0  0  0  0  0  0  0  0  0
    7.3840    5.7725  -10.4066 H   0  0  0  0  0  0  0  0  0  0  0  0
    8.4296    4.3806  -10.5670 H   0  0  0  0  0  0  0  0  0  0  0  0
   11.4623    6.9075  -12.4441 H   0  0  0  0  0  0  0  0  0  0  0  0
   12.3229    7.6561  -14.6956 H   0  0  0  0  0  0  0  0  0  0  0  0
   13.2801    4.5465  -17.5128 H   0  0  0  0  0  0  0  0  0  0  0  0
   12.0449    2.9000  -16.1179 H   0  0  0  0  0  0  0  0  0  0  0  0
    9.1193    1.7010  -14.7959 H   0  0  0  0  0  0  0  0  0  0  0  0
    6.6408    1.8757  -14.6777 H   0  0  0  0  0  0  0  0  0  0  0  0
    5.5927    3.8640  -13.6085 H   0  0  0  0  0  0  0  0  0  0  0  0
    7.0038    5.6383  -12.6393 H   0  0  0  0  0  0  0  0  0  0  0  0
   10.1497    8.1409  -11.4088 H   0  0  0  0  0  0  0  0  0  0  0  0
    8.4840    8.1373  -10.9984 H   0  0  0  0  0  0  0  0  0  0  0  0
    9.7677    8.8199   -9.0381 H   0  0  0  0  0  0  0  0  0  0  0  0
   10.8232    7.4246   -9.1664 H   0  0  0  0  0  0  0  0  0  0  0  0
    7.9414    7.3357   -8.6026 H   0  0  0  0  0  0  0  0  0  0  0  0
  2  1  1  0
  3  2  1  0
  4  3  1  0
  5  4  1  0
  6  5  1  0
  7  6  2  0
  8  7  1  0
  9  8  1  0
 10  9  2  0
 11 10  1  0
 12 10  1  0
 13 12  2  0
 14  8  2  0
 14 13  1  0
 15 14  1  0
 16 15  1  0
 17 16  2  0
 18 17  1  0
 19 18  2  0
 20 19  1  0
 21  6  1  0
 21 16  1  0
 21 20  2  0
 22  5  1  0
 23  2  1  0
 23 22  1  0
 24  1  1  0
 25  1  1  0
 26  1  1  0
 27  3  1  0
 28  3  1  0
 29  4  1  0
 30  4  1  0
 31  7  1  0
 32  9  1  0
 33 12  1  0
 34 13  1  0
 35 17  1  0
 36 18  1  0
 37 19  1  0
 38 20  1  0
 39 22  1  0
 40 22  1  0
 41 23  1  0
 42 23  1  0
 43  2  1  0
M  CHG  1   2   1
M  END
>  <b_m_subgroup_collapsed>  (962) 
0

>  <r_i_docking_score>  (962) 
-7.0575989905187297

>  <s_m_subgroup_title>  (962) 
glide-dock_SP_D22_pv

>  <s_m_subgroupid>  (962) 
glide-dock_SP_D22_pv

>  <Molecule ChEMBL ID>  (962) 
CHEMBL88464

>  <Standard Type>  (962) 
Ki

>  <Standard Value>  (962) 
8.7

>  <label>  (962) 
1

$$$$
CHEMBL544115
     RDKit          3D

 44 46  0  0  1  0  0  0  0  0999 V2000
   10.5573    7.3700  -10.2555 C   0  0  0  0  0  0  0  0  0  0  0  0
    9.2788    7.1591  -10.6121 C   0  0  0  0  0  0  0  0  0  0  0  0
    8.5725    5.8142  -10.5864 C   0  0  0  0  0  0  0  0  0  0  0  0
    8.1273    5.4229  -11.9517 N   0  0  2  0  0  0  0  0  0  0  0  0
    6.8890    4.6007  -11.8849 C   0  0  0  0  0  0  0  0  0  0  0  0
    6.2943    4.1426  -13.2200 C   0  0  0  0  0  0  0  0  0  0  0  0
    7.0439    2.9738  -13.8466 C   0  0  0  0  0  0  0  0  0  0  0  0
    8.3460    3.1776  -14.3577 C   0  0  0  0  0  0  0  0  0  0  0  0
    9.0372    2.0784  -14.9298 C   0  0  0  0  0  0  0  0  0  0  0  0
    8.4516    0.8016  -14.9902 C   0  0  0  0  0  0  0  0  0  0  0  0
    9.1664   -0.2272  -15.5420 O   0  0  0  0  0  0  0  0  0  0  0  0
    7.1645    0.6001  -14.4582 C   0  0  0  0  0  0  0  0  0  0  0  0
    6.5723   -0.6278  -14.5098 O   0  0  0  0  0  0  0  0  0  0  0  0
    6.4789    1.6728  -13.8524 C   0  0  0  0  0  0  0  0  0  0  0  0
    4.9715    1.3464  -13.0596 Cl  0  0  0  0  0  0  0  0  0  0  0  0
    9.0133    4.5540  -14.2308 C   0  0  2  0  0  0  0  0  0  0  0  0
   10.2649    4.6790  -15.1061 C   0  0  0  0  0  0  0  0  0  0  0  0
   10.1111    4.9723  -16.4788 C   0  0  0  0  0  0  0  0  0  0  0  0
   11.2365    5.1272  -17.3097 C   0  0  0  0  0  0  0  0  0  0  0  0
   12.5300    4.9852  -16.7758 C   0  0  0  0  0  0  0  0  0  0  0  0
   12.6947    4.6772  -15.4126 C   0  0  0  0  0  0  0  0  0  0  0  0
   11.5700    4.5123  -14.5824 C   0  0  0  0  0  0  0  0  0  0  0  0
    9.2843    4.9140  -12.7475 C   0  0  0  0  0  0  0  0  0  0  0  0
   11.1928    6.5706   -9.9101 H   0  0  0  0  0  0  0  0  0  0  0  0
   10.9859    8.3594  -10.3057 H   0  0  0  0  0  0  0  0  0  0  0  0
    8.6864    8.0022  -10.9448 H   0  0  0  0  0  0  0  0  0  0  0  0
    9.2137    5.0445  -10.1527 H   0  0  0  0  0  0  0  0  0  0  0  0
    7.7197    5.9162   -9.9131 H   0  0  0  0  0  0  0  0  0  0  0  0
    7.0171    3.7638  -11.2002 H   0  0  0  0  0  0  0  0  0  0  0  0
    6.1310    5.2487  -11.4468 H   0  0  0  0  0  0  0  0  0  0  0  0
    5.2484    3.8914  -13.0616 H   0  0  0  0  0  0  0  0  0  0  0  0
    6.2469    4.9718  -13.9171 H   0  0  0  0  0  0  0  0  0  0  0  0
   10.0386    2.1844  -15.3198 H   0  0  0  0  0  0  0  0  0  0  0  0
    8.7663   -1.0863  -15.4532 H   0  0  0  0  0  0  0  0  0  0  0  0
    7.0090   -1.2816  -15.0428 H   0  0  0  0  0  0  0  0  0  0  0  0
    8.3304    5.3010  -14.6352 H   0  0  0  0  0  0  0  0  0  0  0  0
    9.1245    5.0908  -16.9059 H   0  0  0  0  0  0  0  0  0  0  0  0
   11.1080    5.3613  -18.3572 H   0  0  0  0  0  0  0  0  0  0  0  0
   13.3961    5.1103  -17.4085 H   0  0  0  0  0  0  0  0  0  0  0  0
   13.6855    4.5672  -15.0010 H   0  0  0  0  0  0  0  0  0  0  0  0
   11.7299    4.2685  -13.5427 H   0  0  0  0  0  0  0  0  0  0  0  0
   10.0115    5.7247  -12.7381 H   0  0  0  0  0  0  0  0  0  0  0  0
    9.7535    4.0678  -12.2406 H   0  0  0  0  0  0  0  0  0  0  0  0
    7.8328    6.2851  -12.3884 H   0  0  0  0  0  0  0  0  0  0  0  0
  2  1  2  0
  3  2  1  0
  4  3  1  0
  5  4  1  0
  6  5  1  0
  7  6  1  0
  8  7  2  0
  9  8  1  0
 10  9  2  0
 11 10  1  0
 12 10  1  0
 13 12  1  0
 14  7  1  0
 14 12  2  0
 15 14  1  0
 16  8  1  0
 17 16  1  0
 18 17  2  0
 19 18  1  0
 20 19  2  0
 21 20  1  0
 22 17  1  0
 22 21  2  0
 23  4  1  0
 23 16  1  0
 24  1  1  0
 25  1  1  0
 26  2  1  0
 27  3  1  0
 28  3  1  0
 29  5  1  0
 30  5  1  0
 31  6  1  0
 32  6  1  0
 33  9  1  0
 34 11  1  0
 35 13  1  0
 16 36  1  6
 37 18  1  0
 38 19  1  0
 39 20  1  0
 40 21  1  0
 41 22  1  0
 42 23  1  0
 43 23  1  0
  4 44  1  6
M  CHG  1   4   1
M  END
>  <b_m_subgroup_collapsed>  (963) 
0

>  <r_i_docking_score>  (963) 
-7.0563753415240704

>  <s_m_subgroup_title>  (963) 
glide-dock_SP_D22_pv

>  <s_m_subgroupid>  (963) 
glide-dock_SP_D22_pv

>  <Molecule ChEMBL ID>  (963) 
CHEMBL544115

>  <Standard Type>  (963) 
Ki

>  <Standard Value>  (963) 
55.0

>  <label>  (963) 
1

$$$$
CHEMBL4456754
     RDKit          3D

 40 42  0  0  1  0  0  0  0  0999 V2000
   10.0868    5.9655  -12.4003 O   0  0  0  0  0  0  0  0  0  0  0  0
    9.1697    6.5681  -11.8465 C   0  0  0  0  0  0  0  0  0  0  0  0
    9.4827    7.8587  -11.0879 C   0  0  0  0  0  0  0  0  0  0  0  0
   10.2348    7.6535   -9.8297 N   0  0  0  0  0  0  0  0  0  0  0  0
    9.4454    6.9295   -8.8170 C   0  0  0  0  0  0  0  0  0  0  0  0
   10.2553    6.7584   -7.5125 C   0  0  0  0  0  0  0  0  0  0  0  0
   10.7029    8.0600   -7.0264 N   0  0  0  0  0  0  0  0  0  0  0  0
   11.1528    8.1919   -5.7023 C   0  0  0  0  0  0  0  0  0  0  0  0
   11.2553    9.4822   -5.1346 C   0  0  0  0  0  0  0  0  0  0  0  0
   11.6861    9.6070   -3.8047 C   0  0  0  0  0  0  0  0  0  0  0  0
   12.0163    8.4475   -3.0907 C   0  0  0  0  0  0  0  0  0  0  0  0
   12.4935    8.5723   -1.4470 Cl  0  0  0  0  0  0  0  0  0  0  0  0
   11.8982    7.2014   -3.7348 C   0  0  0  0  0  0  0  0  0  0  0  0
   11.4621    7.0717   -5.0063 N   0  0  0  0  0  0  0  0  0  0  0  0
   11.4599    8.7944   -8.0294 C   0  0  0  0  0  0  0  0  0  0  0  0
   10.6201    8.9646   -9.3021 C   0  0  0  0  0  0  0  0  0  0  0  0
    7.8861    6.1719  -11.8480 N   0  0  0  0  0  0  0  0  0  0  0  0
    7.3147    5.0441  -12.5044 C   0  0  0  0  0  0  0  0  0  0  0  0
    5.9705    4.7188  -12.2471 C   0  0  0  0  0  0  0  0  0  0  0  0
    5.3635    3.6586  -12.8168 N   0  0  0  0  0  0  0  0  0  0  0  0
    6.1017    2.9260  -13.6461 C   0  0  0  0  0  0  0  0  0  0  0  0
    7.3670    3.1446  -13.9934 N   0  0  0  0  0  0  0  0  0  0  0  0
    7.9824    4.1990  -13.4232 C   0  0  0  0  0  0  0  0  0  0  0  0
   10.0712    8.4793  -11.7647 H   0  0  0  0  0  0  0  0  0  0  0  0
    8.5612    8.4125  -10.8940 H   0  0  0  0  0  0  0  0  0  0  0  0
    8.5146    7.4623   -8.6099 H   0  0  0  0  0  0  0  0  0  0  0  0
    9.1639    5.9410   -9.1808 H   0  0  0  0  0  0  0  0  0  0  0  0
    9.6335    6.2712   -6.7596 H   0  0  0  0  0  0  0  0  0  0  0  0
   11.1228    6.1171   -7.6810 H   0  0  0  0  0  0  0  0  0  0  0  0
   10.9758   10.3644   -5.6911 H   0  0  0  0  0  0  0  0  0  0  0  0
   11.7306   10.5724   -3.3248 H   0  0  0  0  0  0  0  0  0  0  0  0
   12.1310    6.2858   -3.2111 H   0  0  0  0  0  0  0  0  0  0  0  0
   11.7491    9.7725   -7.6581 H   0  0  0  0  0  0  0  0  0  0  0  0
   12.3824    8.2564   -8.2523 H   0  0  0  0  0  0  0  0  0  0  0  0
   11.2139    9.5043  -10.0414 H   0  0  0  0  0  0  0  0  0  0  0  0
    9.7334    9.5665   -9.0953 H   0  0  0  0  0  0  0  0  0  0  0  0
    7.2544    6.7426  -11.2797 H   0  0  0  0  0  0  0  0  0  0  0  0
    5.3746    5.3111  -11.5680 H   0  0  0  0  0  0  0  0  0  0  0  0
    5.6264    2.0642  -14.0889 H   0  0  0  0  0  0  0  0  0  0  0  0
    9.0040    4.3424  -13.7346 H   0  0  0  0  0  0  0  0  0  0  0  0
  2  1  2  0
  3  2  1  0
  4  3  1  0
  5  4  1  0
  6  5  1  0
  7  6  1  0
  8  7  1  0
  9  8  2  0
 10  9  1  0
 11 10  2  0
 12 11  1  0
 13 11  1  0
 14  8  1  0
 14 13  2  0
 15  7  1  0
 16  4  1  0
 16 15  1  0
 17  2  1  0
 18 17  1  0
 19 18  2  0
 20 19  1  0
 21 20  2  0
 22 21  1  0
 23 18  1  0
 23 22  2  0
 24  3  1  0
 25  3  1  0
 26  5  1  0
 27  5  1  0
 28  6  1  0
 29  6  1  0
 30  9  1  0
 31 10  1  0
 32 13  1  0
 33 15  1  0
 34 15  1  0
 35 16  1  0
 36 16  1  0
 37 17  1  0
 38 19  1  0
 39 21  1  0
 40 23  1  0
M  END
>  <b_m_subgroup_collapsed>  (964) 
0

>  <r_i_docking_score>  (964) 
-7.0558277926226403

>  <s_m_subgroup_title>  (964) 
glide-dock_SP_D22_pv

>  <s_m_subgroupid>  (964) 
glide-dock_SP_D22_pv

>  <Molecule ChEMBL ID>  (964) 
CHEMBL4456754

>  <Standard Type>  (964) 
Ki

>  <Standard Value>  (964) 
50000.0

>  <label>  (964) 
0

$$$$
CHEMBL4092928
     RDKit          3D

 40 41  0  0  1  0  0  0  0  0999 V2000
    8.5369    4.0036  -12.8656 C   0  0  0  0  0  0  0  0  0  0  0  0
    8.5436    5.5049  -13.1555 C   0  0  0  0  0  0  0  0  0  0  0  0
    8.4546    6.3542  -11.8766 C   0  0  2  0  0  0  0  0  0  0  0  0
    8.0860    7.6648  -12.2469 O   0  0  0  0  0  0  0  0  0  0  0  0
    9.7862    6.4047  -11.1004 C   0  0  0  0  0  0  0  0  0  0  0  0
    9.7308    7.3102   -9.9255 N   0  0  0  0  0  0  0  0  0  0  0  0
    9.0273    6.7339   -8.7522 C   0  0  0  0  0  0  0  0  0  0  0  0
    8.8841    7.7824   -7.6285 C   0  0  0  0  0  0  0  0  0  0  0  0
   10.1509    8.4404   -7.3222 N   0  0  0  0  0  0  0  0  0  0  0  0
   10.8166    8.0747   -6.1398 C   0  0  0  0  0  0  0  0  0  0  0  0
   11.0880    6.7260   -5.8679 C   0  0  0  0  0  0  0  0  0  0  0  0
   11.6860    6.3770   -4.6490 C   0  0  0  0  0  0  0  0  0  0  0  0
   12.0240    7.3145   -3.6786 C   0  0  0  0  0  0  0  0  0  0  0  0
   11.7548    8.6525   -3.9381 C   0  0  0  0  0  0  0  0  0  0  0  0
   12.0860    9.7723   -2.6904 Cl  0  0  0  0  0  0  0  0  0  0  0  0
   11.1856    9.0364   -5.1692 C   0  0  0  0  0  0  0  0  0  0  0  0
   10.8860   10.6873   -5.4469 Cl  0  0  0  0  0  0  0  0  0  0  0  0
   10.9558    8.9013   -8.4462 C   0  0  0  0  0  0  0  0  0  0  0  0
   11.0700    7.8290   -9.5421 C   0  0  0  0  0  0  0  0  0  0  0  0
    8.5350    3.4249  -13.7895 H   0  0  0  0  0  0  0  0  0  0  0  0
    9.4030    3.6934  -12.2806 H   0  0  0  0  0  0  0  0  0  0  0  0
    7.6370    3.7487  -12.3067 H   0  0  0  0  0  0  0  0  0  0  0  0
    7.6860    5.7198  -13.7916 H   0  0  0  0  0  0  0  0  0  0  0  0
    9.4262    5.7722  -13.7374 H   0  0  0  0  0  0  0  0  0  0  0  0
    7.6567    5.9593  -11.2466 H   0  0  0  0  0  0  0  0  0  0  0  0
    7.3727    7.9135  -11.6536 H   0  0  0  0  0  0  0  0  0  0  0  0
   10.0859    5.4072  -10.7772 H   0  0  0  0  0  0  0  0  0  0  0  0
   10.5611    6.7508  -11.7863 H   0  0  0  0  0  0  0  0  0  0  0  0
    8.0461    6.3676   -9.0413 H   0  0  0  0  0  0  0  0  0  0  0  0
    9.5768    5.8632   -8.3953 H   0  0  0  0  0  0  0  0  0  0  0  0
    8.1764    8.5557   -7.9290 H   0  0  0  0  0  0  0  0  0  0  0  0
    8.4588    7.3219   -6.7351 H   0  0  0  0  0  0  0  0  0  0  0  0
   10.8485    5.9527   -6.5799 H   0  0  0  0  0  0  0  0  0  0  0  0
   11.9445    5.3723   -4.4379 H   0  0  0  0  0  0  0  0  0  0  0  0
   12.4724    7.0067   -2.7451 H   0  0  0  0  0  0  0  0  0  0  0  0
   10.4672    9.7723   -8.8733 H   0  0  0  0  0  0  0  0  0  0  0  0
   11.9453    9.2175   -8.1129 H   0  0  0  0  0  0  0  0  0  0  0  0
   11.6861    7.0004   -9.1931 H   0  0  0  0  0  0  0  0  0  0  0  0
   11.5733    8.2606  -10.4085 H   0  0  0  0  0  0  0  0  0  0  0  0
    9.1769    8.1016  -10.2270 H   0  0  0  0  0  0  0  0  0  0  0  0
  2  1  1  0
  3  2  1  0
  4  3  1  0
  5  3  1  0
  6  5  1  0
  7  6  1  0
  8  7  1  0
  9  8  1  0
 10  9  1  0
 11 10  2  0
 12 11  1  0
 13 12  2  0
 14 13  1  0
 15 14  1  0
 16 10  1  0
 16 14  2  0
 17 16  1  0
 18  9  1  0
 19  6  1  0
 19 18  1  0
 20  1  1  0
 21  1  1  0
 22  1  1  0
 23  2  1  0
 24  2  1  0
  3 25  1  1
 26  4  1  0
 27  5  1  0
 28  5  1  0
 29  7  1  0
 30  7  1  0
 31  8  1  0
 32  8  1  0
 33 11  1  0
 34 12  1  0
 35 13  1  0
 36 18  1  0
 37 18  1  0
 38 19  1  0
 39 19  1  0
 40  6  1  0
M  CHG  1   6   1
M  END
>  <b_m_subgroup_collapsed>  (965) 
0

>  <r_i_docking_score>  (965) 
-7.05557162575208

>  <s_m_subgroup_title>  (965) 
glide-dock_SP_D22_pv

>  <s_m_subgroupid>  (965) 
glide-dock_SP_D22_pv

>  <Molecule ChEMBL ID>  (965) 
CHEMBL4092928

>  <Standard Type>  (965) 
Ki

>  <Standard Value>  (965) 
93.1

>  <label>  (965) 
1

$$$$
CHEMBL4083903
     RDKit          3D

 59 63  0  0  1  0  0  0  0  0999 V2000
    8.9725    6.3918   -6.6468 O   0  0  0  0  0  0  0  0  0  0  0  0
    9.8650    6.9613   -7.2616 C   0  0  0  0  0  0  0  0  0  0  0  0
   10.0901    6.7572   -8.5667 N   0  0  0  0  0  0  0  0  0  0  0  0
    9.2231    5.9453   -9.4091 C   0  0  0  0  0  0  0  0  0  0  0  0
    9.5078    6.0767  -10.8900 C   0  0  2  0  0  0  0  0  0  0  0  0
    9.0438    7.2763  -11.6688 C   0  0  0  0  0  0  0  0  0  0  0  0
    8.3991    5.9242  -11.9097 C   0  0  1  0  0  0  0  0  0  0  0  0
    8.6485    5.2067  -13.2240 C   0  0  0  0  0  0  0  0  0  0  0  0
    8.1434    3.8085  -13.2456 N   0  0  0  0  0  0  0  0  0  0  0  0
    6.6551    3.7328  -13.3850 C   0  0  0  0  0  0  0  0  0  0  0  0
    6.1234    2.2939  -13.5741 C   0  0  0  0  0  0  0  0  0  0  0  0
    6.9079    1.6010  -14.5878 N   0  0  0  0  0  0  0  0  0  0  0  0
    6.3325    0.5653  -15.3456 C   0  0  0  0  0  0  0  0  0  0  0  0
    5.4512   -0.3593  -14.7365 C   0  0  0  0  0  0  0  0  0  0  0  0
    4.8279   -1.3642  -15.5019 C   0  0  0  0  0  0  0  0  0  0  0  0
    5.0806   -1.4598  -16.8805 C   0  0  0  0  0  0  0  0  0  0  0  0
    5.9515   -0.5456  -17.5015 C   0  0  0  0  0  0  0  0  0  0  0  0
    6.2207   -0.6707  -19.2034 Cl  0  0  0  0  0  0  0  0  0  0  0  0
    6.5771    0.4690  -16.7411 C   0  0  0  0  0  0  0  0  0  0  0  0
    7.5925    1.6241  -17.5427 Cl  0  0  0  0  0  0  0  0  0  0  0  0
    8.3435    1.5611  -14.3697 C   0  0  0  0  0  0  0  0  0  0  0  0
    8.8798    2.9964  -14.2553 C   0  0  0  0  0  0  0  0  0  0  0  0
   10.7247    8.0011   -6.5992 C   0  0  0  0  0  0  0  0  0  0  0  0
   10.8907    9.2250   -7.2713 C   0  0  0  0  0  0  0  0  0  0  0  0
   11.5558   10.2674   -6.6146 C   0  0  0  0  0  0  0  0  0  0  0  0
   12.0303   10.1722   -5.3755 N   0  0  0  0  0  0  0  0  0  0  0  0
   11.9115    9.0148   -4.7126 C   0  0  0  0  0  0  0  0  0  0  0  0
   12.4257    8.9511   -3.4032 C   0  0  0  0  0  0  0  0  0  0  0  0
   12.3578    7.7694   -2.6558 C   0  0  0  0  0  0  0  0  0  0  0  0
   11.7956    6.6270   -3.2377 C   0  0  0  0  0  0  0  0  0  0  0  0
   11.2858    6.6679   -4.5511 C   0  0  0  0  0  0  0  0  0  0  0  0
   11.2865    7.8721   -5.2917 C   0  0  0  0  0  0  0  0  0  0  0  0
   10.8313    7.2779   -9.0106 H   0  0  0  0  0  0  0  0  0  0  0  0
    9.3330    4.8988   -9.1254 H   0  0  0  0  0  0  0  0  0  0  0  0
    8.1807    6.2121   -9.2222 H   0  0  0  0  0  0  0  0  0  0  0  0
   10.4859    5.7127  -11.1802 H   0  0  0  0  0  0  0  0  0  0  0  0
    8.4861    8.0315  -11.1210 H   0  0  0  0  0  0  0  0  0  0  0  0
    9.7242    7.6660  -12.4231 H   0  0  0  0  0  0  0  0  0  0  0  0
    7.3818    5.8450  -11.5303 H   0  0  0  0  0  0  0  0  0  0  0  0
    8.1935    5.7747  -14.0348 H   0  0  0  0  0  0  0  0  0  0  0  0
    9.7226    5.2207  -13.4152 H   0  0  0  0  0  0  0  0  0  0  0  0
    6.1719    4.1817  -12.5172 H   0  0  0  0  0  0  0  0  0  0  0  0
    6.3520    4.3258  -14.2482 H   0  0  0  0  0  0  0  0  0  0  0  0
    6.1533    1.7270  -12.6467 H   0  0  0  0  0  0  0  0  0  0  0  0
    5.0702    2.3312  -13.8472 H   0  0  0  0  0  0  0  0  0  0  0  0
    5.2491   -0.3027  -13.6781 H   0  0  0  0  0  0  0  0  0  0  0  0
    4.1485   -2.0677  -15.0465 H   0  0  0  0  0  0  0  0  0  0  0  0
    4.6015   -2.2355  -17.4621 H   0  0  0  0  0  0  0  0  0  0  0  0
    8.5512    0.9955  -13.4616 H   0  0  0  0  0  0  0  0  0  0  0  0
    8.8534    1.0307  -15.1745 H   0  0  0  0  0  0  0  0  0  0  0  0
    8.8039    3.4864  -15.2272 H   0  0  0  0  0  0  0  0  0  0  0  0
    9.9400    2.9657  -13.9999 H   0  0  0  0  0  0  0  0  0  0  0  0
   10.4720    9.3739   -8.2566 H   0  0  0  0  0  0  0  0  0  0  0  0
   11.6858   11.2444   -7.0470 H   0  0  0  0  0  0  0  0  0  0  0  0
   12.8798    9.8285   -2.9660 H   0  0  0  0  0  0  0  0  0  0  0  0
   12.7434    7.7367   -1.6477 H   0  0  0  0  0  0  0  0  0  0  0  0
   11.7435    5.7216   -2.6572 H   0  0  0  0  0  0  0  0  0  0  0  0
   10.8523    5.7726   -4.9609 H   0  0  0  0  0  0  0  0  0  0  0  0
    8.3715    3.3973  -12.3516 H   0  0  0  0  0  0  0  0  0  0  0  0
  2  1  2  0
  3  2  1  0
  4  3  1  0
  5  4  1  0
  6  5  1  0
  7  5  1  0
  7  6  1  0
  8  7  1  0
  9  8  1  0
 10  9  1  0
 11 10  1  0
 12 11  1  0
 13 12  1  0
 14 13  2  0
 15 14  1  0
 16 15  2  0
 17 16  1  0
 18 17  1  0
 19 13  1  0
 19 17  2  0
 20 19  1  0
 21 12  1  0
 22  9  1  0
 22 21  1  0
 23  2  1  0
 24 23  2  0
 25 24  1  0
 26 25  2  0
 27 26  1  0
 28 27  2  0
 29 28  1  0
 30 29  2  0
 31 30  1  0
 32 23  1  0
 32 27  1  0
 32 31  2  0
 33  3  1  0
 34  4  1  0
 35  4  1  0
  5 36  1  6
 37  6  1  0
 38  6  1  0
  7 39  1  1
 40  8  1  0
 41  8  1  0
 42 10  1  0
 43 10  1  0
 44 11  1  0
 45 11  1  0
 46 14  1  0
 47 15  1  0
 48 16  1  0
 49 21  1  0
 50 21  1  0
 51 22  1  0
 52 22  1  0
 53 24  1  0
 54 25  1  0
 55 28  1  0
 56 29  1  0
 57 30  1  0
 58 31  1  0
 59  9  1  0
M  CHG  1   9   1
M  END
>  <b_m_subgroup_collapsed>  (966) 
0

>  <r_i_docking_score>  (966) 
-7.0554475419243596

>  <s_m_subgroup_title>  (966) 
glide-dock_SP_D22_pv

>  <s_m_subgroupid>  (966) 
glide-dock_SP_D22_pv

>  <Molecule ChEMBL ID>  (966) 
CHEMBL4083903

>  <Standard Type>  (966) 
Ki

>  <Standard Value>  (966) 
19.9

>  <label>  (966) 
1

$$$$
CHEMBL2432048
     RDKit          3D

 44 49  0  0  1  0  0  0  0  0999 V2000
   12.0924    4.9976  -14.2875 C   0  0  0  0  0  0  0  0  0  0  0  0
   11.6926    6.1626  -13.6072 C   0  0  0  0  0  0  0  0  0  0  0  0
   10.4865    6.1720  -12.8780 C   0  0  0  0  0  0  0  0  0  0  0  0
    9.6815    5.0130  -12.8157 C   0  0  0  0  0  0  0  0  0  0  0  0
    8.3828    5.0006  -12.0247 C   0  0  0  0  0  0  0  0  0  0  0  0
    8.5844    5.1522  -10.5090 C   0  0  0  0  0  0  0  0  0  0  0  0
    8.8211    6.5564  -10.1149 N   0  0  0  0  0  0  0  0  0  0  0  0
    9.1467    6.7473   -8.6935 C   0  0  1  0  0  0  0  0  0  0  0  0
   10.6687    6.5821   -8.4101 C   0  0  2  0  0  0  0  0  0  0  0  0
   11.0419    6.8471   -6.8856 C   0  0  2  0  0  0  0  0  0  0  0  0
    9.7896    7.1708   -6.0571 C   0  0  0  0  0  0  0  0  0  0  0  0
    9.2851    8.4072   -6.7820 C   0  0  1  0  0  0  0  0  0  0  0  0
   10.5472    9.1476   -7.2073 C   0  0  1  0  0  0  0  0  0  0  0  0
   11.7340    8.2435   -6.9393 C   0  0  2  0  0  0  0  0  0  0  0  0
   12.5104    8.1640   -8.2464 C   0  0  0  0  0  0  0  0  0  0  0  0
   11.2812    7.8426   -9.0832 C   0  0  2  0  0  0  0  0  0  0  0  0
   10.2523    8.8917   -8.6703 C   0  0  1  0  0  0  0  0  0  0  0  0
    8.9629    8.1910   -8.2750 C   0  0  1  0  0  0  0  0  0  0  0  0
   10.0897    3.8490  -13.5030 C   0  0  0  0  0  0  0  0  0  0  0  0
   11.2876    3.8435  -14.2428 C   0  0  0  0  0  0  0  0  0  0  0  0
   13.0186    4.9923  -14.8454 H   0  0  0  0  0  0  0  0  0  0  0  0
   12.3104    7.0470  -13.6481 H   0  0  0  0  0  0  0  0  0  0  0  0
   10.1857    7.0836  -12.3858 H   0  0  0  0  0  0  0  0  0  0  0  0
    7.7206    5.7803  -12.4041 H   0  0  0  0  0  0  0  0  0  0  0  0
    7.8682    4.0586  -12.2158 H   0  0  0  0  0  0  0  0  0  0  0  0
    7.6863    4.8114   -9.9964 H   0  0  0  0  0  0  0  0  0  0  0  0
    9.4002    4.5106  -10.1731 H   0  0  0  0  0  0  0  0  0  0  0  0
    9.5305    6.9826  -10.6882 H   0  0  0  0  0  0  0  0  0  0  0  0
    8.5181    6.0745   -8.1080 H   0  0  0  0  0  0  0  0  0  0  0  0
   11.0437    5.6350   -8.7741 H   0  0  0  0  0  0  0  0  0  0  0  0
   11.6741    6.0682   -6.4562 H   0  0  0  0  0  0  0  0  0  0  0  0
    9.0676    6.3572   -6.0075 H   0  0  0  0  0  0  0  0  0  0  0  0
   10.0892    7.4113   -5.0464 H   0  0  0  0  0  0  0  0  0  0  0  0
    8.5244    8.9725   -6.2520 H   0  0  0  0  0  0  0  0  0  0  0  0
   10.6281   10.1870   -6.9054 H   0  0  0  0  0  0  0  0  0  0  0  0
   12.2936    8.5717   -6.0605 H   0  0  0  0  0  0  0  0  0  0  0  0
   12.9805    9.1047   -8.5245 H   0  0  0  0  0  0  0  0  0  0  0  0
   13.2619    7.3734   -8.2487 H   0  0  0  0  0  0  0  0  0  0  0  0
   11.4507    7.7635  -10.1573 H   0  0  0  0  0  0  0  0  0  0  0  0
   10.1523    9.7723   -9.3017 H   0  0  0  0  0  0  0  0  0  0  0  0
    8.0861    8.7317   -8.6145 H   0  0  0  0  0  0  0  0  0  0  0  0
    9.4902    2.9510  -13.4632 H   0  0  0  0  0  0  0  0  0  0  0  0
   11.5982    2.9513  -14.7655 H   0  0  0  0  0  0  0  0  0  0  0  0
    7.9335    7.0539  -10.2482 H   0  0  0  0  0  0  0  0  0  0  0  0
  2  1  2  0
  3  2  1  0
  4  3  2  0
  5  4  1  0
  6  5  1  0
  7  6  1  0
  8  7  1  0
  9  8  1  0
 10  9  1  0
 11 10  1  0
 12 11  1  0
 13 12  1  0
 14 10  1  0
 14 13  1  0
 15 14  1  0
 16  9  1  0
 16 15  1  0
 17 13  1  0
 17 16  1  0
 18  8  1  0
 18 12  1  0
 18 17  1  0
 19  4  1  0
 20  1  1  0
 20 19  2  0
 21  1  1  0
 22  2  1  0
 23  3  1  0
 24  5  1  0
 25  5  1  0
 26  6  1  0
 27  6  1  0
 28  7  1  0
  8 29  1  1
  9 30  1  6
 10 31  1  1
 32 11  1  0
 33 11  1  0
 12 34  1  1
 13 35  1  6
 14 36  1  1
 37 15  1  0
 38 15  1  0
 16 39  1  6
 17 40  1  6
 18 41  1  6
 42 19  1  0
 43 20  1  0
 44  7  1  0
M  CHG  1   7   1
M  END
>  <b_m_subgroup_collapsed>  (967) 
0

>  <r_i_docking_score>  (967) 
-7.0548498871556404

>  <s_m_subgroup_title>  (967) 
glide-dock_SP_D22_pv

>  <s_m_subgroupid>  (967) 
glide-dock_SP_D22_pv

>  <Molecule ChEMBL ID>  (967) 
CHEMBL2432048

>  <Standard Type>  (967) 
Ki

>  <Standard Value>  (967) 
10000.0

>  <label>  (967) 
0

$$$$
CHEMBL4435765
     RDKit          3D

 72 76  0  0  1  0  0  0  0  0999 V2000
    4.9469   -2.7266  -16.2211 C   0  0  0  0  0  0  0  0  0  0  0  0
    5.2289   -1.5207  -16.9800 N   0  0  0  0  0  0  0  0  0  0  0  0
    5.7014   -0.3553  -16.5064 C   0  0  0  0  0  0  0  0  0  0  0  0
    6.0317   -0.1241  -14.7900 S   0  0  0  0  0  0  0  0  0  0  0  0
    7.7618    0.4185  -14.9040 C   0  0  0  0  0  0  0  0  0  0  0  0
    7.9067    1.9235  -15.1966 C   0  0  0  0  0  0  0  0  0  0  0  0
    7.0877    2.7804  -14.2058 C   0  0  0  0  0  0  0  0  0  0  0  0
    7.6885    4.0870  -13.8287 N   0  0  0  0  0  0  0  0  0  0  0  0
    6.7216    4.8714  -13.0162 C   0  0  0  0  0  0  0  0  0  0  0  0
    7.2763    6.2422  -12.5931 C   0  0  0  0  0  0  0  0  0  0  0  0
    8.6384    6.1675  -11.8757 C   0  0  0  0  0  0  0  0  0  0  0  0
    9.5753    5.3418  -12.7919 C   0  0  0  0  0  0  0  0  0  0  0  0
    9.0000    3.9659  -13.1391 C   0  0  0  0  0  0  0  0  0  0  0  0
    9.2191    7.5938  -11.6840 C   0  0  0  0  0  0  0  0  0  0  0  0
   10.5148    7.6163  -10.8511 C   0  0  0  0  0  0  0  0  0  0  0  0
   10.3308    6.8834   -9.6009 N   0  0  0  0  0  0  0  0  0  0  0  0
   10.6585    7.4607   -8.3598 C   0  0  0  0  0  0  0  0  0  0  0  0
   11.7250    8.3882   -8.2749 C   0  0  0  0  0  0  0  0  0  0  0  0
   12.0810    8.9729   -7.0474 C   0  0  0  0  0  0  0  0  0  0  0  0
   11.4036    8.6125   -5.8662 C   0  0  0  0  0  0  0  0  0  0  0  0
   11.7749    9.2264   -4.5297 C   0  0  0  0  0  0  0  0  0  0  0  0
   12.9879    9.7698   -4.5751 F   0  0  0  0  0  0  0  0  0  0  0  0
   10.8867   10.1719   -4.2338 F   0  0  0  0  0  0  0  0  0  0  0  0
   11.7622    8.3042   -3.5686 F   0  0  0  0  0  0  0  0  0  0  0  0
   10.3603    7.6770   -5.9392 C   0  0  0  0  0  0  0  0  0  0  0  0
    9.9610    7.1314   -7.1674 C   0  0  0  0  0  0  0  0  0  0  0  0
    8.8797    6.3144   -7.1697 F   0  0  0  0  0  0  0  0  0  0  0  0
    9.7826    5.5307   -9.6888 C   0  0  0  0  0  0  0  0  0  0  0  0
    8.4635    5.5542  -10.4599 C   0  0  0  0  0  0  0  0  0  0  0  0
    5.8768    0.5730  -17.4471 N   0  0  0  0  0  0  0  0  0  0  0  0
    5.4903   -0.0222  -18.6235 N   0  0  0  0  0  0  0  0  0  0  0  0
    5.1101   -1.2669  -18.3042 C   0  0  0  0  0  0  0  0  0  0  0  0
    4.6449   -2.2196  -19.3100 C   0  0  0  0  0  0  0  0  0  0  0  0
    3.5605   -3.0847  -19.0465 C   0  0  0  0  0  0  0  0  0  0  0  0
    3.1740   -4.0517  -19.9921 C   0  0  0  0  0  0  0  0  0  0  0  0
    3.8412   -4.1344  -21.2289 C   0  0  0  0  0  0  0  0  0  0  0  0
    4.9012   -3.2544  -21.5136 C   0  0  0  0  0  0  0  0  0  0  0  0
    5.3066   -2.3064  -20.5567 C   0  0  0  0  0  0  0  0  0  0  0  0
    5.6851   -2.8677  -15.4369 H   0  0  0  0  0  0  0  0  0  0  0  0
    3.9636   -2.6264  -15.7659 H   0  0  0  0  0  0  0  0  0  0  0  0
    4.9711   -3.6089  -16.8586 H   0  0  0  0  0  0  0  0  0  0  0  0
    8.2358    0.1952  -13.9462 H   0  0  0  0  0  0  0  0  0  0  0  0
    8.2851   -0.1846  -15.6488 H   0  0  0  0  0  0  0  0  0  0  0  0
    8.9673    2.1510  -15.1763 H   0  0  0  0  0  0  0  0  0  0  0  0
    7.5932    2.1571  -16.2157 H   0  0  0  0  0  0  0  0  0  0  0  0
    6.1056    2.9585  -14.6466 H   0  0  0  0  0  0  0  0  0  0  0  0
    6.8855    2.2202  -13.2981 H   0  0  0  0  0  0  0  0  0  0  0  0
    5.8009    5.0136  -13.5850 H   0  0  0  0  0  0  0  0  0  0  0  0
    6.4404    4.2976  -12.1301 H   0  0  0  0  0  0  0  0  0  0  0  0
    7.3649    6.9077  -13.4467 H   0  0  0  0  0  0  0  0  0  0  0  0
    6.5311    6.6933  -11.9476 H   0  0  0  0  0  0  0  0  0  0  0  0
    9.7644    5.8799  -13.7187 H   0  0  0  0  0  0  0  0  0  0  0  0
   10.5519    5.2086  -12.3369 H   0  0  0  0  0  0  0  0  0  0  0  0
    8.8972    3.3722  -12.2338 H   0  0  0  0  0  0  0  0  0  0  0  0
    9.7318    3.4555  -13.7594 H   0  0  0  0  0  0  0  0  0  0  0  0
    9.3994    8.0727  -12.6444 H   0  0  0  0  0  0  0  0  0  0  0  0
    8.4861    8.2249  -11.1796 H   0  0  0  0  0  0  0  0  0  0  0  0
   11.3412    7.1716  -11.4082 H   0  0  0  0  0  0  0  0  0  0  0  0
   10.7795    8.6577  -10.6729 H   0  0  0  0  0  0  0  0  0  0  0  0
   12.2936    8.6624   -9.1524 H   0  0  0  0  0  0  0  0  0  0  0  0
   12.8859    9.6900   -7.0130 H   0  0  0  0  0  0  0  0  0  0  0  0
    9.8334    7.3783   -5.0487 H   0  0  0  0  0  0  0  0  0  0  0  0
   10.4858    4.8996  -10.2123 H   0  0  0  0  0  0  0  0  0  0  0  0
    9.6659    5.0394   -8.7283 H   0  0  0  0  0  0  0  0  0  0  0  0
    7.7526    6.1612   -9.8938 H   0  0  0  0  0  0  0  0  0  0  0  0
    8.0467    4.5523  -10.4997 H   0  0  0  0  0  0  0  0  0  0  0  0
    3.0301   -3.0270  -18.1077 H   0  0  0  0  0  0  0  0  0  0  0  0
    2.3548   -4.7174  -19.7638 H   0  0  0  0  0  0  0  0  0  0  0  0
    3.5347   -4.8698  -21.9578 H   0  0  0  0  0  0  0  0  0  0  0  0
    5.4137   -3.3145  -22.4630 H   0  0  0  0  0  0  0  0  0  0  0  0
    6.1324   -1.6465  -20.7773 H   0  0  0  0  0  0  0  0  0  0  0  0
    7.8519    4.6088  -14.6784 H   0  0  0  0  0  0  0  0  0  0  0  0
  2  1  1  0
  3  2  1  0
  4  3  1  0
  5  4  1  0
  6  5  1  0
  7  6  1  0
  8  7  1  0
  9  8  1  0
 10  9  1  0
 11 10  1  0
 12 11  1  0
 13  8  1  0
 13 12  1  0
 14 11  1  0
 15 14  1  0
 16 15  1  0
 17 16  1  0
 18 17  1  0
 19 18  2  0
 20 19  1  0
 21 20  1  0
 22 21  1  0
 23 21  1  0
 24 21  1  0
 25 20  2  0
 26 17  2  0
 26 25  1  0
 27 26  1  0
 28 16  1  0
 29 11  1  0
 29 28  1  0
 30  3  2  0
 31 30  1  0
 32  2  1  0
 32 31  2  0
 33 32  1  0
 34 33  2  0
 35 34  1  0
 36 35  2  0
 37 36  1  0
 38 33  1  0
 38 37  2  0
 39  1  1  0
 40  1  1  0
 41  1  1  0
 42  5  1  0
 43  5  1  0
 44  6  1  0
 45  6  1  0
 46  7  1  0
 47  7  1  0
 48  9  1  0
 49  9  1  0
 50 10  1  0
 51 10  1  0
 52 12  1  0
 53 12  1  0
 54 13  1  0
 55 13  1  0
 56 14  1  0
 57 14  1  0
 58 15  1  0
 59 15  1  0
 60 18  1  0
 61 19  1  0
 62 25  1  0
 63 28  1  0
 64 28  1  0
 65 29  1  0
 66 29  1  0
 67 34  1  0
 68 35  1  0
 69 36  1  0
 70 37  1  0
 71 38  1  0
 72  8  1  0
M  CHG  1   8   1
M  END
>  <b_m_subgroup_collapsed>  (968) 
0

>  <r_i_docking_score>  (968) 
-7.0526450219901697

>  <s_m_subgroup_title>  (968) 
glide-dock_SP_D22_pv

>  <s_m_subgroupid>  (968) 
glide-dock_SP_D22_pv

>  <Molecule ChEMBL ID>  (968) 
CHEMBL4435765

>  <Standard Type>  (968) 
Ki

>  <Standard Value>  (968) 
21172.0

>  <label>  (968) 
0

$$$$
CHEMBL540033
     RDKit          3D

 35 36  0  0  1  0  0  0  0  0999 V2000
    8.2527    5.2280  -11.0475 C   0  0  0  0  0  0  0  0  0  0  0  0
    8.4859    5.4381   -9.6027 N   0  0  0  0  0  0  0  0  0  0  0  0
    8.5258    4.1721   -8.8517 C   0  0  0  0  0  0  0  0  0  0  0  0
    9.6503    6.3007   -9.3270 C   0  0  0  0  0  0  0  0  0  0  0  0
    9.8954    6.5372   -7.8043 C   0  0  0  0  0  0  0  0  0  0  0  0
   10.8449    7.7134   -7.4640 C   0  0  1  0  0  0  0  0  0  0  0  0
   11.1048    7.9301   -5.9564 C   0  0  0  0  0  0  0  0  0  0  0  0
   11.3202    6.8146   -5.1124 C   0  0  0  0  0  0  0  0  0  0  0  0
   11.6862    6.9754   -3.7618 C   0  0  0  0  0  0  0  0  0  0  0  0
   11.8288    8.2646   -3.2201 C   0  0  0  0  0  0  0  0  0  0  0  0
   11.5993    9.3869   -4.0337 C   0  0  0  0  0  0  0  0  0  0  0  0
   11.2539    9.2244   -5.3903 C   0  0  0  0  0  0  0  0  0  0  0  0
   12.0860    7.4733   -8.1219 O   0  0  0  0  0  0  0  0  0  0  0  0
   12.2718    8.4406   -9.0699 C   0  0  0  0  0  0  0  0  0  0  0  0
   11.2858    9.3306   -9.1708 C   0  0  0  0  0  0  0  0  0  0  0  0
   10.3114    8.9428   -8.1836 C   0  0  0  0  0  0  0  0  0  0  0  0
    9.1737    9.3723   -8.0333 O   0  0  0  0  0  0  0  0  0  0  0  0
    9.0810    4.6864  -11.5066 H   0  0  0  0  0  0  0  0  0  0  0  0
    7.3371    4.6560  -11.2052 H   0  0  0  0  0  0  0  0  0  0  0  0
    8.1330    6.1834  -11.5602 H   0  0  0  0  0  0  0  0  0  0  0  0
    9.4652    3.6436   -9.0223 H   0  0  0  0  0  0  0  0  0  0  0  0
    8.4365    4.3944   -7.8055 H   0  0  0  0  0  0  0  0  0  0  0  0
    7.6862    3.5140   -9.0510 H   0  0  0  0  0  0  0  0  0  0  0  0
    9.4489    7.2223   -9.8706 H   0  0  0  0  0  0  0  0  0  0  0  0
   10.5417    5.8671   -9.7787 H   0  0  0  0  0  0  0  0  0  0  0  0
   10.3101    5.6191   -7.3970 H   0  0  0  0  0  0  0  0  0  0  0  0
    8.9423    6.7027   -7.2972 H   0  0  0  0  0  0  0  0  0  0  0  0
   11.2596    5.8094   -5.4964 H   0  0  0  0  0  0  0  0  0  0  0  0
   11.8577    6.1076   -3.1420 H   0  0  0  0  0  0  0  0  0  0  0  0
   12.0980    8.3929   -2.1816 H   0  0  0  0  0  0  0  0  0  0  0  0
   11.6855   10.3781   -3.6130 H   0  0  0  0  0  0  0  0  0  0  0  0
   11.1216   10.1177   -5.9823 H   0  0  0  0  0  0  0  0  0  0  0  0
   13.1957    8.3795   -9.6267 H   0  0  0  0  0  0  0  0  0  0  0  0
   11.2103   10.1727   -9.8404 H   0  0  0  0  0  0  0  0  0  0  0  0
    7.6761    5.9578   -9.2787 H   0  0  0  0  0  0  0  0  0  0  0  0
  2  1  1  0
  3  2  1  0
  4  2  1  0
  5  4  1  0
  6  5  1  1
  7  6  1  0
  8  7  2  0
  9  8  1  0
 10  9  2  0
 11 10  1  0
 12  7  1  0
 12 11  2  0
 13  6  1  0
 14 13  1  0
 15 14  2  0
 16  6  1  0
 16 15  1  0
 17 16  2  0
 18  1  1  0
 19  1  1  0
 20  1  1  0
 21  3  1  0
 22  3  1  0
 23  3  1  0
 24  4  1  0
 25  4  1  0
 26  5  1  0
 27  5  1  0
 28  8  1  0
 29  9  1  0
 30 10  1  0
 31 11  1  0
 32 12  1  0
 33 14  1  0
 34 15  1  0
 35  2  1  0
M  CHG  1   2   1
M  END
>  <b_m_subgroup_collapsed>  (969) 
0

>  <r_i_docking_score>  (969) 
-7.0511292727930996

>  <s_m_subgroup_title>  (969) 
glide-dock_SP_D22_pv

>  <s_m_subgroupid>  (969) 
glide-dock_SP_D22_pv

>  <Molecule ChEMBL ID>  (969) 
CHEMBL540033

>  <Standard Type>  (969) 
Ki

>  <Standard Value>  (969) 
10000.0

>  <label>  (969) 
0

$$$$
CHEMBL5959945
     RDKit          3D

 51 53  0  0  1  0  0  0  0  0999 V2000
    5.7102    3.5309  -12.4373 C   0  0  0  0  0  0  0  0  0  0  0  0
    6.5605    4.8090  -12.5172 C   0  0  0  0  0  0  0  0  0  0  0  0
    8.0058    4.5411  -12.4334 N   0  0  0  0  0  0  0  0  0  0  0  0
    8.6003    4.8356  -11.1252 C   0  0  0  0  0  0  0  0  0  0  0  0
    9.1490    6.2739  -11.0628 C   0  0  0  0  0  0  0  0  0  0  0  0
   10.0398    6.4718   -9.9213 N   0  0  0  0  0  0  0  0  0  0  0  0
    9.3576    6.3044   -8.6298 C   0  0  0  0  0  0  0  0  0  0  0  0
   10.3918    6.3778   -7.4888 C   0  0  0  0  0  0  0  0  0  0  0  0
   11.1598    7.6123   -7.5725 N   0  0  0  0  0  0  0  0  0  0  0  0
   11.2022    8.5060   -6.4952 C   0  0  0  0  0  0  0  0  0  0  0  0
   11.1117    9.8230   -6.6357 N   0  0  0  0  0  0  0  0  0  0  0  0
   11.2949   10.3846   -5.3417 O   0  0  0  0  0  0  0  0  0  0  0  0
   11.5585    9.3788   -4.4231 C   0  0  0  0  0  0  0  0  0  0  0  0
   11.8924    9.4229   -3.0623 C   0  0  0  0  0  0  0  0  0  0  0  0
   12.1229    8.2000   -2.3987 C   0  0  0  0  0  0  0  0  0  0  0  0
   12.0198    6.9767   -3.1020 C   0  0  0  0  0  0  0  0  0  0  0  0
   11.6860    6.9605   -4.4765 C   0  0  0  0  0  0  0  0  0  0  0  0
   11.4611    8.1868   -5.1419 C   0  0  0  0  0  0  0  0  0  0  0  0
   11.6631    8.0006   -8.8868 C   0  0  0  0  0  0  0  0  0  0  0  0
   10.5748    7.8359   -9.9624 C   0  0  0  0  0  0  0  0  0  0  0  0
    8.6848    4.0459  -13.5021 C   0  0  0  0  0  0  0  0  0  0  0  0
    8.0999    3.6982  -14.5272 O   0  0  0  0  0  0  0  0  0  0  0  0
   10.2218    3.9014  -13.4919 C   0  0  2  0  0  0  0  0  0  0  0  0
   10.8707    4.8337  -14.5265 C   0  0  0  0  0  0  0  0  0  0  0  0
   10.5736    2.5743  -13.8465 O   0  0  0  0  0  0  0  0  0  0  0  0
    4.6628    3.7567  -12.6358 H   0  0  0  0  0  0  0  0  0  0  0  0
    6.0175    2.7833  -13.1686 H   0  0  0  0  0  0  0  0  0  0  0  0
    5.7792    3.0793  -11.4473 H   0  0  0  0  0  0  0  0  0  0  0  0
    6.2510    5.4993  -11.7290 H   0  0  0  0  0  0  0  0  0  0  0  0
    6.3430    5.3331  -13.4473 H   0  0  0  0  0  0  0  0  0  0  0  0
    7.8395    4.6940  -10.3575 H   0  0  0  0  0  0  0  0  0  0  0  0
    9.3750    4.1134  -10.8711 H   0  0  0  0  0  0  0  0  0  0  0  0
    9.7158    6.4791  -11.9721 H   0  0  0  0  0  0  0  0  0  0  0  0
    8.3276    6.9893  -11.0420 H   0  0  0  0  0  0  0  0  0  0  0  0
    8.5824    7.0637   -8.5056 H   0  0  0  0  0  0  0  0  0  0  0  0
    8.8621    5.3371   -8.5660 H   0  0  0  0  0  0  0  0  0  0  0  0
    9.8734    6.3081   -6.5313 H   0  0  0  0  0  0  0  0  0  0  0  0
   11.0772    5.5326   -7.5460 H   0  0  0  0  0  0  0  0  0  0  0  0
   11.9812   10.3664   -2.5457 H   0  0  0  0  0  0  0  0  0  0  0  0
   12.3813    8.2003   -1.3502 H   0  0  0  0  0  0  0  0  0  0  0  0
   12.1984    6.0440   -2.5865 H   0  0  0  0  0  0  0  0  0  0  0  0
   11.6335    6.0228   -5.0087 H   0  0  0  0  0  0  0  0  0  0  0  0
   12.0342    9.0261   -8.8859 H   0  0  0  0  0  0  0  0  0  0  0  0
   12.5175    7.3725   -9.1329 H   0  0  0  0  0  0  0  0  0  0  0  0
   11.0101    8.0350  -10.9427 H   0  0  0  0  0  0  0  0  0  0  0  0
    9.7745    8.5634   -9.8140 H   0  0  0  0  0  0  0  0  0  0  0  0
   10.6641    4.1230  -12.5254 H   0  0  0  0  0  0  0  0  0  0  0  0
   10.6701    5.8782  -14.2907 H   0  0  0  0  0  0  0  0  0  0  0  0
   11.9544    4.7049  -14.5433 H   0  0  0  0  0  0  0  0  0  0  0  0
   10.5005    4.6399  -15.5348 H   0  0  0  0  0  0  0  0  0  0  0  0
   10.2710    1.9831  -13.1663 H   0  0  0  0  0  0  0  0  0  0  0  0
  2  1  1  0
  3  2  1  0
  4  3  1  0
  5  4  1  0
  6  5  1  0
  7  6  1  0
  8  7  1  0
  9  8  1  0
 10  9  1  0
 11 10  2  0
 12 11  1  0
 13 12  1  0
 14 13  2  0
 15 14  1  0
 16 15  2  0
 17 16  1  0
 18 10  1  0
 18 13  1  0
 18 17  2  0
 19  9  1  0
 20  6  1  0
 20 19  1  0
 21  3  1  0
 22 21  2  0
 23 21  1  0
 24 23  1  0
 25 23  1  0
 26  1  1  0
 27  1  1  0
 28  1  1  0
 29  2  1  0
 30  2  1  0
 31  4  1  0
 32  4  1  0
 33  5  1  0
 34  5  1  0
 35  7  1  0
 36  7  1  0
 37  8  1  0
 38  8  1  0
 39 14  1  0
 40 15  1  0
 41 16  1  0
 42 17  1  0
 43 19  1  0
 44 19  1  0
 45 20  1  0
 46 20  1  0
 23 47  1  1
 48 24  1  0
 49 24  1  0
 50 24  1  0
 51 25  1  0
M  END
>  <b_m_subgroup_collapsed>  (970) 
0

>  <r_i_docking_score>  (970) 
-7.05107689895177

>  <s_m_subgroup_title>  (970) 
glide-dock_SP_D22_pv

>  <s_m_subgroupid>  (970) 
glide-dock_SP_D22_pv

>  <Molecule ChEMBL ID>  (970) 
CHEMBL5959945

>  <Standard Type>  (970) 
Ki

>  <Standard Value>  (970) 
10000.0

>  <label>  (970) 
0

$$$$
CHEMBL308185
     RDKit          3D

 50 52  0  0  1  0  0  0  0  0999 V2000
    5.6892    3.1736  -12.8028 C   0  0  0  0  0  0  0  0  0  0  0  0
    5.3787    2.0619  -13.2014 C   0  0  0  0  0  0  0  0  0  0  0  0
    5.0448    0.8044  -13.8465 C   0  0  0  0  0  0  0  0  0  0  0  0
    6.0402    0.1048  -14.5558 C   0  0  0  0  0  0  0  0  0  0  0  0
    5.6861   -0.9958  -15.3573 C   0  0  0  0  0  0  0  0  0  0  0  0
    4.3482   -1.4263  -15.4293 C   0  0  0  0  0  0  0  0  0  0  0  0
    3.3595   -0.7403  -14.7032 C   0  0  0  0  0  0  0  0  0  0  0  0
    3.7046    0.3677  -13.9130 C   0  0  0  0  0  0  0  0  0  0  0  0
    6.1183    4.5123  -12.3765 C   0  0  0  0  0  0  0  0  0  0  0  0
    7.2838    4.8987  -13.0957 O   0  0  0  0  0  0  0  0  0  0  0  0
    7.9147    6.0666  -12.5801 C   0  0  0  0  0  0  0  0  0  0  0  0
    9.2695    5.7004  -11.9309 C   0  0  1  0  0  0  0  0  0  0  0  0
   10.0880    6.9187  -11.4642 C   0  0  0  0  0  0  0  0  0  0  0  0
    9.5150    7.5772  -10.1924 C   0  0  0  0  0  0  0  0  0  0  0  0
    9.3377    6.5989   -9.0822 N   0  0  1  0  0  0  0  0  0  0  0  0
    8.8054    7.2229   -7.8419 C   0  0  0  0  0  0  0  0  0  0  0  0
    9.8902    7.7799   -6.9364 C   0  0  0  0  0  0  0  0  0  0  0  0
   10.4149    6.9908   -5.8960 C   0  0  0  0  0  0  0  0  0  0  0  0
   11.3159    7.5445   -4.9704 C   0  0  0  0  0  0  0  0  0  0  0  0
   11.7246    8.8862   -5.0972 C   0  0  0  0  0  0  0  0  0  0  0  0
   11.2417    9.6666   -6.1634 C   0  0  0  0  0  0  0  0  0  0  0  0
   10.3229    9.1118   -7.0765 C   0  0  0  0  0  0  0  0  0  0  0  0
    8.5212    5.4348   -9.5100 C   0  0  0  0  0  0  0  0  0  0  0  0
    9.1221    4.7401  -10.7435 C   0  0  0  0  0  0  0  0  0  0  0  0
    7.0665    0.4448  -14.5421 H   0  0  0  0  0  0  0  0  0  0  0  0
    6.4450   -1.4833  -15.9464 H   0  0  0  0  0  0  0  0  0  0  0  0
    4.0793   -2.2671  -16.0541 H   0  0  0  0  0  0  0  0  0  0  0  0
    2.3240   -1.0276  -14.7857 H   0  0  0  0  0  0  0  0  0  0  0  0
    2.9121    0.9315  -13.4472 H   0  0  0  0  0  0  0  0  0  0  0  0
    5.3073    5.2254  -12.5305 H   0  0  0  0  0  0  0  0  0  0  0  0
    6.3254    4.4489  -11.3143 H   0  0  0  0  0  0  0  0  0  0  0  0
    8.0844    6.7426  -13.4177 H   0  0  0  0  0  0  0  0  0  0  0  0
    7.2678    6.6018  -11.8855 H   0  0  0  0  0  0  0  0  0  0  0  0
    9.8518    5.1914  -12.7004 H   0  0  0  0  0  0  0  0  0  0  0  0
   11.1057    6.5838  -11.2636 H   0  0  0  0  0  0  0  0  0  0  0  0
   10.1629    7.6560  -12.2634 H   0  0  0  0  0  0  0  0  0  0  0  0
    8.5634    8.0539  -10.4278 H   0  0  0  0  0  0  0  0  0  0  0  0
   10.1870    8.3717   -9.8708 H   0  0  0  0  0  0  0  0  0  0  0  0
    8.0956    8.0165   -8.0739 H   0  0  0  0  0  0  0  0  0  0  0  0
    8.2420    6.4906   -7.2607 H   0  0  0  0  0  0  0  0  0  0  0  0
   10.0873    5.9730   -5.7728 H   0  0  0  0  0  0  0  0  0  0  0  0
   11.6929    6.9383   -4.1586 H   0  0  0  0  0  0  0  0  0  0  0  0
   12.4201    9.3108   -4.3874 H   0  0  0  0  0  0  0  0  0  0  0  0
   11.5591   10.6931   -6.2680 H   0  0  0  0  0  0  0  0  0  0  0  0
    9.9165    9.7258   -7.8650 H   0  0  0  0  0  0  0  0  0  0  0  0
    7.5144    5.7725   -9.7351 H   0  0  0  0  0  0  0  0  0  0  0  0
    8.4373    4.7131   -8.6964 H   0  0  0  0  0  0  0  0  0  0  0  0
    8.5077    3.9004  -11.0479 H   0  0  0  0  0  0  0  0  0  0  0  0
   10.0859    4.3129  -10.4794 H   0  0  0  0  0  0  0  0  0  0  0  0
   10.2486    6.2339   -8.8480 H   0  0  0  0  0  0  0  0  0  0  0  0
  2  1  3  0
  3  2  1  0
  4  3  2  0
  5  4  1  0
  6  5  2  0
  7  6  1  0
  8  3  1  0
  8  7  2  0
  9  1  1  0
 10  9  1  0
 11 10  1  0
 12 11  1  0
 13 12  1  0
 14 13  1  0
 15 14  1  0
 16 15  1  0
 17 16  1  0
 18 17  2  0
 19 18  1  0
 20 19  2  0
 21 20  1  0
 22 17  1  0
 22 21  2  0
 23 15  1  0
 24 12  1  0
 24 23  1  0
 25  4  1  0
 26  5  1  0
 27  6  1  0
 28  7  1  0
 29  8  1  0
 30  9  1  0
 31  9  1  0
 32 11  1  0
 33 11  1  0
 12 34  1  6
 35 13  1  0
 36 13  1  0
 37 14  1  0
 38 14  1  0
 39 16  1  0
 40 16  1  0
 41 18  1  0
 42 19  1  0
 43 20  1  0
 44 21  1  0
 45 22  1  0
 46 23  1  0
 47 23  1  0
 48 24  1  0
 49 24  1  0
 15 50  1  1
M  CHG  1  15   1
M  END
>  <b_m_subgroup_collapsed>  (971) 
0

>  <r_i_docking_score>  (971) 
-7.0496178661699203

>  <s_m_subgroup_title>  (971) 
glide-dock_SP_D22_pv

>  <s_m_subgroupid>  (971) 
glide-dock_SP_D22_pv

>  <Molecule ChEMBL ID>  (971) 
CHEMBL308185

>  <Standard Type>  (971) 
Ki

>  <Standard Value>  (971) 
10000.0

>  <label>  (971) 
0

$$$$
CHEMBL485028
     RDKit          3D

 57 60  0  0  1  0  0  0  0  0999 V2000
   11.8288    9.7293   -3.7273 C   0  0  0  0  0  0  0  0  0  0  0  0
   11.1623    9.7429   -5.1092 C   0  0  0  0  0  0  0  0  0  0  0  0
   11.6654    8.6041   -6.0108 C   0  0  0  0  0  0  0  0  0  0  0  0
   10.6297    8.1580   -6.9889 N   0  0  2  0  0  0  0  0  0  0  0  0
    9.8274    7.0408   -6.4291 C   0  0  0  0  0  0  0  0  0  0  0  0
    8.7048    6.6631   -7.3935 C   0  0  0  0  0  0  0  0  0  0  0  0
    9.2842    6.2482   -8.6218 O   0  0  0  0  0  0  0  0  0  0  0  0
    9.9514    7.3283   -9.2606 C   0  0  2  0  0  0  0  0  0  0  0  0
   10.4112    6.9738  -10.6721 C   0  0  0  0  0  0  0  0  0  0  0  0
    9.6799    6.0529  -11.4546 C   0  0  0  0  0  0  0  0  0  0  0  0
   10.1098    5.7114  -12.7619 C   0  0  0  0  0  0  0  0  0  0  0  0
    9.4044    4.6586  -13.5693 C   0  0  0  0  0  0  0  0  0  0  0  0
   10.0094    4.0756  -14.4690 O   0  0  0  0  0  0  0  0  0  0  0  0
    8.0976    4.4907  -13.2912 N   0  0  0  0  0  0  0  0  0  0  0  0
    7.2692    3.3722  -13.5803 C   0  0  0  0  0  0  0  0  0  0  0  0
    6.0131    3.3333  -12.9427 C   0  0  0  0  0  0  0  0  0  0  0  0
    5.2001    2.1898  -13.0459 C   0  0  0  0  0  0  0  0  0  0  0  0
    5.6043    1.0690  -13.7974 C   0  0  0  0  0  0  0  0  0  0  0  0
    4.7372   -0.0001  -13.8394 O   0  0  0  0  0  0  0  0  0  0  0  0
    5.0865   -1.1070  -14.6573 C   0  0  0  0  0  0  0  0  0  0  0  0
    6.8483    1.1190  -14.4695 C   0  0  0  0  0  0  0  0  0  0  0  0
    7.6681    2.2606  -14.3662 C   0  0  0  0  0  0  0  0  0  0  0  0
   11.2819    6.3075  -13.2808 C   0  0  0  0  0  0  0  0  0  0  0  0
   11.9919    7.2488  -12.5210 C   0  0  0  0  0  0  0  0  0  0  0  0
   11.5641    7.5810  -11.2209 C   0  0  0  0  0  0  0  0  0  0  0  0
   12.3909    8.5721  -10.4340 C   0  0  0  0  0  0  0  0  0  0  0  0
   11.8222    8.9644   -9.0666 C   0  0  0  0  0  0  0  0  0  0  0  0
   11.1251    7.7972   -8.3535 C   0  0  1  0  0  0  0  0  0  0  0  0
   11.5032   10.5720   -3.1182 H   0  0  0  0  0  0  0  0  0  0  0  0
   12.9153    9.7732   -3.8123 H   0  0  0  0  0  0  0  0  0  0  0  0
   11.5779    8.8182   -3.1807 H   0  0  0  0  0  0  0  0  0  0  0  0
   10.0861    9.6892   -4.9821 H   0  0  0  0  0  0  0  0  0  0  0  0
   11.3473   10.7004   -5.5984 H   0  0  0  0  0  0  0  0  0  0  0  0
   12.5740    8.9719   -6.4796 H   0  0  0  0  0  0  0  0  0  0  0  0
   11.9775    7.7512   -5.4050 H   0  0  0  0  0  0  0  0  0  0  0  0
   10.4637    6.1734   -6.2487 H   0  0  0  0  0  0  0  0  0  0  0  0
    9.4063    7.3316   -5.4688 H   0  0  0  0  0  0  0  0  0  0  0  0
    8.0826    5.8647   -6.9905 H   0  0  0  0  0  0  0  0  0  0  0  0
    8.0861    7.5417   -7.5408 H   0  0  0  0  0  0  0  0  0  0  0  0
    9.2374    8.1452   -9.3902 H   0  0  0  0  0  0  0  0  0  0  0  0
    8.8014    5.5928  -11.0257 H   0  0  0  0  0  0  0  0  0  0  0  0
    7.7113    5.1517  -12.6322 H   0  0  0  0  0  0  0  0  0  0  0  0
    5.6848    4.1612  -12.3311 H   0  0  0  0  0  0  0  0  0  0  0  0
    4.2462    2.1724  -12.5419 H   0  0  0  0  0  0  0  0  0  0  0  0
    4.2712   -1.8278  -14.6452 H   0  0  0  0  0  0  0  0  0  0  0  0
    5.9819   -1.6085  -14.2880 H   0  0  0  0  0  0  0  0  0  0  0  0
    5.2378   -0.8083  -15.6949 H   0  0  0  0  0  0  0  0  0  0  0  0
    7.2037    0.2879  -15.0584 H   0  0  0  0  0  0  0  0  0  0  0  0
    8.6163    2.2284  -14.8759 H   0  0  0  0  0  0  0  0  0  0  0  0
   11.6395    6.0506  -14.2680 H   0  0  0  0  0  0  0  0  0  0  0  0
   12.8860    7.6956  -12.9319 H   0  0  0  0  0  0  0  0  0  0  0  0
   13.3969    8.1723  -10.3096 H   0  0  0  0  0  0  0  0  0  0  0  0
   12.4852    9.4652  -11.0471 H   0  0  0  0  0  0  0  0  0  0  0  0
   12.6456    9.3722   -8.4917 H   0  0  0  0  0  0  0  0  0  0  0  0
   11.1036    9.7721   -9.2008 H   0  0  0  0  0  0  0  0  0  0  0  0
   11.8311    6.9747   -8.2379 H   0  0  0  0  0  0  0  0  0  0  0  0
    9.9988    8.9367   -7.1211 H   0  0  0  0  0  0  0  0  0  0  0  0
  2  1  1  0
  3  2  1  0
  4  3  1  0
  5  4  1  0
  6  5  1  0
  7  6  1  0
  8  7  1  0
  9  8  1  0
 10  9  1  0
 11 10  2  0
 12 11  1  0
 13 12  2  0
 14 12  1  0
 15 14  1  0
 16 15  1  0
 17 16  2  0
 18 17  1  0
 19 18  1  0
 20 19  1  0
 21 18  2  0
 22 15  2  0
 22 21  1  0
 23 11  1  0
 24 23  2  0
 25  9  2  0
 25 24  1  0
 26 25  1  0
 27 26  1  0
 28  4  1  0
 28  8  1  0
 28 27  1  0
 29  1  1  0
 30  1  1  0
 31  1  1  0
 32  2  1  0
 33  2  1  0
 34  3  1  0
 35  3  1  0
 36  5  1  0
 37  5  1  0
 38  6  1  0
 39  6  1  0
  8 40  1  6
 41 10  1  0
 42 14  1  0
 43 16  1  0
 44 17  1  0
 45 20  1  0
 46 20  1  0
 47 20  1  0
 48 21  1  0
 49 22  1  0
 50 23  1  0
 51 24  1  0
 52 26  1  0
 53 26  1  0
 54 27  1  0
 55 27  1  0
 28 56  1  1
  4 57  1  6
M  CHG  1   4   1
M  END
>  <b_m_subgroup_collapsed>  (972) 
0

>  <r_i_docking_score>  (972) 
-7.0490459276172697

>  <s_m_subgroup_title>  (972) 
glide-dock_SP_D22_pv

>  <s_m_subgroupid>  (972) 
glide-dock_SP_D22_pv

>  <Molecule ChEMBL ID>  (972) 
CHEMBL485028

>  <Standard Type>  (972) 
Ki

>  <Standard Value>  (972) 
10000.0

>  <label>  (972) 
0

$$$$
CHEMBL159022
     RDKit          3D

 59 62  0  0  1  0  0  0  0  0999 V2000
    7.1293   -0.8486  -18.3577 C   0  0  0  0  0  0  0  0  0  0  0  0
    7.0929   -0.0611  -17.1771 O   0  0  0  0  0  0  0  0  0  0  0  0
    6.0668   -0.2739  -16.2759 C   0  0  0  0  0  0  0  0  0  0  0  0
    4.9440   -1.0896  -16.5773 C   0  0  0  0  0  0  0  0  0  0  0  0
    3.9051   -1.2585  -15.6464 C   0  0  0  0  0  0  0  0  0  0  0  0
    3.9705   -0.6292  -14.3938 C   0  0  0  0  0  0  0  0  0  0  0  0
    5.0809    0.1723  -14.0756 C   0  0  0  0  0  0  0  0  0  0  0  0
    6.1258    0.3728  -15.0111 C   0  0  0  0  0  0  0  0  0  0  0  0
    7.2900    1.2373  -14.6475 C   0  0  0  0  0  0  0  0  0  0  0  0
    8.4588    0.9617  -14.9282 O   0  0  0  0  0  0  0  0  0  0  0  0
    6.9625    2.5568  -13.9240 C   0  0  0  0  0  0  0  0  0  0  0  0
    8.1902    3.3721  -13.4641 C   0  0  0  0  0  0  0  0  0  0  0  0
    7.8119    4.4349  -12.4220 C   0  0  0  0  0  0  0  0  0  0  0  0
    9.0138    4.9875  -11.6384 C   0  0  0  0  0  0  0  0  0  0  0  0
    8.5856    6.0875  -10.6587 C   0  0  0  0  0  0  0  0  0  0  0  0
    9.6732    6.3826   -9.7231 N   0  0  0  0  0  0  0  0  0  0  0  0
    9.2388    6.0656   -8.3579 C   0  0  0  0  0  0  0  0  0  0  0  0
   10.3705    6.3149   -7.3396 C   0  0  0  0  0  0  0  0  0  0  0  0
   10.8981    7.6641   -7.4820 N   0  0  0  0  0  0  0  0  0  0  0  0
   11.0812    8.5256   -6.3853 C   0  0  0  0  0  0  0  0  0  0  0  0
   10.9998    9.8462   -6.4941 N   0  0  0  0  0  0  0  0  0  0  0  0
   11.2852   10.3924   -5.2156 O   0  0  0  0  0  0  0  0  0  0  0  0
   11.5944    9.3727   -4.3299 C   0  0  0  0  0  0  0  0  0  0  0  0
   11.9974    9.4071   -2.9882 C   0  0  0  0  0  0  0  0  0  0  0  0
   12.2374    8.1794   -2.3396 C   0  0  0  0  0  0  0  0  0  0  0  0
   12.0864    6.9668   -3.0464 C   0  0  0  0  0  0  0  0  0  0  0  0
   11.6877    6.9590   -4.4014 C   0  0  0  0  0  0  0  0  0  0  0  0
   11.4366    8.1874   -5.0530 C   0  0  0  0  0  0  0  0  0  0  0  0
   11.1964    8.1035   -8.8410 C   0  0  0  0  0  0  0  0  0  0  0  0
   10.0066    7.8087   -9.7741 C   0  0  0  0  0  0  0  0  0  0  0  0
    8.0465   -0.6334  -18.9035 H   0  0  0  0  0  0  0  0  0  0  0  0
    7.1272   -1.9164  -18.1276 H   0  0  0  0  0  0  0  0  0  0  0  0
    6.2905   -0.6192  -19.0179 H   0  0  0  0  0  0  0  0  0  0  0  0
    4.8423   -1.5932  -17.5267 H   0  0  0  0  0  0  0  0  0  0  0  0
    3.0589   -1.8867  -15.8924 H   0  0  0  0  0  0  0  0  0  0  0  0
    3.1648   -0.7611  -13.6878 H   0  0  0  0  0  0  0  0  0  0  0  0
    5.1153    0.6294  -13.0984 H   0  0  0  0  0  0  0  0  0  0  0  0
    6.3312    3.1650  -14.5756 H   0  0  0  0  0  0  0  0  0  0  0  0
    6.3611    2.3201  -13.0470 H   0  0  0  0  0  0  0  0  0  0  0  0
    8.9485    2.7107  -13.0473 H   0  0  0  0  0  0  0  0  0  0  0  0
    8.6600    3.8492  -14.3235 H   0  0  0  0  0  0  0  0  0  0  0  0
    7.2815    5.2552  -12.9083 H   0  0  0  0  0  0  0  0  0  0  0  0
    7.1120    4.0100  -11.7014 H   0  0  0  0  0  0  0  0  0  0  0  0
    9.4828    4.1733  -11.0860 H   0  0  0  0  0  0  0  0  0  0  0  0
    9.7664    5.3791  -12.3215 H   0  0  0  0  0  0  0  0  0  0  0  0
    8.2943    6.9727  -11.2289 H   0  0  0  0  0  0  0  0  0  0  0  0
    7.6861    5.7724  -10.1233 H   0  0  0  0  0  0  0  0  0  0  0  0
    8.3697    6.6686   -8.0940 H   0  0  0  0  0  0  0  0  0  0  0  0
    8.9310    5.0206   -8.3038 H   0  0  0  0  0  0  0  0  0  0  0  0
    9.9578    6.1717   -6.3397 H   0  0  0  0  0  0  0  0  0  0  0  0
   11.1848    5.6004   -7.4751 H   0  0  0  0  0  0  0  0  0  0  0  0
   12.1017   10.3467   -2.4649 H   0  0  0  0  0  0  0  0  0  0  0  0
   12.5392    8.1707   -1.3035 H   0  0  0  0  0  0  0  0  0  0  0  0
   12.2619    6.0252   -2.5421 H   0  0  0  0  0  0  0  0  0  0  0  0
   11.6016    6.0195   -4.9235 H   0  0  0  0  0  0  0  0  0  0  0  0
   11.4397    9.1647   -8.8785 H   0  0  0  0  0  0  0  0  0  0  0  0
   12.0838    7.5741   -9.1852 H   0  0  0  0  0  0  0  0  0  0  0  0
   10.2759    8.0823  -10.7958 H   0  0  0  0  0  0  0  0  0  0  0  0
    9.1410    8.4125   -9.4949 H   0  0  0  0  0  0  0  0  0  0  0  0
  2  1  1  0
  3  2  1  0
  4  3  2  0
  5  4  1  0
  6  5  2  0
  7  6  1  0
  8  3  1  0
  8  7  2  0
  9  8  1  0
 10  9  2  0
 11  9  1  0
 12 11  1  0
 13 12  1  0
 14 13  1  0
 15 14  1  0
 16 15  1  0
 17 16  1  0
 18 17  1  0
 19 18  1  0
 20 19  1  0
 21 20  2  0
 22 21  1  0
 23 22  1  0
 24 23  2  0
 25 24  1  0
 26 25  2  0
 27 26  1  0
 28 20  1  0
 28 23  1  0
 28 27  2  0
 29 19  1  0
 30 16  1  0
 30 29  1  0
 31  1  1  0
 32  1  1  0
 33  1  1  0
 34  4  1  0
 35  5  1  0
 36  6  1  0
 37  7  1  0
 38 11  1  0
 39 11  1  0
 40 12  1  0
 41 12  1  0
 42 13  1  0
 43 13  1  0
 44 14  1  0
 45 14  1  0
 46 15  1  0
 47 15  1  0
 48 17  1  0
 49 17  1  0
 50 18  1  0
 51 18  1  0
 52 24  1  0
 53 25  1  0
 54 26  1  0
 55 27  1  0
 56 29  1  0
 57 29  1  0
 58 30  1  0
 59 30  1  0
M  END
>  <b_m_subgroup_collapsed>  (973) 
0

>  <r_i_docking_score>  (973) 
-7.0479986629385296

>  <s_m_subgroup_title>  (973) 
glide-dock_SP_D22_pv

>  <s_m_subgroupid>  (973) 
glide-dock_SP_D22_pv

>  <Molecule ChEMBL ID>  (973) 
CHEMBL159022

>  <Standard Type>  (973) 
Ki

>  <Standard Value>  (973) 
78.1

>  <label>  (973) 
1

$$$$
CHEMBL5723021
     RDKit          3D

 49 51  0  0  1  0  0  0  0  0999 V2000
   12.2185    7.1429  -14.6274 C   0  0  0  0  0  0  0  0  0  0  0  0
   11.5653    6.3915  -13.4587 C   0  0  0  0  0  0  0  0  0  0  0  0
   11.1032    5.0029  -13.8048 C   0  0  0  0  0  0  0  0  0  0  0  0
   11.7365    4.1751  -14.6450 N   0  0  0  0  0  0  0  0  0  0  0  0
   11.0980    2.9676  -14.7048 C   0  0  0  0  0  0  0  0  0  0  0  0
   10.0311    3.0534  -13.8512 C   0  0  0  0  0  0  0  0  0  0  0  0
   10.0505    4.3162  -13.3141 N   0  0  0  0  0  0  0  0  0  0  0  0
    9.0688    4.8534  -12.3566 C   0  0  0  0  0  0  0  0  0  0  0  0
    9.6661    5.0698  -10.9601 C   0  0  0  0  0  0  0  0  0  0  0  0
    8.6564    5.6214   -9.9428 C   0  0  0  0  0  0  0  0  0  0  0  0
    9.2883    6.0217   -8.6882 N   0  0  0  0  0  0  0  0  0  0  0  0
   10.0444    7.2536   -8.8864 C   0  0  0  0  0  0  0  0  0  0  0  0
   10.6125    7.8422   -7.6110 C   0  0  0  0  0  0  0  0  0  0  0  0
   10.9135    9.1495   -7.5355 C   0  0  0  0  0  0  0  0  0  0  0  0
   11.4048    9.7612   -6.2861 C   0  0  0  0  0  0  0  0  0  0  0  0
   11.6858   10.9567   -6.2329 O   0  0  0  0  0  0  0  0  0  0  0  0
   11.5411    8.8389   -5.1243 C   0  0  0  0  0  0  0  0  0  0  0  0
   11.9304    9.3098   -3.8519 C   0  0  0  0  0  0  0  0  0  0  0  0
   12.1003    8.4126   -2.7804 C   0  0  0  0  0  0  0  0  0  0  0  0
   12.4868    8.9267   -1.4154 C   0  0  0  0  0  0  0  0  0  0  0  0
   11.8924    7.0357   -2.9771 C   0  0  0  0  0  0  0  0  0  0  0  0
   11.4656    6.5722   -4.2332 C   0  0  0  0  0  0  0  0  0  0  0  0
   11.2675    7.4612   -5.3001 C   0  0  0  0  0  0  0  0  0  0  0  0
   10.7908    6.9950   -6.5311 N   0  0  0  0  0  0  0  0  0  0  0  0
   12.4873    8.1573  -14.3313 H   0  0  0  0  0  0  0  0  0  0  0  0
   13.1326    6.6488  -14.9574 H   0  0  0  0  0  0  0  0  0  0  0  0
   11.5470    7.2135  -15.4828 H   0  0  0  0  0  0  0  0  0  0  0  0
   10.7169    6.9510  -13.0648 H   0  0  0  0  0  0  0  0  0  0  0  0
   12.2846    6.2856  -12.6470 H   0  0  0  0  0  0  0  0  0  0  0  0
   11.4490    2.1531  -15.3234 H   0  0  0  0  0  0  0  0  0  0  0  0
    9.2832    2.3191  -13.5853 H   0  0  0  0  0  0  0  0  0  0  0  0
    8.2308    4.1568  -12.3019 H   0  0  0  0  0  0  0  0  0  0  0  0
    8.6742    5.7858  -12.7619 H   0  0  0  0  0  0  0  0  0  0  0  0
   10.4830    5.7719  -11.0669 H   0  0  0  0  0  0  0  0  0  0  0  0
   10.0858    4.1371  -10.5822 H   0  0  0  0  0  0  0  0  0  0  0  0
    7.9217    4.8481   -9.7252 H   0  0  0  0  0  0  0  0  0  0  0  0
    8.1068    6.4657  -10.3626 H   0  0  0  0  0  0  0  0  0  0  0  0
    8.5298    6.2484   -8.0545 H   0  0  0  0  0  0  0  0  0  0  0  0
    9.3916    8.0000   -9.3438 H   0  0  0  0  0  0  0  0  0  0  0  0
   10.8881    7.1043   -9.5575 H   0  0  0  0  0  0  0  0  0  0  0  0
   10.7830    9.7720   -8.4043 H   0  0  0  0  0  0  0  0  0  0  0  0
   12.0857   10.3598   -3.6789 H   0  0  0  0  0  0  0  0  0  0  0  0
   13.4791    8.5794   -1.1323 H   0  0  0  0  0  0  0  0  0  0  0  0
   12.4798   10.0137   -1.3810 H   0  0  0  0  0  0  0  0  0  0  0  0
   11.7697    8.5750   -0.6773 H   0  0  0  0  0  0  0  0  0  0  0  0
   12.0229    6.3360   -2.1637 H   0  0  0  0  0  0  0  0  0  0  0  0
   11.2702    5.5268   -4.3729 H   0  0  0  0  0  0  0  0  0  0  0  0
   10.5353    6.0217   -6.6370 H   0  0  0  0  0  0  0  0  0  0  0  0
   12.5730    4.4161  -15.1622 H   0  0  0  0  0  0  0  0  0  0  0  0
  2  1  1  0
  3  2  1  0
  4  3  2  0
  5  4  1  0
  6  5  2  0
  7  3  1  0
  7  6  1  0
  8  7  1  0
  9  8  1  0
 10  9  1  0
 11 10  1  0
 12 11  1  0
 13 12  1  0
 14 13  2  0
 15 14  1  0
 16 15  2  0
 17 15  1  0
 18 17  2  0
 19 18  1  0
 20 19  1  0
 21 19  2  0
 22 21  1  0
 23 17  1  0
 23 22  2  0
 24 13  1  0
 24 23  1  0
 25  1  1  0
 26  1  1  0
 27  1  1  0
 28  2  1  0
 29  2  1  0
 30  5  1  0
 31  6  1  0
 32  8  1  0
 33  8  1  0
 34  9  1  0
 35  9  1  0
 36 10  1  0
 37 10  1  0
 38 11  1  0
 39 12  1  0
 40 12  1  0
 41 14  1  0
 42 18  1  0
 43 20  1  0
 44 20  1  0
 45 20  1  0
 46 21  1  0
 47 22  1  0
 48 24  1  0
 49  4  1  0
M  CHG  1   4   1
M  END
>  <b_m_subgroup_collapsed>  (974) 
0

>  <r_i_docking_score>  (974) 
-7.04630200664129

>  <s_m_subgroup_title>  (974) 
glide-dock_SP_D22_pv

>  <s_m_subgroupid>  (974) 
glide-dock_SP_D22_pv

>  <Molecule ChEMBL ID>  (974) 
CHEMBL5723021

>  <Standard Type>  (974) 
Ki

>  <Standard Value>  (974) 
10000.0

>  <label>  (974) 
0

$$$$
CHEMBL5723018
     RDKit          3D

 38 40  0  0  1  0  0  0  0  0999 V2000
   11.6268    8.2933   -9.0633 C   0  0  0  0  0  0  0  0  0  0  0  0
   10.1378    7.9170   -8.8864 C   0  0  1  0  0  0  0  0  0  0  0  0
    9.5480    8.3491   -7.5174 C   0  0  0  0  0  0  0  0  0  0  0  0
   10.4800    8.3062   -6.3424 C   0  0  0  0  0  0  0  0  0  0  0  0
   10.8265    7.2207   -5.5722 C   0  0  0  0  0  0  0  0  0  0  0  0
   11.6861    7.5288   -4.5124 N   0  0  0  0  0  0  0  0  0  0  0  0
   12.0129    8.8218   -4.4986 C   0  0  0  0  0  0  0  0  0  0  0  0
   11.2860    9.7597   -5.7907 S   0  0  0  0  0  0  0  0  0  0  0  0
    9.2860    8.5358   -9.9027 N   0  0  0  0  0  0  0  0  0  0  0  0
    9.6598    8.3745  -11.2984 C   0  0  0  0  0  0  0  0  0  0  0  0
    9.4074    6.9933  -11.8692 C   0  0  0  0  0  0  0  0  0  0  0  0
   10.3762    6.2821  -12.4829 C   0  0  0  0  0  0  0  0  0  0  0  0
   10.0738    5.0022  -13.1558 C   0  0  0  0  0  0  0  0  0  0  0  0
   10.9593    4.3317  -13.6861 O   0  0  0  0  0  0  0  0  0  0  0  0
    8.6399    4.5940  -13.1639 C   0  0  0  0  0  0  0  0  0  0  0  0
    8.2270    3.4298  -13.8474 C   0  0  0  0  0  0  0  0  0  0  0  0
    6.8707    3.0546  -13.8464 C   0  0  0  0  0  0  0  0  0  0  0  0
    6.4860    1.9296  -14.4927 F   0  0  0  0  0  0  0  0  0  0  0  0
    5.9219    3.8342  -13.1553 C   0  0  0  0  0  0  0  0  0  0  0  0
    6.3257    5.0009  -12.4760 C   0  0  0  0  0  0  0  0  0  0  0  0
    7.6794    5.3885  -12.4878 C   0  0  0  0  0  0  0  0  0  0  0  0
    8.0871    6.5640  -11.8469 N   0  0  0  0  0  0  0  0  0  0  0  0
   12.2437    7.8981   -8.2571 H   0  0  0  0  0  0  0  0  0  0  0  0
   12.0454    7.8787   -9.9790 H   0  0  0  0  0  0  0  0  0  0  0  0
   11.7617    9.3734   -9.0872 H   0  0  0  0  0  0  0  0  0  0  0  0
   10.0593    6.8322   -8.9719 H   0  0  0  0  0  0  0  0  0  0  0  0
    8.6640    7.7456   -7.3025 H   0  0  0  0  0  0  0  0  0  0  0  0
    9.1741    9.3720   -7.5947 H   0  0  0  0  0  0  0  0  0  0  0  0
   10.4842    6.2022   -5.6882 H   0  0  0  0  0  0  0  0  0  0  0  0
   12.6756    9.2181   -3.7428 H   0  0  0  0  0  0  0  0  0  0  0  0
    8.3130    8.2456   -9.7960 H   0  0  0  0  0  0  0  0  0  0  0  0
    9.0661    9.0786  -11.8823 H   0  0  0  0  0  0  0  0  0  0  0  0
   10.6973    8.6596  -11.4468 H   0  0  0  0  0  0  0  0  0  0  0  0
   11.3903    6.6509  -12.5299 H   0  0  0  0  0  0  0  0  0  0  0  0
    8.9461    2.8132  -14.3682 H   0  0  0  0  0  0  0  0  0  0  0  0
    4.8838    3.5369  -13.1472 H   0  0  0  0  0  0  0  0  0  0  0  0
    5.5989    5.5999  -11.9460 H   0  0  0  0  0  0  0  0  0  0  0  0
    7.3948    7.0966  -11.3031 H   0  0  0  0  0  0  0  0  0  0  0  0
  2  1  1  0
  3  2  1  0
  4  3  1  0
  5  4  2  0
  6  5  1  0
  7  6  2  0
  8  4  1  0
  8  7  1  0
  9  2  1  0
 10  9  1  0
 11 10  1  0
 12 11  2  0
 13 12  1  0
 14 13  2  0
 15 13  1  0
 16 15  2  0
 17 16  1  0
 18 17  1  0
 19 17  2  0
 20 19  1  0
 21 15  1  0
 21 20  2  0
 22 11  1  0
 22 21  1  0
 23  1  1  0
 24  1  1  0
 25  1  1  0
  2 26  1  1
 27  3  1  0
 28  3  1  0
 29  5  1  0
 30  7  1  0
 31  9  1  0
 32 10  1  0
 33 10  1  0
 34 12  1  0
 35 16  1  0
 36 19  1  0
 37 20  1  0
 38 22  1  0
M  END
>  <b_m_subgroup_collapsed>  (975) 
0

>  <r_i_docking_score>  (975) 
-7.0427422253477001

>  <s_m_subgroup_title>  (975) 
glide-dock_SP_D22_pv

>  <s_m_subgroupid>  (975) 
glide-dock_SP_D22_pv

>  <Molecule ChEMBL ID>  (975) 
CHEMBL5723018

>  <Standard Type>  (975) 
Ki

>  <Standard Value>  (975) 
10000.0

>  <label>  (975) 
0

$$$$
CHEMBL4250062
     RDKit          3D

 54 56  0  0  1  0  0  0  0  0999 V2000
    9.9861    0.0372  -15.3475 C   0  0  0  0  0  0  0  0  0  0  0  0
   10.2233    1.1967  -15.0474 C   0  0  0  0  0  0  0  0  0  0  0  0
   10.4854    2.5896  -14.6525 C   0  0  0  0  0  0  0  0  0  0  0  0
    9.2616    3.1923  -14.2502 O   0  0  0  0  0  0  0  0  0  0  0  0
    9.3148    4.3372  -13.4834 C   0  0  0  0  0  0  0  0  0  0  0  0
   10.4862    5.1191  -13.3256 C   0  0  0  0  0  0  0  0  0  0  0  0
   10.4850    6.2519  -12.4911 C   0  0  0  0  0  0  0  0  0  0  0  0
    9.3171    6.6157  -11.7897 C   0  0  0  0  0  0  0  0  0  0  0  0
    9.3321    7.8033  -10.8351 C   0  0  0  0  0  0  0  0  0  0  0  0
    9.2861    7.4033   -9.4012 N   0  0  0  0  0  0  0  0  0  0  0  0
   10.4423    6.5515   -8.9967 C   0  0  0  0  0  0  0  0  0  0  0  0
   10.3816    6.1327   -7.5139 C   0  0  0  0  0  0  0  0  0  0  0  0
   10.1255    7.2870   -6.6699 N   0  0  0  0  0  0  0  0  0  0  0  0
   10.9454    7.5891   -5.5613 C   0  0  0  0  0  0  0  0  0  0  0  0
   11.2824    6.5862   -4.6263 C   0  0  0  0  0  0  0  0  0  0  0  0
   12.0398    6.8670   -3.4765 C   0  0  0  0  0  0  0  0  0  0  0  0
   12.4857    8.1747   -3.2432 C   0  0  0  0  0  0  0  0  0  0  0  0
   12.1824    9.1810   -4.1761 C   0  0  0  0  0  0  0  0  0  0  0  0
   11.4397    8.8973   -5.3547 C   0  0  0  0  0  0  0  0  0  0  0  0
   11.1945    9.8300   -6.3416 O   0  0  0  0  0  0  0  0  0  0  0  0
   11.7849   11.0926   -6.1717 C   0  0  0  0  0  0  0  0  0  0  0  0
    8.9870    8.1189   -7.0305 C   0  0  0  0  0  0  0  0  0  0  0  0
    9.1114    8.5721   -8.4959 C   0  0  0  0  0  0  0  0  0  0  0  0
    8.1373    5.8674  -11.9796 C   0  0  0  0  0  0  0  0  0  0  0  0
    8.1232    4.7365  -12.8347 C   0  0  0  0  0  0  0  0  0  0  0  0
    6.9983    3.9732  -13.0712 O   0  0  0  0  0  0  0  0  0  0  0  0
    5.7599    4.4141  -12.5361 C   0  0  0  0  0  0  0  0  0  0  0  0
    9.7597   -0.9785  -15.5902 H   0  0  0  0  0  0  0  0  0  0  0  0
   11.2150    2.5601  -13.8446 H   0  0  0  0  0  0  0  0  0  0  0  0
   10.9200    3.1203  -15.5002 H   0  0  0  0  0  0  0  0  0  0  0  0
   11.4026    4.8588  -13.8333 H   0  0  0  0  0  0  0  0  0  0  0  0
   11.3924    6.8230  -12.3764 H   0  0  0  0  0  0  0  0  0  0  0  0
   10.2197    8.4101  -11.0105 H   0  0  0  0  0  0  0  0  0  0  0  0
    8.4858    8.4480  -11.0654 H   0  0  0  0  0  0  0  0  0  0  0  0
   10.4813    5.6497   -9.6082 H   0  0  0  0  0  0  0  0  0  0  0  0
   11.3654    7.1035   -9.1825 H   0  0  0  0  0  0  0  0  0  0  0  0
    9.5791    5.4099   -7.3675 H   0  0  0  0  0  0  0  0  0  0  0  0
   11.3131    5.6431   -7.2318 H   0  0  0  0  0  0  0  0  0  0  0  0
   10.8983    5.5970   -4.7558 H   0  0  0  0  0  0  0  0  0  0  0  0
   12.2557    6.0803   -2.7655 H   0  0  0  0  0  0  0  0  0  0  0  0
   13.0463    8.4093   -2.3531 H   0  0  0  0  0  0  0  0  0  0  0  0
   12.5531   10.1672   -3.9558 H   0  0  0  0  0  0  0  0  0  0  0  0
   11.6851   11.7297   -7.0467 H   0  0  0  0  0  0  0  0  0  0  0  0
   11.2864   11.5786   -5.3294 H   0  0  0  0  0  0  0  0  0  0  0  0
   12.8565   10.9739   -6.0020 H   0  0  0  0  0  0  0  0  0  0  0  0
    8.0856    7.5237   -6.9022 H   0  0  0  0  0  0  0  0  0  0  0  0
    8.8812    8.9723   -6.3630 H   0  0  0  0  0  0  0  0  0  0  0  0
    9.9643    9.2446   -8.6084 H   0  0  0  0  0  0  0  0  0  0  0  0
    8.2247    9.1407   -8.7788 H   0  0  0  0  0  0  0  0  0  0  0  0
    7.2490    6.1720  -11.4469 H   0  0  0  0  0  0  0  0  0  0  0  0
    4.9647    3.7546  -12.8834 H   0  0  0  0  0  0  0  0  0  0  0  0
    5.7657    4.3774  -11.4472 H   0  0  0  0  0  0  0  0  0  0  0  0
    5.5168    5.4254  -12.8629 H   0  0  0  0  0  0  0  0  0  0  0  0
    8.4382    6.8584   -9.2948 H   0  0  0  0  0  0  0  0  0  0  0  0
  2  1  3  0
  3  2  1  0
  4  3  1  0
  5  4  1  0
  6  5  1  0
  7  6  2  0
  8  7  1  0
  9  8  1  0
 10  9  1  0
 11 10  1  0
 12 11  1  0
 13 12  1  0
 14 13  1  0
 15 14  2  0
 16 15  1  0
 17 16  2  0
 18 17  1  0
 19 14  1  0
 19 18  2  0
 20 19  1  0
 21 20  1  0
 22 13  1  0
 23 10  1  0
 23 22  1  0
 24  8  2  0
 25  5  2  0
 25 24  1  0
 26 25  1  0
 27 26  1  0
 28  1  1  0
 29  3  1  0
 30  3  1  0
 31  6  1  0
 32  7  1  0
 33  9  1  0
 34  9  1  0
 35 11  1  0
 36 11  1  0
 37 12  1  0
 38 12  1  0
 39 15  1  0
 40 16  1  0
 41 17  1  0
 42 18  1  0
 43 21  1  0
 44 21  1  0
 45 21  1  0
 46 22  1  0
 47 22  1  0
 48 23  1  0
 49 23  1  0
 50 24  1  0
 51 27  1  0
 52 27  1  0
 53 27  1  0
 54 10  1  0
M  CHG  1  10   1
M  END
>  <b_m_subgroup_collapsed>  (976) 
0

>  <r_i_docking_score>  (976) 
-7.0406789746078298

>  <s_m_subgroup_title>  (976) 
glide-dock_SP_D22_pv

>  <s_m_subgroupid>  (976) 
glide-dock_SP_D22_pv

>  <Molecule ChEMBL ID>  (976) 
CHEMBL4250062

>  <Standard Type>  (976) 
Ki

>  <Standard Value>  (976) 
69.0

>  <label>  (976) 
1

$$$$
CHEMBL3764557
     RDKit          3D

 56 59  0  0  1  0  0  0  0  0999 V2000
    4.4978    0.2916  -13.8035 C   0  0  0  0  0  0  0  0  0  0  0  0
    4.5737   -0.4243  -15.1158 C   0  0  0  0  0  0  0  0  0  0  0  0
    3.6794   -1.4280  -15.4345 N   0  0  0  0  0  0  0  0  0  0  0  0
    4.0381   -1.8270  -16.6542 C   0  0  0  0  0  0  0  0  0  0  0  0
    5.0842   -1.1348  -17.1733 O   0  0  0  0  0  0  0  0  0  0  0  0
    5.4146   -0.2495  -16.1868 C   0  0  0  0  0  0  0  0  0  0  0  0
    6.5238    0.6525  -16.4339 C   0  0  0  0  0  0  0  0  0  0  0  0
    6.6173    1.3722  -17.5563 N   0  0  0  0  0  0  0  0  0  0  0  0
    7.7583    2.1293  -17.4250 N   0  0  0  0  0  0  0  0  0  0  0  0
    8.2749    1.7915  -16.2433 C   0  0  0  0  0  0  0  0  0  0  0  0
    9.7462    2.5235  -15.6055 S   0  0  0  0  0  0  0  0  0  0  0  0
    9.1312    3.1001  -13.9929 C   0  0  0  0  0  0  0  0  0  0  0  0
    9.2818    4.6121  -13.8150 C   0  0  0  0  0  0  0  0  0  0  0  0
    9.1026    5.0115  -12.3458 C   0  0  0  0  0  0  0  0  0  0  0  0
    9.3143    6.4306  -12.0949 N   0  0  0  0  0  0  0  0  0  0  0  0
    8.1475    7.2439  -12.4226 C   0  0  0  0  0  0  0  0  0  0  0  0
    8.3946    8.7468  -12.1531 C   0  0  0  0  0  0  0  0  0  0  0  0
    8.8860    8.9723  -10.8373 O   0  0  0  0  0  0  0  0  0  0  0  0
    9.9997    8.1613  -10.4920 C   0  0  1  0  0  0  0  0  0  0  0  0
   10.4216    8.4096   -9.0657 C   0  0  0  0  0  0  0  0  0  0  0  0
    9.4740    8.3660   -8.0235 C   0  0  0  0  0  0  0  0  0  0  0  0
    9.8788    8.5546   -6.6909 C   0  0  0  0  0  0  0  0  0  0  0  0
   11.2316    8.8101   -6.3865 C   0  0  0  0  0  0  0  0  0  0  0  0
   11.6601    8.9793   -4.9362 C   0  0  0  0  0  0  0  0  0  0  0  0
   12.9244    9.3787   -4.8362 F   0  0  0  0  0  0  0  0  0  0  0  0
   10.8884    9.8801   -4.3328 F   0  0  0  0  0  0  0  0  0  0  0  0
   11.5489    7.8155   -4.3004 F   0  0  0  0  0  0  0  0  0  0  0  0
   12.1694    8.8676   -7.4400 C   0  0  0  0  0  0  0  0  0  0  0  0
   11.7738    8.6460   -8.7687 C   0  0  0  0  0  0  0  0  0  0  0  0
    9.6444    6.6807  -10.7048 C   0  0  0  0  0  0  0  0  0  0  0  0
    7.5676    0.8387  -15.6007 N   0  0  0  0  0  0  0  0  0  0  0  0
    7.8454    0.1726  -14.3401 C   0  0  0  0  0  0  0  0  0  0  0  0
    5.0851   -0.2254  -13.0453 H   0  0  0  0  0  0  0  0  0  0  0  0
    4.8722    1.3144  -13.8722 H   0  0  0  0  0  0  0  0  0  0  0  0
    3.4671    0.3438  -13.4497 H   0  0  0  0  0  0  0  0  0  0  0  0
    3.5489   -2.6074  -17.2177 H   0  0  0  0  0  0  0  0  0  0  0  0
    8.0842    2.8400  -13.8498 H   0  0  0  0  0  0  0  0  0  0  0  0
    9.6955    2.5733  -13.2260 H   0  0  0  0  0  0  0  0  0  0  0  0
   10.2743    4.9216  -14.1418 H   0  0  0  0  0  0  0  0  0  0  0  0
    8.5653    5.1292  -14.4506 H   0  0  0  0  0  0  0  0  0  0  0  0
    8.1209    4.7049  -11.9802 H   0  0  0  0  0  0  0  0  0  0  0  0
    9.8274    4.4354  -11.7692 H   0  0  0  0  0  0  0  0  0  0  0  0
    7.8609    7.1001  -13.4587 H   0  0  0  0  0  0  0  0  0  0  0  0
    7.2886    6.9046  -11.8470 H   0  0  0  0  0  0  0  0  0  0  0  0
    9.1029    9.1565  -12.8734 H   0  0  0  0  0  0  0  0  0  0  0  0
    7.4697    9.3114  -12.2535 H   0  0  0  0  0  0  0  0  0  0  0  0
   10.8290    8.4279  -11.1502 H   0  0  0  0  0  0  0  0  0  0  0  0
    8.4378    8.1637   -8.2499 H   0  0  0  0  0  0  0  0  0  0  0  0
    9.1498    8.4810   -5.9013 H   0  0  0  0  0  0  0  0  0  0  0  0
   13.2157    9.0399   -7.2364 H   0  0  0  0  0  0  0  0  0  0  0  0
   12.5124    8.6748   -9.5572 H   0  0  0  0  0  0  0  0  0  0  0  0
    8.8042    6.4024  -10.0652 H   0  0  0  0  0  0  0  0  0  0  0  0
   10.4860    6.0578  -10.4040 H   0  0  0  0  0  0  0  0  0  0  0  0
    8.9203    0.1151  -14.1759 H   0  0  0  0  0  0  0  0  0  0  0  0
    7.3834    0.7159  -13.5192 H   0  0  0  0  0  0  0  0  0  0  0  0
    7.4390   -0.8399  -14.3568 H   0  0  0  0  0  0  0  0  0  0  0  0
  2  1  1  0
  3  2  1  0
  4  3  2  0
  5  4  1  0
  6  2  2  0
  6  5  1  0
  7  6  1  0
  8  7  2  0
  9  8  1  0
 10  9  2  0
 11 10  1  0
 12 11  1  0
 13 12  1  0
 14 13  1  0
 15 14  1  0
 16 15  1  0
 17 16  1  0
 18 17  1  0
 19 18  1  0
 20 19  1  0
 21 20  1  0
 22 21  2  0
 23 22  1  0
 24 23  1  0
 25 24  1  0
 26 24  1  0
 27 24  1  0
 28 23  2  0
 29 20  2  0
 29 28  1  0
 30 15  1  0
 30 19  1  0
 31  7  1  0
 31 10  1  0
 32 31  1  0
 33  1  1  0
 34  1  1  0
 35  1  1  0
 36  4  1  0
 37 12  1  0
 38 12  1  0
 39 13  1  0
 40 13  1  0
 41 14  1  0
 42 14  1  0
 43 16  1  0
 44 16  1  0
 45 17  1  0
 46 17  1  0
 19 47  1  6
 48 21  1  0
 49 22  1  0
 50 28  1  0
 51 29  1  0
 52 30  1  0
 53 30  1  0
 54 32  1  0
 55 32  1  0
 56 32  1  0
M  END
>  <b_m_subgroup_collapsed>  (977) 
0

>  <r_i_docking_score>  (977) 
-7.0388367309735704

>  <s_m_subgroup_title>  (977) 
glide-dock_SP_D22_pv

>  <s_m_subgroupid>  (977) 
glide-dock_SP_D22_pv

>  <Molecule ChEMBL ID>  (977) 
CHEMBL3764557

>  <Standard Type>  (977) 
Ki

>  <Standard Value>  (977) 
12589.25

>  <label>  (977) 
0

$$$$
CHEMBL383805
     RDKit          3D

 37 38  0  0  1  0  0  0  0  0999 V2000
    9.5167    4.4197  -11.7210 C   0  0  0  0  0  0  0  0  0  0  0  0
    8.6757    5.0936  -10.6306 C   0  0  0  0  0  0  0  0  0  0  0  0
    9.2467    4.9348   -9.2092 C   0  0  0  0  0  0  0  0  0  0  0  0
    8.4860    5.7610   -8.2438 N   0  0  0  0  0  0  0  0  0  0  0  0
    9.1261    6.9896   -7.7323 C   0  0  2  0  0  0  0  0  0  0  0  0
    9.7208    7.8618   -8.8579 C   0  0  0  0  0  0  0  0  0  0  0  0
   10.1782    9.2054   -8.3046 C   0  0  0  0  0  0  0  0  0  0  0  0
   10.9167    9.0480   -7.0690 N   0  0  0  0  0  0  0  0  0  0  0  0
   11.6872   10.0608   -6.6257 N   0  0  0  0  0  0  0  0  0  0  0  0
   12.1766    9.6183   -5.4844 C   0  0  0  0  0  0  0  0  0  0  0  0
   11.6419    8.3604   -5.1298 C   0  0  0  0  0  0  0  0  0  0  0  0
   11.9168    7.6868   -3.8469 C   0  0  0  0  0  0  0  0  0  0  0  0
   11.6160    6.5245   -3.6041 O   0  0  0  0  0  0  0  0  0  0  0  0
   12.4771    8.5351   -2.9637 O   0  0  0  0  0  0  0  0  0  0  0  0
   12.6182    8.1724   -1.6039 C   0  0  0  0  0  0  0  0  0  0  0  0
   10.8851    7.9698   -6.2025 C   0  0  0  0  0  0  0  0  0  0  0  0
   10.1245    6.7316   -6.5763 C   0  0  0  0  0  0  0  0  0  0  0  0
    9.0024    4.4622  -12.6823 H   0  0  0  0  0  0  0  0  0  0  0  0
    9.7042    3.3721  -11.4937 H   0  0  0  0  0  0  0  0  0  0  0  0
   10.4801    4.9112  -11.8504 H   0  0  0  0  0  0  0  0  0  0  0  0
    8.5665    6.1476  -10.8849 H   0  0  0  0  0  0  0  0  0  0  0  0
    7.6693    4.6762  -10.6529 H   0  0  0  0  0  0  0  0  0  0  0  0
    9.1574    3.8927   -8.9012 H   0  0  0  0  0  0  0  0  0  0  0  0
   10.3119    5.1621   -9.1747 H   0  0  0  0  0  0  0  0  0  0  0  0
    7.6365    6.0691   -8.7055 H   0  0  0  0  0  0  0  0  0  0  0  0
    8.3085    7.5659   -7.2950 H   0  0  0  0  0  0  0  0  0  0  0  0
   10.5728    7.3708   -9.3277 H   0  0  0  0  0  0  0  0  0  0  0  0
    8.9805    8.0384   -9.6398 H   0  0  0  0  0  0  0  0  0  0  0  0
   10.7672    9.7681   -9.0323 H   0  0  0  0  0  0  0  0  0  0  0  0
    9.2800    9.7723   -8.0712 H   0  0  0  0  0  0  0  0  0  0  0  0
   12.9114   10.1726   -4.9335 H   0  0  0  0  0  0  0  0  0  0  0  0
   13.3932    8.7806   -1.1376 H   0  0  0  0  0  0  0  0  0  0  0  0
   12.8860    7.1219   -1.4875 H   0  0  0  0  0  0  0  0  0  0  0  0
   11.6865    8.3508   -1.0699 H   0  0  0  0  0  0  0  0  0  0  0  0
    9.5965    6.3468   -5.7033 H   0  0  0  0  0  0  0  0  0  0  0  0
   10.8427    5.9648   -6.8678 H   0  0  0  0  0  0  0  0  0  0  0  0
    8.2089    5.1929   -7.4576 H   0  0  0  0  0  0  0  0  0  0  0  0
  2  1  1  0
  3  2  1  0
  4  3  1  0
  5  4  1  0
  6  5  1  0
  7  6  1  0
  8  7  1  0
  9  8  1  0
 10  9  2  0
 11 10  1  0
 12 11  1  0
 13 12  2  0
 14 12  1  0
 15 14  1  0
 16  8  1  0
 16 11  2  0
 17  5  1  0
 17 16  1  0
 18  1  1  0
 19  1  1  0
 20  1  1  0
 21  2  1  0
 22  2  1  0
 23  3  1  0
 24  3  1  0
 25  4  1  0
  5 26  1  1
 27  6  1  0
 28  6  1  0
 29  7  1  0
 30  7  1  0
 31 10  1  0
 32 15  1  0
 33 15  1  0
 34 15  1  0
 35 17  1  0
 36 17  1  0
 37  4  1  0
M  CHG  1   4   1
M  END
>  <b_m_subgroup_collapsed>  (978) 
0

>  <r_i_docking_score>  (978) 
-7.0373269216256498

>  <s_m_subgroup_title>  (978) 
glide-dock_SP_D22_pv

>  <s_m_subgroupid>  (978) 
glide-dock_SP_D22_pv

>  <Molecule ChEMBL ID>  (978) 
CHEMBL383805

>  <Standard Type>  (978) 
Ki

>  <Standard Value>  (978) 
100000.0

>  <label>  (978) 
0

$$$$
CHEMBL435505
     RDKit          3D

 45 47  0  0  1  0  0  0  0  0999 V2000
   12.0864    8.9727   -2.6360 C   0  0  0  0  0  0  0  0  0  0  0  0
   11.5545    9.6364   -3.7560 C   0  0  0  0  0  0  0  0  0  0  0  0
   11.2797    8.9266   -4.9392 C   0  0  0  0  0  0  0  0  0  0  0  0
   11.5325    7.5364   -5.0184 C   0  0  0  0  0  0  0  0  0  0  0  0
   11.2805    6.6982   -6.2764 C   0  0  0  0  0  0  0  0  0  0  0  0
   10.9186    7.4168   -7.5761 C   0  0  0  0  0  0  0  0  0  0  0  0
   11.6199    8.5708   -7.9988 C   0  0  0  0  0  0  0  0  0  0  0  0
   11.1958    9.2784   -9.1391 C   0  0  0  0  0  0  0  0  0  0  0  0
   10.0691    8.8551   -9.8482 C   0  0  0  0  0  0  0  0  0  0  0  0
    9.4110    7.6921   -9.4704 C   0  0  0  0  0  0  0  0  0  0  0  0
    9.8821    6.9037   -8.3956 C   0  0  0  0  0  0  0  0  0  0  0  0
    9.4084    5.6295   -8.1573 O   0  0  0  0  0  0  0  0  0  0  0  0
    8.4859    5.0832   -9.0938 C   0  0  0  0  0  0  0  0  0  0  0  0
    9.0853    4.8087  -10.5018 C   0  0  0  0  0  0  0  0  0  0  0  0
    8.0465    4.5180  -11.5200 N   0  0  0  0  0  0  0  0  0  0  0  0
    7.0517    5.5620  -11.8270 C   0  0  0  0  0  0  0  0  0  0  0  0
    6.3043    4.9671  -13.0056 C   0  0  0  0  0  0  0  0  0  0  0  0
    7.4189    4.3164  -13.8373 C   0  0  0  0  0  0  0  0  0  0  0  0
    8.5671    4.0881  -12.8374 C   0  0  0  0  0  0  0  0  0  0  0  0
   12.0193    6.8748   -3.8689 C   0  0  0  0  0  0  0  0  0  0  0  0
   12.3014    7.5849   -2.6876 C   0  0  0  0  0  0  0  0  0  0  0  0
   12.2948    9.5208   -1.7286 H   0  0  0  0  0  0  0  0  0  0  0  0
   11.3250   10.6883   -3.6994 H   0  0  0  0  0  0  0  0  0  0  0  0
   10.8453    9.4705   -5.7632 H   0  0  0  0  0  0  0  0  0  0  0  0
   12.1381    6.0546   -6.4684 H   0  0  0  0  0  0  0  0  0  0  0  0
   10.4597    6.0358   -6.0105 H   0  0  0  0  0  0  0  0  0  0  0  0
   12.4667    8.9362   -7.4366 H   0  0  0  0  0  0  0  0  0  0  0  0
   11.6858   10.1723   -9.4735 H   0  0  0  0  0  0  0  0  0  0  0  0
    9.7129    9.3722  -10.7190 H   0  0  0  0  0  0  0  0  0  0  0  0
    8.5695    7.4122  -10.0816 H   0  0  0  0  0  0  0  0  0  0  0  0
    8.0862    4.1583   -8.6779 H   0  0  0  0  0  0  0  0  0  0  0  0
    7.6514    5.7718   -9.1392 H   0  0  0  0  0  0  0  0  0  0  0  0
    9.7041    5.6214  -10.8751 H   0  0  0  0  0  0  0  0  0  0  0  0
    9.7574    3.9533  -10.4315 H   0  0  0  0  0  0  0  0  0  0  0  0
    6.3539    5.7721  -11.0276 H   0  0  0  0  0  0  0  0  0  0  0  0
    7.5452    6.4953  -12.1044 H   0  0  0  0  0  0  0  0  0  0  0  0
    5.6235    4.1949  -12.6422 H   0  0  0  0  0  0  0  0  0  0  0  0
    5.6873    5.7049  -13.5111 H   0  0  0  0  0  0  0  0  0  0  0  0
    7.0762    3.3856  -14.2928 H   0  0  0  0  0  0  0  0  0  0  0  0
    7.7557    4.9725  -14.6415 H   0  0  0  0  0  0  0  0  0  0  0  0
    9.4184    4.7118  -13.1136 H   0  0  0  0  0  0  0  0  0  0  0  0
    8.9156    3.0563  -12.8268 H   0  0  0  0  0  0  0  0  0  0  0  0
   12.1729    5.8045   -3.8901 H   0  0  0  0  0  0  0  0  0  0  0  0
   12.6766    7.0618   -1.8213 H   0  0  0  0  0  0  0  0  0  0  0  0
    7.5062    3.7430  -11.1607 H   0  0  0  0  0  0  0  0  0  0  0  0
  2  1  2  0
  3  2  1  0
  4  3  2  0
  5  4  1  0
  6  5  1  0
  7  6  2  0
  8  7  1  0
  9  8  2  0
 10  9  1  0
 11  6  1  0
 11 10  2  0
 12 11  1  0
 13 12  1  0
 14 13  1  0
 15 14  1  0
 16 15  1  0
 17 16  1  0
 18 17  1  0
 19 15  1  0
 19 18  1  0
 20  4  1  0
 21  1  1  0
 21 20  2  0
 22  1  1  0
 23  2  1  0
 24  3  1  0
 25  5  1  0
 26  5  1  0
 27  7  1  0
 28  8  1  0
 29  9  1  0
 30 10  1  0
 31 13  1  0
 32 13  1  0
 33 14  1  0
 34 14  1  0
 35 16  1  0
 36 16  1  0
 37 17  1  0
 38 17  1  0
 39 18  1  0
 40 18  1  0
 41 19  1  0
 42 19  1  0
 43 20  1  0
 44 21  1  0
 45 15  1  0
M  CHG  1  15   1
M  END
>  <b_m_subgroup_collapsed>  (979) 
0

>  <r_i_docking_score>  (979) 
-7.0353838182820301

>  <s_m_subgroup_title>  (979) 
glide-dock_SP_D22_pv

>  <s_m_subgroupid>  (979) 
glide-dock_SP_D22_pv

>  <Molecule ChEMBL ID>  (979) 
CHEMBL435505

>  <Standard Type>  (979) 
Ki

>  <Standard Value>  (979) 
10000.0

>  <label>  (979) 
0

$$$$
CHEMBL299879
     RDKit          3D

 67 70  0  0  1  0  0  0  0  0999 V2000
    6.6407    1.3722  -18.7715 O   0  0  0  0  0  0  0  0  0  0  0  0
    7.0677    0.3357  -18.2733 N   0  0  0  0  0  0  0  0  0  0  0  0
    6.4056   -0.6774  -18.0817 O   0  0  0  0  0  0  0  0  0  0  0  0
    8.4976    0.2807  -17.9584 C   0  0  0  0  0  0  0  0  0  0  0  0
    9.3970   -0.1094  -18.9740 C   0  0  0  0  0  0  0  0  0  0  0  0
   10.7802   -0.1551  -18.7230 C   0  0  0  0  0  0  0  0  0  0  0  0
   11.2719    0.1873  -17.4494 C   0  0  0  0  0  0  0  0  0  0  0  0
   10.3824    0.5491  -16.4197 C   0  0  0  0  0  0  0  0  0  0  0  0
    8.9937    0.6122  -16.6729 C   0  0  0  0  0  0  0  0  0  0  0  0
    7.8662    1.1651  -15.3788 S   0  0  0  0  0  0  0  0  0  0  0  0
    6.9470    2.1644  -15.9417 O   0  0  0  0  0  0  0  0  0  0  0  0
    7.3451   -0.0227  -14.6892 O   0  0  0  0  0  0  0  0  0  0  0  0
    8.8688    1.9895  -14.2444 N   0  0  0  0  0  0  0  0  0  0  0  0
    9.4846    3.2788  -14.5540 C   0  0  0  0  0  0  0  0  0  0  0  0
    9.5119    4.2124  -13.3229 C   0  0  1  0  0  0  0  0  0  0  0  0
   10.4126    5.4186  -13.6461 C   0  0  0  0  0  0  0  0  0  0  0  0
   10.3909    6.5206  -12.5697 C   0  0  0  0  0  0  0  0  0  0  0  0
    8.9708    6.9627  -12.1804 C   0  0  2  0  0  0  0  0  0  0  0  0
    9.0123    8.1192  -11.1621 C   0  0  0  0  0  0  0  0  0  0  0  0
    9.2856    7.6393   -9.7958 N   0  0  0  0  0  0  0  0  0  0  0  0
    9.5096    8.7010   -8.7942 C   0  0  0  0  0  0  0  0  0  0  0  0
   10.4550    8.2337   -7.6699 C   0  0  2  0  0  0  0  0  0  0  0  0
    9.9630    6.9562   -6.9783 C   0  0  0  0  0  0  0  0  0  0  0  0
   10.9745    6.4809   -5.9362 C   0  0  0  0  0  0  0  0  0  0  0  0
   11.4142    7.5436   -4.9735 C   0  0  0  0  0  0  0  0  0  0  0  0
   11.9567    7.1528   -3.7297 C   0  0  0  0  0  0  0  0  0  0  0  0
   12.2731    8.1230   -2.7656 C   0  0  0  0  0  0  0  0  0  0  0  0
   12.0330    9.4761   -3.0476 C   0  0  0  0  0  0  0  0  0  0  0  0
   11.4969    9.8597   -4.2930 C   0  0  0  0  0  0  0  0  0  0  0  0
   11.2214    8.9032   -5.2820 C   0  0  0  0  0  0  0  0  0  0  0  0
   10.6608    9.3502   -6.6259 C   0  0  0  0  0  0  0  0  0  0  0  0
    8.1244    5.7330  -11.7816 C   0  0  0  0  0  0  0  0  0  0  0  0
    8.0966    4.6883  -12.9166 C   0  0  0  0  0  0  0  0  0  0  0  0
    9.0201   -0.3686  -19.9541 H   0  0  0  0  0  0  0  0  0  0  0  0
   11.4624   -0.4449  -19.5090 H   0  0  0  0  0  0  0  0  0  0  0  0
   12.3351    0.1587  -17.2602 H   0  0  0  0  0  0  0  0  0  0  0  0
   10.7843    0.7818  -15.4480 H   0  0  0  0  0  0  0  0  0  0  0  0
    9.4206    1.3749  -13.6411 H   0  0  0  0  0  0  0  0  0  0  0  0
   10.4981    3.0986  -14.9143 H   0  0  0  0  0  0  0  0  0  0  0  0
    8.9446    3.7559  -15.3721 H   0  0  0  0  0  0  0  0  0  0  0  0
    9.9512    3.6784  -12.4782 H   0  0  0  0  0  0  0  0  0  0  0  0
   11.4405    5.0808  -13.7875 H   0  0  0  0  0  0  0  0  0  0  0  0
   10.1055    5.8266  -14.6072 H   0  0  0  0  0  0  0  0  0  0  0  0
   10.9698    7.3753  -12.9235 H   0  0  0  0  0  0  0  0  0  0  0  0
   10.8862    6.1723  -11.6701 H   0  0  0  0  0  0  0  0  0  0  0  0
    8.4834    7.3897  -13.0473 H   0  0  0  0  0  0  0  0  0  0  0  0
    9.7846    8.8307  -11.4587 H   0  0  0  0  0  0  0  0  0  0  0  0
    8.0859    8.6891  -11.1802 H   0  0  0  0  0  0  0  0  0  0  0  0
    8.4609    7.1175   -9.5105 H   0  0  0  0  0  0  0  0  0  0  0  0
    9.9532    9.5731   -9.2775 H   0  0  0  0  0  0  0  0  0  0  0  0
    8.5434    9.0162   -8.3955 H   0  0  0  0  0  0  0  0  0  0  0  0
   11.4263    8.0054   -8.1099 H   0  0  0  0  0  0  0  0  0  0  0  0
    9.0042    7.1555   -6.4947 H   0  0  0  0  0  0  0  0  0  0  0  0
    9.7858    6.1469   -7.6873 H   0  0  0  0  0  0  0  0  0  0  0  0
   11.8430    6.0055   -6.3946 H   0  0  0  0  0  0  0  0  0  0  0  0
   10.4815    5.7722   -5.2952 H   0  0  0  0  0  0  0  0  0  0  0  0
   12.0985    6.1061   -3.5019 H   0  0  0  0  0  0  0  0  0  0  0  0
   12.6679    7.8327   -1.8036 H   0  0  0  0  0  0  0  0  0  0  0  0
   12.2399   10.2164   -2.2916 H   0  0  0  0  0  0  0  0  0  0  0  0
   11.2858   10.9008   -4.4900 H   0  0  0  0  0  0  0  0  0  0  0  0
   11.2769   10.1549   -7.0326 H   0  0  0  0  0  0  0  0  0  0  0  0
    9.6887    9.7711   -6.4015 H   0  0  0  0  0  0  0  0  0  0  0  0
    7.1061    6.0406  -11.5415 H   0  0  0  0  0  0  0  0  0  0  0  0
    8.5221    5.2655  -10.8796 H   0  0  0  0  0  0  0  0  0  0  0  0
    7.5915    5.1140  -13.7847 H   0  0  0  0  0  0  0  0  0  0  0  0
    7.4929    3.8331  -12.6091 H   0  0  0  0  0  0  0  0  0  0  0  0
   10.0852    7.0252   -9.8220 H   0  0  0  0  0  0  0  0  0  0  0  0
  2  1  2  0
  3  2  1  0
  4  2  1  0
  5  4  2  0
  6  5  1  0
  7  6  2  0
  8  7  1  0
  9  4  1  0
  9  8  2  0
 10  9  1  0
 11 10  2  0
 12 10  2  0
 13 10  1  0
 14 13  1  0
 15 14  1  0
 16 15  1  0
 17 16  1  0
 18 17  1  0
 19 18  1  0
 20 19  1  0
 21 20  1  0
 22 21  1  0
 23 22  1  0
 24 23  1  0
 25 24  1  0
 26 25  2  0
 27 26  1  0
 28 27  2  0
 29 28  1  0
 30 25  1  0
 30 29  2  0
 31 22  1  0
 31 30  1  0
 32 18  1  0
 33 15  1  0
 33 32  1  0
 34  5  1  0
 35  6  1  0
 36  7  1  0
 37  8  1  0
 38 13  1  0
 39 14  1  0
 40 14  1  0
 15 41  1  1
 42 16  1  0
 43 16  1  0
 44 17  1  0
 45 17  1  0
 18 46  1  6
 47 19  1  0
 48 19  1  0
 49 20  1  0
 50 21  1  0
 51 21  1  0
 22 52  1  6
 53 23  1  0
 54 23  1  0
 55 24  1  0
 56 24  1  0
 57 26  1  0
 58 27  1  0
 59 28  1  0
 60 29  1  0
 61 31  1  0
 62 31  1  0
 63 32  1  0
 64 32  1  0
 65 33  1  0
 66 33  1  0
 67 20  1  0
M  CHG  3   2   1   3  -1  20   1
M  END
>  <b_m_subgroup_collapsed>  (980) 
0

>  <r_i_docking_score>  (980) 
-7.0352809786662096

>  <s_m_subgroup_title>  (980) 
glide-dock_SP_D22_pv

>  <s_m_subgroupid>  (980) 
glide-dock_SP_D22_pv

>  <Molecule ChEMBL ID>  (980) 
CHEMBL299879

>  <Standard Type>  (980) 
Ki

>  <Standard Value>  (980) 
63.0

>  <label>  (980) 
1

$$$$
CHEMBL5175009
     RDKit          3D

 55 58  0  0  1  0  0  0  0  0999 V2000
   10.2962    3.8249  -14.0265 O   0  0  0  0  0  0  0  0  0  0  0  0
   10.6328    4.3249  -15.1023 C   0  0  0  0  0  0  0  0  0  0  0  0
   10.0616    3.7292  -16.3920 C   0  0  0  0  0  0  0  0  0  0  0  0
    9.7616    4.8048  -17.4363 C   0  0  0  0  0  0  0  0  0  0  0  0
   10.9121    5.7737  -17.5809 C   0  0  0  0  0  0  0  0  0  0  0  0
   11.1148    6.4357  -18.8086 C   0  0  0  0  0  0  0  0  0  0  0  0
   12.1548    7.3715  -18.9420 C   0  0  0  0  0  0  0  0  0  0  0  0
   12.9844    7.6546  -17.8434 C   0  0  0  0  0  0  0  0  0  0  0  0
   12.7812    6.9945  -16.6167 C   0  0  0  0  0  0  0  0  0  0  0  0
   11.7464    6.0348  -16.4625 C   0  0  0  0  0  0  0  0  0  0  0  0
   11.5175    5.3512  -15.2093 N   0  0  0  0  0  0  0  0  0  0  0  0
   12.3374    5.6810  -14.0315 C   0  0  0  0  0  0  0  0  0  0  0  0
   11.9182    6.9700  -13.2970 C   0  0  0  0  0  0  0  0  0  0  0  0
   10.7542    6.7469  -12.3004 C   0  0  0  0  0  0  0  0  0  0  0  0
   10.5721    7.7645  -11.2500 N   0  0  0  0  0  0  0  0  0  0  0  0
   11.8027    8.0919  -10.5155 C   0  0  0  0  0  0  0  0  0  0  0  0
   11.5508    9.1622   -9.4354 C   0  0  0  0  0  0  0  0  0  0  0  0
   10.5076    8.7342   -8.5180 N   0  0  0  0  0  0  0  0  0  0  0  0
   10.8571    8.4669   -7.1814 C   0  0  0  0  0  0  0  0  0  0  0  0
   10.6069    7.2176   -6.5737 C   0  0  0  0  0  0  0  0  0  0  0  0
   11.0317    6.9725   -5.2492 C   0  0  0  0  0  0  0  0  0  0  0  0
   11.6858    7.9765   -4.4961 C   0  0  0  0  0  0  0  0  0  0  0  0
   12.1150    7.7234   -3.1050 N   0  0  0  0  0  0  0  0  0  0  0  0
   12.0861    6.5718   -2.6858 O   0  0  0  0  0  0  0  0  0  0  0  0
   12.4854    8.6780   -2.4296 O   0  0  0  0  0  0  0  0  0  0  0  0
   11.9025    9.2349   -5.0977 C   0  0  0  0  0  0  0  0  0  0  0  0
   11.5009    9.4711   -6.4262 C   0  0  0  0  0  0  0  0  0  0  0  0
    9.2868    8.2406   -9.1469 C   0  0  0  0  0  0  0  0  0  0  0  0
    9.6038    7.2306  -10.2750 C   0  0  0  0  0  0  0  0  0  0  0  0
   10.8036    3.0353  -16.7871 H   0  0  0  0  0  0  0  0  0  0  0  0
    9.1677    3.1435  -16.1768 H   0  0  0  0  0  0  0  0  0  0  0  0
    8.8853    5.3733  -17.1402 H   0  0  0  0  0  0  0  0  0  0  0  0
    9.5352    4.3406  -18.3958 H   0  0  0  0  0  0  0  0  0  0  0  0
   10.4668    6.2352  -19.6500 H   0  0  0  0  0  0  0  0  0  0  0  0
   12.3057    7.8853  -19.8789 H   0  0  0  0  0  0  0  0  0  0  0  0
   13.7714    8.3891  -17.9402 H   0  0  0  0  0  0  0  0  0  0  0  0
   13.4373    7.2672  -15.8060 H   0  0  0  0  0  0  0  0  0  0  0  0
   12.3933    4.8556  -13.3195 H   0  0  0  0  0  0  0  0  0  0  0  0
   13.3672    5.7612  -14.3615 H   0  0  0  0  0  0  0  0  0  0  0  0
   12.8202    7.2846  -12.7775 H   0  0  0  0  0  0  0  0  0  0  0  0
   11.6873    7.7712  -13.9985 H   0  0  0  0  0  0  0  0  0  0  0  0
    9.8216    6.6560  -12.8565 H   0  0  0  0  0  0  0  0  0  0  0  0
   10.8854    5.7723  -11.8463 H   0  0  0  0  0  0  0  0  0  0  0  0
   12.2254    7.1915  -10.0698 H   0  0  0  0  0  0  0  0  0  0  0  0
   12.5533    8.5087  -11.1827 H   0  0  0  0  0  0  0  0  0  0  0  0
   12.4852    9.3363   -8.9017 H   0  0  0  0  0  0  0  0  0  0  0  0
   11.2693   10.1151   -9.8805 H   0  0  0  0  0  0  0  0  0  0  0  0
   10.1121    6.4320   -7.1261 H   0  0  0  0  0  0  0  0  0  0  0  0
   10.8437    6.0032   -4.8119 H   0  0  0  0  0  0  0  0  0  0  0  0
   12.3920   10.0243   -4.5492 H   0  0  0  0  0  0  0  0  0  0  0  0
   11.6836   10.4397   -6.8675 H   0  0  0  0  0  0  0  0  0  0  0  0
    8.6238    7.7874   -8.4081 H   0  0  0  0  0  0  0  0  0  0  0  0
    8.7442    9.0917   -9.5618 H   0  0  0  0  0  0  0  0  0  0  0  0
    8.6751    6.9707  -10.7857 H   0  0  0  0  0  0  0  0  0  0  0  0
    9.9890    6.3085   -9.8357 H   0  0  0  0  0  0  0  0  0  0  0  0
  2  1  2  0
  3  2  1  0
  4  3  1  0
  5  4  1  0
  6  5  2  0
  7  6  1  0
  8  7  2  0
  9  8  1  0
 10  5  1  0
 10  9  2  0
 11  2  1  0
 11 10  1  0
 12 11  1  0
 13 12  1  0
 14 13  1  0
 15 14  1  0
 16 15  1  0
 17 16  1  0
 18 17  1  0
 19 18  1  0
 20 19  1  0
 21 20  2  0
 22 21  1  0
 23 22  1  0
 24 23  2  0
 25 23  1  0
 26 22  2  0
 27 19  2  0
 27 26  1  0
 28 18  1  0
 29 15  1  0
 29 28  1  0
 30  3  1  0
 31  3  1  0
 32  4  1  0
 33  4  1  0
 34  6  1  0
 35  7  1  0
 36  8  1  0
 37  9  1  0
 38 12  1  0
 39 12  1  0
 40 13  1  0
 41 13  1  0
 42 14  1  0
 43 14  1  0
 44 16  1  0
 45 16  1  0
 46 17  1  0
 47 17  1  0
 48 20  1  0
 49 21  1  0
 50 26  1  0
 51 27  1  0
 52 28  1  0
 53 28  1  0
 54 29  1  0
 55 29  1  0
M  CHG  2  23   1  25  -1
M  END
>  <b_m_subgroup_collapsed>  (981) 
0

>  <r_i_docking_score>  (981) 
-7.0311043404520701

>  <s_m_subgroup_title>  (981) 
glide-dock_SP_D22_pv

>  <s_m_subgroupid>  (981) 
glide-dock_SP_D22_pv

>  <Molecule ChEMBL ID>  (981) 
CHEMBL5175009

>  <Standard Type>  (981) 
Ki

>  <Standard Value>  (981) 
23988.33

>  <label>  (981) 
0

$$$$
CHEMBL3978288
     RDKit          3D

 70 73  0  0  1  0  0  0  0  0999 V2000
    9.2374    0.7883  -19.8173 C   0  0  0  0  0  0  0  0  0  0  0  0
   10.4423    0.6081  -18.8735 C   0  0  0  0  0  0  0  0  0  0  0  0
   10.7857   -0.8438  -18.4987 C   0  0  0  0  0  0  0  0  0  0  0  0
   10.4451    1.5015  -17.7597 O   0  0  0  0  0  0  0  0  0  0  0  0
    9.4736    1.5012  -16.7754 C   0  0  0  0  0  0  0  0  0  0  0  0
    8.4255    0.5494  -16.6759 C   0  0  0  0  0  0  0  0  0  0  0  0
    7.4951    0.6035  -15.6231 C   0  0  0  0  0  0  0  0  0  0  0  0
    7.5953    1.6085  -14.6471 C   0  0  0  0  0  0  0  0  0  0  0  0
    8.6320    2.5544  -14.7250 C   0  0  0  0  0  0  0  0  0  0  0  0
    9.5638    2.5133  -15.7834 C   0  0  0  0  0  0  0  0  0  0  0  0
   10.5813    3.4822  -15.8066 N   0  0  0  0  0  0  0  0  0  0  0  0
   10.7027    4.3528  -16.9701 C   0  0  0  0  0  0  0  0  0  0  0  0
   11.5820    5.5854  -16.7002 C   0  0  0  0  0  0  0  0  0  0  0  0
   11.2862    6.2689  -15.3555 C   0  0  0  0  0  0  0  0  0  0  0  0
   12.0925    5.7181  -14.2404 N   0  0  1  0  0  0  0  0  0  0  0  0
   12.2811    6.6670  -13.1066 C   0  0  0  0  0  0  0  0  0  0  0  0
   10.9932    7.1517  -12.4146 C   0  0  0  0  0  0  0  0  0  0  0  0
   11.2716    7.8661  -11.0895 C   0  0  0  0  0  0  0  0  0  0  0  0
   10.0013    8.5381  -10.5193 C   0  0  0  0  0  0  0  0  0  0  0  0
   10.2961    9.2831   -9.3384 O   0  0  0  0  0  0  0  0  0  0  0  0
   10.5205    8.5825   -8.1728 C   0  0  0  0  0  0  0  0  0  0  0  0
   10.4055    7.1805   -8.0775 C   0  0  0  0  0  0  0  0  0  0  0  0
   10.7213    6.5709   -6.8678 C   0  0  0  0  0  0  0  0  0  0  0  0
   11.1085    7.3551   -5.7763 C   0  0  0  0  0  0  0  0  0  0  0  0
   11.1624    8.7585   -5.9323 C   0  0  0  0  0  0  0  0  0  0  0  0
   10.8850    9.3505   -7.1169 N   0  0  0  0  0  0  0  0  0  0  0  0
   11.4853    9.5411   -4.7992 N   0  0  0  0  0  0  0  0  0  0  0  0
   11.9403    9.0588   -3.6310 C   0  0  0  0  0  0  0  0  0  0  0  0
   12.0861    9.7722   -2.6471 O   0  0  0  0  0  0  0  0  0  0  0  0
   12.2920    7.5728   -3.5414 C   0  0  0  0  0  0  0  0  0  0  0  0
   11.4213    6.6959   -4.4493 C   0  0  0  0  0  0  0  0  0  0  0  0
   11.6986    4.3613  -13.7811 C   0  0  0  0  0  0  0  0  0  0  0  0
   11.6876    3.2884  -14.8833 C   0  0  0  0  0  0  0  0  0  0  0  0
    9.3858    0.2273  -20.7399 H   0  0  0  0  0  0  0  0  0  0  0  0
    8.2915    0.4558  -19.3944 H   0  0  0  0  0  0  0  0  0  0  0  0
    9.1228    1.8377  -20.0909 H   0  0  0  0  0  0  0  0  0  0  0  0
   11.3003    0.9512  -19.4534 H   0  0  0  0  0  0  0  0  0  0  0  0
   10.9392   -1.4273  -19.4050 H   0  0  0  0  0  0  0  0  0  0  0  0
   11.7102   -0.8828  -17.9209 H   0  0  0  0  0  0  0  0  0  0  0  0
   10.0165   -1.3472  -17.9167 H   0  0  0  0  0  0  0  0  0  0  0  0
    8.3042   -0.2492  -17.3861 H   0  0  0  0  0  0  0  0  0  0  0  0
    6.7091   -0.1348  -15.5608 H   0  0  0  0  0  0  0  0  0  0  0  0
    6.8808    1.6506  -13.8395 H   0  0  0  0  0  0  0  0  0  0  0  0
    8.7031    3.3206  -13.9676 H   0  0  0  0  0  0  0  0  0  0  0  0
   11.1064    3.8037  -17.8202 H   0  0  0  0  0  0  0  0  0  0  0  0
    9.7013    4.6775  -17.2570 H   0  0  0  0  0  0  0  0  0  0  0  0
   12.6392    5.3250  -16.7653 H   0  0  0  0  0  0  0  0  0  0  0  0
   11.4073    6.2976  -17.5072 H   0  0  0  0  0  0  0  0  0  0  0  0
   10.2289    6.1723  -15.1177 H   0  0  0  0  0  0  0  0  0  0  0  0
   11.5151    7.3307  -15.4568 H   0  0  0  0  0  0  0  0  0  0  0  0
   12.8661    7.5232  -13.4460 H   0  0  0  0  0  0  0  0  0  0  0  0
   12.8860    6.1730  -12.3561 H   0  0  0  0  0  0  0  0  0  0  0  0
   10.2984    6.3323  -12.2352 H   0  0  0  0  0  0  0  0  0  0  0  0
   10.4861    7.8657  -13.0469 H   0  0  0  0  0  0  0  0  0  0  0  0
   12.0475    8.6157  -11.2303 H   0  0  0  0  0  0  0  0  0  0  0  0
   11.6950    7.1523  -10.3850 H   0  0  0  0  0  0  0  0  0  0  0  0
    9.1965    7.8199  -10.3533 H   0  0  0  0  0  0  0  0  0  0  0  0
    9.5897    9.2241  -11.2571 H   0  0  0  0  0  0  0  0  0  0  0  0
   10.0960    6.5478   -8.8942 H   0  0  0  0  0  0  0  0  0  0  0  0
   10.6635    5.5021   -6.7997 H   0  0  0  0  0  0  0  0  0  0  0  0
   11.3356   10.5345   -4.8762 H   0  0  0  0  0  0  0  0  0  0  0  0
   12.2402    7.2272   -2.5078 H   0  0  0  0  0  0  0  0  0  0  0  0
   13.3318    7.4781   -3.8455 H   0  0  0  0  0  0  0  0  0  0  0  0
   10.4903    6.4074   -3.9636 H   0  0  0  0  0  0  0  0  0  0  0  0
   11.9593    5.7722   -4.6461 H   0  0  0  0  0  0  0  0  0  0  0  0
   12.4442    4.0687  -13.0471 H   0  0  0  0  0  0  0  0  0  0  0  0
   10.7369    4.3819  -13.2688 H   0  0  0  0  0  0  0  0  0  0  0  0
   12.6273    3.2920  -15.4359 H   0  0  0  0  0  0  0  0  0  0  0  0
   11.6098    2.3014  -14.4227 H   0  0  0  0  0  0  0  0  0  0  0  0
   13.0228    5.6052  -14.6189 H   0  0  0  0  0  0  0  0  0  0  0  0
  2  1  1  0
  3  2  1  0
  4  2  1  0
  5  4  1  0
  6  5  2  0
  7  6  1  0
  8  7  2  0
  9  8  1  0
 10  5  1  0
 10  9  2  0
 11 10  1  0
 12 11  1  0
 13 12  1  0
 14 13  1  0
 15 14  1  0
 16 15  1  0
 17 16  1  0
 18 17  1  0
 19 18  1  0
 20 19  1  0
 21 20  1  0
 22 21  1  0
 23 22  2  0
 24 23  1  0
 25 24  2  0
 26 21  2  0
 26 25  1  0
 27 25  1  0
 28 27  1  0
 29 28  2  0
 30 28  1  0
 31 24  1  0
 31 30  1  0
 32 15  1  0
 33 11  1  0
 33 32  1  0
 34  1  1  0
 35  1  1  0
 36  1  1  0
 37  2  1  0
 38  3  1  0
 39  3  1  0
 40  3  1  0
 41  6  1  0
 42  7  1  0
 43  8  1  0
 44  9  1  0
 45 12  1  0
 46 12  1  0
 47 13  1  0
 48 13  1  0
 49 14  1  0
 50 14  1  0
 51 16  1  0
 52 16  1  0
 53 17  1  0
 54 17  1  0
 55 18  1  0
 56 18  1  0
 57 19  1  0
 58 19  1  0
 59 22  1  0
 60 23  1  0
 61 27  1  0
 62 30  1  0
 63 30  1  0
 64 31  1  0
 65 31  1  0
 66 32  1  0
 67 32  1  0
 68 33  1  0
 69 33  1  0
 15 70  1  6
M  CHG  1  15   1
M  END
>  <b_m_subgroup_collapsed>  (982) 
0

>  <r_i_docking_score>  (982) 
-7.0310773871784402

>  <s_m_subgroup_title>  (982) 
glide-dock_SP_D22_pv

>  <s_m_subgroupid>  (982) 
glide-dock_SP_D22_pv

>  <Molecule ChEMBL ID>  (982) 
CHEMBL3978288

>  <Standard Type>  (982) 
Ki

>  <Standard Value>  (982) 
1.29

>  <label>  (982) 
1

$$$$
CHEMBL100454
     RDKit          3D

 44 47  0  0  1  0  0  0  0  0999 V2000
    9.0474    7.4459   -6.7786 C   0  0  0  0  0  0  0  0  0  0  0  0
    8.8863    7.2118   -8.2236 N   0  0  0  0  0  0  0  0  0  0  0  0
    9.1242    5.8042   -8.5973 C   0  0  0  0  0  0  0  0  0  0  0  0
    8.7540    5.5979  -10.0636 C   0  0  0  0  0  0  0  0  0  0  0  0
    9.4801    6.5149  -10.9429 N   0  0  0  0  0  0  0  0  0  0  0  0
    9.9603    6.1396  -12.1966 C   0  0  0  0  0  0  0  0  0  0  0  0
   11.0797    6.6085  -12.6554 N   0  0  0  0  0  0  0  0  0  0  0  0
   11.7270    6.2516  -13.8564 C   0  0  0  0  0  0  0  0  0  0  0  0
   12.4882    7.2842  -14.4476 C   0  0  0  0  0  0  0  0  0  0  0  0
   13.2790    7.0581  -15.5899 C   0  0  0  0  0  0  0  0  0  0  0  0
   13.3380    5.7756  -16.1563 C   0  0  0  0  0  0  0  0  0  0  0  0
   12.5852    4.7326  -15.5911 C   0  0  0  0  0  0  0  0  0  0  0  0
   11.7709    4.9588  -14.4619 C   0  0  0  0  0  0  0  0  0  0  0  0
   10.9919    3.8865  -14.0318 N   0  0  0  0  0  0  0  0  0  0  0  0
    9.6769    4.0771  -13.6689 C   0  0  0  0  0  0  0  0  0  0  0  0
    8.4328    3.0076  -14.2467 S   0  0  0  0  0  0  0  0  0  0  0  0
    7.1988    3.9734  -13.4767 C   0  0  0  0  0  0  0  0  0  0  0  0
    5.7646    3.5758  -13.5230 C   0  0  0  0  0  0  0  0  0  0  0  0
    5.3014    3.1268  -12.2688 O   0  0  0  0  0  0  0  0  0  0  0  0
    7.7396    5.0728  -12.8624 C   0  0  0  0  0  0  0  0  0  0  0  0
    9.1699    5.1015  -12.9222 C   0  0  0  0  0  0  0  0  0  0  0  0
    9.4442    7.9282  -10.5590 C   0  0  0  0  0  0  0  0  0  0  0  0
    9.6803    8.1484   -9.0532 C   0  0  0  0  0  0  0  0  0  0  0  0
   10.0863    7.3462   -6.4681 H   0  0  0  0  0  0  0  0  0  0  0  0
    8.6849    8.4367   -6.5048 H   0  0  0  0  0  0  0  0  0  0  0  0
    8.4585    6.7053   -6.2469 H   0  0  0  0  0  0  0  0  0  0  0  0
    8.5133    5.1444   -7.9800 H   0  0  0  0  0  0  0  0  0  0  0  0
   10.1680    5.5372   -8.4239 H   0  0  0  0  0  0  0  0  0  0  0  0
    7.6843    5.7705  -10.1851 H   0  0  0  0  0  0  0  0  0  0  0  0
    8.9486    4.5592  -10.3357 H   0  0  0  0  0  0  0  0  0  0  0  0
   12.4858    8.2699  -14.0084 H   0  0  0  0  0  0  0  0  0  0  0  0
   13.8469    7.8683  -16.0227 H   0  0  0  0  0  0  0  0  0  0  0  0
   13.9502    5.5907  -17.0267 H   0  0  0  0  0  0  0  0  0  0  0  0
   12.6269    3.7524  -16.0435 H   0  0  0  0  0  0  0  0  0  0  0  0
   11.1584    3.0232  -14.5292 H   0  0  0  0  0  0  0  0  0  0  0  0
    5.6327    2.7714  -14.2460 H   0  0  0  0  0  0  0  0  0  0  0  0
    5.1494    4.4116  -13.8559 H   0  0  0  0  0  0  0  0  0  0  0  0
    5.4088    3.8254  -11.6375 H   0  0  0  0  0  0  0  0  0  0  0  0
    7.1597    5.8215  -12.3416 H   0  0  0  0  0  0  0  0  0  0  0  0
   10.1832    8.5034  -11.1182 H   0  0  0  0  0  0  0  0  0  0  0  0
    8.4799    8.3357  -10.8490 H   0  0  0  0  0  0  0  0  0  0  0  0
    9.4337    9.1786   -8.7908 H   0  0  0  0  0  0  0  0  0  0  0  0
   10.7392    8.0062   -8.8299 H   0  0  0  0  0  0  0  0  0  0  0  0
    7.8996    7.3751   -8.4248 H   0  0  0  0  0  0  0  0  0  0  0  0
  2  1  1  0
  3  2  1  0
  4  3  1  0
  5  4  1  0
  6  5  1  0
  7  6  2  0
  8  7  1  0
  9  8  2  0
 10  9  1  0
 11 10  2  0
 12 11  1  0
 13  8  1  0
 13 12  2  0
 14 13  1  0
 15 14  1  0
 16 15  1  0
 17 16  1  0
 18 17  1  0
 19 18  1  0
 20 17  2  0
 21  6  1  0
 21 15  2  0
 21 20  1  0
 22  5  1  0
 23  2  1  0
 23 22  1  0
 24  1  1  0
 25  1  1  0
 26  1  1  0
 27  3  1  0
 28  3  1  0
 29  4  1  0
 30  4  1  0
 31  9  1  0
 32 10  1  0
 33 11  1  0
 34 12  1  0
 35 14  1  0
 36 18  1  0
 37 18  1  0
 38 19  1  0
 39 20  1  0
 40 22  1  0
 41 22  1  0
 42 23  1  0
 43 23  1  0
 44  2  1  0
M  CHG  1   2   1
M  END
>  <b_m_subgroup_collapsed>  (983) 
0

>  <r_i_docking_score>  (983) 
-7.0284539335946699

>  <s_m_subgroup_title>  (983) 
glide-dock_SP_D22_pv

>  <s_m_subgroupid>  (983) 
glide-dock_SP_D22_pv

>  <Molecule ChEMBL ID>  (983) 
CHEMBL100454

>  <Standard Type>  (983) 
Ki

>  <Standard Value>  (983) 
22.0

>  <label>  (983) 
1

$$$$
CHEMBL201393
     RDKit          3D

 43 47  0  0  1  0  0  0  0  0999 V2000
   11.6979    9.4890   -6.6473 C   0  0  0  0  0  0  0  0  0  0  0  0
   12.4479    8.9719   -7.7178 C   0  0  0  0  0  0  0  0  0  0  0  0
   11.8751    8.0493   -8.6105 C   0  0  0  0  0  0  0  0  0  0  0  0
   10.5437    7.6198   -8.4329 C   0  0  0  0  0  0  0  0  0  0  0  0
   10.0131    6.4607   -9.2681 C   0  0  1  0  0  0  0  0  0  0  0  0
    9.1172    5.4830   -8.5155 C   0  0  0  0  0  0  0  0  0  0  0  0
    8.5083    4.7241   -9.6627 C   0  0  0  0  0  0  0  0  0  0  0  0
    8.1567    5.7724  -10.6316 N   0  0  2  0  0  0  0  0  0  0  0  0
    7.7132    5.2629  -11.9581 C   0  0  0  0  0  0  0  0  0  0  0  0
    8.8744    4.6541  -12.7699 C   0  0  0  0  0  0  0  0  0  0  0  0
   10.0036    5.6263  -12.7911 C   0  0  0  0  0  0  0  0  0  0  0  0
   10.1594    6.5813  -11.8214 C   0  0  0  0  0  0  0  0  0  0  0  0
   11.2463    7.3723  -12.1515 N   0  0  0  0  0  0  0  0  0  0  0  0
   11.7872    6.9684  -13.3609 C   0  0  0  0  0  0  0  0  0  0  0  0
   12.8167    7.4991  -14.1592 C   0  0  0  0  0  0  0  0  0  0  0  0
   13.1522    6.8619  -15.3697 C   0  0  0  0  0  0  0  0  0  0  0  0
   12.4677    5.6948  -15.7598 C   0  0  0  0  0  0  0  0  0  0  0  0
   11.4237    5.1796  -14.9628 C   0  0  0  0  0  0  0  0  0  0  0  0
   11.0461    5.8149  -13.7575 C   0  0  0  0  0  0  0  0  0  0  0  0
    9.2853    6.7600  -10.6045 C   0  0  2  0  0  0  0  0  0  0  0  0
    9.7744    8.1839   -7.3883 C   0  0  0  0  0  0  0  0  0  0  0  0
   10.3599    9.0966   -6.4921 C   0  0  0  0  0  0  0  0  0  0  0  0
   12.1469   10.1895   -5.9585 H   0  0  0  0  0  0  0  0  0  0  0  0
   13.4783    9.2744   -7.8445 H   0  0  0  0  0  0  0  0  0  0  0  0
   12.4836    7.6360   -9.4022 H   0  0  0  0  0  0  0  0  0  0  0  0
   10.8845    5.8634   -9.5199 H   0  0  0  0  0  0  0  0  0  0  0  0
    9.6847    4.8450   -7.8466 H   0  0  0  0  0  0  0  0  0  0  0  0
    8.3164    5.9643   -7.9543 H   0  0  0  0  0  0  0  0  0  0  0  0
    9.2897    4.1018  -10.0909 H   0  0  0  0  0  0  0  0  0  0  0  0
    7.6861    4.0803   -9.3717 H   0  0  0  0  0  0  0  0  0  0  0  0
    6.9060    4.5408  -11.8288 H   0  0  0  0  0  0  0  0  0  0  0  0
    7.2851    6.1044  -12.5058 H   0  0  0  0  0  0  0  0  0  0  0  0
    9.2019    3.7092  -12.3360 H   0  0  0  0  0  0  0  0  0  0  0  0
    8.5388    4.4279  -13.7820 H   0  0  0  0  0  0  0  0  0  0  0  0
   11.5421    8.1678  -11.6013 H   0  0  0  0  0  0  0  0  0  0  0  0
   13.3412    8.3887  -13.8447 H   0  0  0  0  0  0  0  0  0  0  0  0
   13.9444    7.2606  -15.9897 H   0  0  0  0  0  0  0  0  0  0  0  0
   12.7331    5.2007  -16.6849 H   0  0  0  0  0  0  0  0  0  0  0  0
   10.8865    4.3028  -15.2931 H   0  0  0  0  0  0  0  0  0  0  0  0
    8.8545    7.7618  -10.5968 H   0  0  0  0  0  0  0  0  0  0  0  0
    8.7443    7.9024   -7.2265 H   0  0  0  0  0  0  0  0  0  0  0  0
    9.7815    9.4976   -5.6764 H   0  0  0  0  0  0  0  0  0  0  0  0
    7.3714    6.3014  -10.2483 H   0  0  0  0  0  0  0  0  0  0  0  0
  2  1  2  0
  3  2  1  0
  4  3  2  0
  5  4  1  0
  6  5  1  0
  7  6  1  0
  8  7  1  0
  9  8  1  0
 10  9  1  0
 11 10  1  0
 12 11  2  0
 13 12  1  0
 14 13  1  0
 15 14  2  0
 16 15  1  0
 17 16  2  0
 18 17  1  0
 19 11  1  0
 19 14  1  0
 19 18  2  0
 20  5  1  0
 20  8  1  0
 20 12  1  0
 21  4  1  0
 22  1  1  0
 22 21  2  0
 23  1  1  0
 24  2  1  0
 25  3  1  0
  5 26  1  6
 27  6  1  0
 28  6  1  0
 29  7  1  0
 30  7  1  0
 31  9  1  0
 32  9  1  0
 33 10  1  0
 34 10  1  0
 35 13  1  0
 36 15  1  0
 37 16  1  0
 38 17  1  0
 39 18  1  0
 20 40  1  1
 41 21  1  0
 42 22  1  0
  8 43  1  1
M  CHG  1   8   1
M  END
>  <b_m_subgroup_collapsed>  (984) 
0

>  <r_i_docking_score>  (984) 
-7.0223533682485302

>  <s_m_subgroup_title>  (984) 
glide-dock_SP_D22_pv

>  <s_m_subgroupid>  (984) 
glide-dock_SP_D22_pv

>  <Molecule ChEMBL ID>  (984) 
CHEMBL201393

>  <Standard Type>  (984) 
Ki

>  <Standard Value>  (984) 
10000.0

>  <label>  (984) 
0

$$$$
CHEMBL399396
     RDKit          3D

 53 56  0  0  1  0  0  0  0  0999 V2000
    5.2857    4.4111  -13.4361 C   0  0  0  0  0  0  0  0  0  0  0  0
    5.8177    5.6375  -12.6857 C   0  0  0  0  0  0  0  0  0  0  0  0
    7.1616    5.3790  -12.3468 O   0  0  0  0  0  0  0  0  0  0  0  0
    8.0660    6.3685  -12.2520 C   0  0  0  0  0  0  0  0  0  0  0  0
    7.8931    7.5235  -12.6468 O   0  0  0  0  0  0  0  0  0  0  0  0
    9.4203    5.8654  -11.7022 C   0  0  0  0  0  0  0  0  0  0  0  0
   10.1129    5.1347  -12.8763 C   0  0  0  0  0  0  0  0  0  0  0  0
    9.7270    3.8177  -13.2307 C   0  0  0  0  0  0  0  0  0  0  0  0
   10.3187    3.1547  -14.3230 C   0  0  0  0  0  0  0  0  0  0  0  0
   11.3068    3.7985  -15.0874 C   0  0  0  0  0  0  0  0  0  0  0  0
   12.0068    3.0056  -16.4512 Cl  0  0  0  0  0  0  0  0  0  0  0  0
   11.7131    5.1004  -14.7457 C   0  0  0  0  0  0  0  0  0  0  0  0
   11.1203    5.7630  -13.6536 C   0  0  0  0  0  0  0  0  0  0  0  0
    9.1982    4.8963  -10.4981 C   0  0  0  0  0  0  0  0  0  0  0  0
    8.8133    5.5829   -9.1787 C   0  0  0  0  0  0  0  0  0  0  0  0
    9.8512    6.5310   -8.7800 N   0  0  0  0  0  0  0  0  0  0  0  0
    9.5193    7.0269   -7.4398 C   0  0  0  0  0  0  0  0  0  0  0  0
   10.4083    7.9885   -6.6938 C   0  0  0  0  0  0  0  0  0  0  0  0
   10.6567    9.2779   -7.0663 C   0  0  0  0  0  0  0  0  0  0  0  0
   11.4073    9.9174   -6.0972 N   0  0  0  0  0  0  0  0  0  0  0  0
   11.6825    9.0519   -5.0607 C   0  0  0  0  0  0  0  0  0  0  0  0
   12.3559    9.2197   -3.8365 C   0  0  0  0  0  0  0  0  0  0  0  0
   12.4834    8.1309   -2.9581 C   0  0  0  0  0  0  0  0  0  0  0  0
   11.9639    6.8788   -3.3268 C   0  0  0  0  0  0  0  0  0  0  0  0
   11.2861    6.7257   -4.5536 C   0  0  0  0  0  0  0  0  0  0  0  0
   11.1023    7.8056   -5.4443 C   0  0  0  0  0  0  0  0  0  0  0  0
    9.8561    7.5946   -9.7886 C   0  0  0  0  0  0  0  0  0  0  0  0
   10.2867    7.0441  -11.1623 C   0  0  0  0  0  0  0  0  0  0  0  0
    4.2758    4.5726  -13.8102 H   0  0  0  0  0  0  0  0  0  0  0  0
    5.9146    4.1749  -14.2928 H   0  0  0  0  0  0  0  0  0  0  0  0
    5.2705    3.5353  -12.7884 H   0  0  0  0  0  0  0  0  0  0  0  0
    5.2855    5.7997  -11.7511 H   0  0  0  0  0  0  0  0  0  0  0  0
    5.6934    6.5365  -13.2900 H   0  0  0  0  0  0  0  0  0  0  0  0
    8.9561    3.3047  -12.6775 H   0  0  0  0  0  0  0  0  0  0  0  0
   10.0038    2.1532  -14.5773 H   0  0  0  0  0  0  0  0  0  0  0  0
   12.4726    5.6003  -15.3290 H   0  0  0  0  0  0  0  0  0  0  0  0
   11.4498    6.7681  -13.4435 H   0  0  0  0  0  0  0  0  0  0  0  0
    8.4172    4.1722  -10.7082 H   0  0  0  0  0  0  0  0  0  0  0  0
   10.0861    4.2991  -10.3244 H   0  0  0  0  0  0  0  0  0  0  0  0
    7.8482    6.0840   -9.2747 H   0  0  0  0  0  0  0  0  0  0  0  0
    8.6938    4.8176   -8.4105 H   0  0  0  0  0  0  0  0  0  0  0  0
    8.5219    7.4683   -7.4938 H   0  0  0  0  0  0  0  0  0  0  0  0
    9.3943    6.1508   -6.8035 H   0  0  0  0  0  0  0  0  0  0  0  0
   10.3135    9.7723   -7.9546 H   0  0  0  0  0  0  0  0  0  0  0  0
   11.6927   10.8843   -6.1585 H   0  0  0  0  0  0  0  0  0  0  0  0
   12.7701   10.1721   -3.5540 H   0  0  0  0  0  0  0  0  0  0  0  0
   12.9840    8.2567   -2.0103 H   0  0  0  0  0  0  0  0  0  0  0  0
   12.0654    6.0349   -2.6599 H   0  0  0  0  0  0  0  0  0  0  0  0
   10.8622    5.7723   -4.8106 H   0  0  0  0  0  0  0  0  0  0  0  0
    8.8820    8.0825   -9.8508 H   0  0  0  0  0  0  0  0  0  0  0  0
   10.5811    8.3566   -9.5157 H   0  0  0  0  0  0  0  0  0  0  0  0
   11.3158    6.7144  -11.0581 H   0  0  0  0  0  0  0  0  0  0  0  0
   10.3143    7.8711  -11.8737 H   0  0  0  0  0  0  0  0  0  0  0  0
  2  1  1  0
  3  2  1  0
  4  3  1  0
  5  4  2  0
  6  4  1  0
  7  6  1  0
  8  7  1  0
  9  8  2  0
 10  9  1  0
 11 10  1  0
 12 10  2  0
 13  7  2  0
 13 12  1  0
 14  6  1  0
 15 14  1  0
 16 15  1  0
 17 16  1  0
 18 17  1  0
 19 18  2  0
 20 19  1  0
 21 20  1  0
 22 21  2  0
 23 22  1  0
 24 23  2  0
 25 24  1  0
 26 18  1  0
 26 21  1  0
 26 25  2  0
 27 16  1  0
 28  6  1  0
 28 27  1  0
 29  1  1  0
 30  1  1  0
 31  1  1  0
 32  2  1  0
 33  2  1  0
 34  8  1  0
 35  9  1  0
 36 12  1  0
 37 13  1  0
 38 14  1  0
 39 14  1  0
 40 15  1  0
 41 15  1  0
 42 17  1  0
 43 17  1  0
 44 19  1  0
 45 20  1  0
 46 22  1  0
 47 23  1  0
 48 24  1  0
 49 25  1  0
 50 27  1  0
 51 27  1  0
 52 28  1  0
 53 28  1  0
M  END
>  <b_m_subgroup_collapsed>  (985) 
0

>  <r_i_docking_score>  (985) 
-7.0220257640677604

>  <s_m_subgroup_title>  (985) 
glide-dock_SP_D22_pv

>  <s_m_subgroupid>  (985) 
glide-dock_SP_D22_pv

>  <Molecule ChEMBL ID>  (985) 
CHEMBL399396

>  <Standard Type>  (985) 
Ki

>  <Standard Value>  (985) 
58.8

>  <label>  (985) 
1

$$$$
CHEMBL3084513
     RDKit          3D

 49 53  0  0  1  0  0  0  0  0999 V2000
    9.2850    8.2966   -6.6515 O   0  0  0  0  0  0  0  0  0  0  0  0
   10.6286    8.0012   -6.9623 C   0  0  1  0  0  0  0  0  0  0  0  0
   11.2859    8.2237   -5.6166 C   0  0  0  0  0  0  0  0  0  0  0  0
   11.2870    9.5380   -5.0834 C   0  0  0  0  0  0  0  0  0  0  0  0
   11.7157    9.7726   -3.7689 C   0  0  0  0  0  0  0  0  0  0  0  0
   12.1844    8.7151   -2.9942 C   0  0  0  0  0  0  0  0  0  0  0  0
   12.8686    8.9720   -1.4438 Cl  0  0  0  0  0  0  0  0  0  0  0  0
   12.1014    7.4189   -3.4855 C   0  0  0  0  0  0  0  0  0  0  0  0
   12.4895    6.1726   -2.4161 Cl  0  0  0  0  0  0  0  0  0  0  0  0
   11.6618    7.1494   -4.7885 C   0  0  0  0  0  0  0  0  0  0  0  0
   10.7190    6.5530   -7.5574 C   0  0  0  0  0  0  0  0  0  0  0  0
   10.2641    6.4530   -9.0631 C   0  0  1  0  0  0  0  0  0  0  0  0
    8.8873    7.0749   -9.1600 C   0  0  0  0  0  0  0  0  0  0  0  0
    9.1462    8.5759   -9.5037 C   0  0  0  0  0  0  0  0  0  0  0  0
   10.6622    8.6756   -9.4926 C   0  0  1  0  0  0  0  0  0  0  0  0
   11.1919    8.9524   -8.0544 C   0  0  0  0  0  0  0  0  0  0  0  0
   11.0670    7.3290   -9.9577 N   0  0  2  0  0  0  0  0  0  0  0  0
   10.9614    7.1589  -11.4724 C   0  0  0  0  0  0  0  0  0  0  0  0
    9.8517    6.3277  -12.1220 C   0  0  0  0  0  0  0  0  0  0  0  0
    8.5238    6.6899  -12.2462 C   0  0  0  0  0  0  0  0  0  0  0  0
    7.4602    5.3907  -12.6466 S   0  0  0  0  0  0  0  0  0  0  0  0
    8.8173    4.4920  -13.2658 C   0  0  0  0  0  0  0  0  0  0  0  0
    8.7669    3.2937  -13.9979 C   0  0  0  0  0  0  0  0  0  0  0  0
    9.9565    2.7051  -14.4664 C   0  0  0  0  0  0  0  0  0  0  0  0
   11.1789    3.3571  -14.2375 C   0  0  0  0  0  0  0  0  0  0  0  0
   11.2267    4.5354  -13.4571 C   0  0  0  0  0  0  0  0  0  0  0  0
   10.0556    5.1375  -12.9377 C   0  0  0  0  0  0  0  0  0  0  0  0
    9.2262    9.1702   -6.2933 H   0  0  0  0  0  0  0  0  0  0  0  0
   10.9199   10.3812   -5.6507 H   0  0  0  0  0  0  0  0  0  0  0  0
   11.6851   10.7677   -3.3489 H   0  0  0  0  0  0  0  0  0  0  0  0
   11.5845    6.1253   -5.1153 H   0  0  0  0  0  0  0  0  0  0  0  0
   11.7409    6.1901   -7.4551 H   0  0  0  0  0  0  0  0  0  0  0  0
   10.1144    5.8701   -6.9585 H   0  0  0  0  0  0  0  0  0  0  0  0
   10.2775    5.4140   -9.4001 H   0  0  0  0  0  0  0  0  0  0  0  0
    8.2918    6.9206   -8.2654 H   0  0  0  0  0  0  0  0  0  0  0  0
    8.2673    6.5764   -9.8878 H   0  0  0  0  0  0  0  0  0  0  0  0
    8.6587    9.2721   -8.8209 H   0  0  0  0  0  0  0  0  0  0  0  0
    8.7634    8.8486  -10.4815 H   0  0  0  0  0  0  0  0  0  0  0  0
   11.0237    9.4641  -10.1536 H   0  0  0  0  0  0  0  0  0  0  0  0
   10.9777    9.9763   -7.7819 H   0  0  0  0  0  0  0  0  0  0  0  0
   12.2769    8.8665   -8.0715 H   0  0  0  0  0  0  0  0  0  0  0  0
   10.9221    8.1463  -11.9348 H   0  0  0  0  0  0  0  0  0  0  0  0
   11.9313    6.7898  -11.8005 H   0  0  0  0  0  0  0  0  0  0  0  0
    8.0354    7.5884  -11.9075 H   0  0  0  0  0  0  0  0  0  0  0  0
    7.8111    2.8302  -14.2012 H   0  0  0  0  0  0  0  0  0  0  0  0
    9.9208    1.7793  -15.0252 H   0  0  0  0  0  0  0  0  0  0  0  0
   12.0929    2.9239  -14.6245 H   0  0  0  0  0  0  0  0  0  0  0  0
   12.1928    4.9916  -13.2901 H   0  0  0  0  0  0  0  0  0  0  0  0
   12.0425    7.2150   -9.7233 H   0  0  0  0  0  0  0  0  0  0  0  0
  2  1  1  1
  3  2  1  0
  4  3  1  0
  5  4  2  0
  6  5  1  0
  7  6  1  0
  8  6  2  0
  9  8  1  0
 10  3  2  0
 10  8  1  0
 11  2  1  0
 12 11  1  0
 13 12  1  0
 14 13  1  0
 15 14  1  0
 16  2  1  0
 16 15  1  0
 17 12  1  0
 17 15  1  0
 18 17  1  0
 19 18  1  0
 20 19  2  0
 21 20  1  0
 22 21  1  0
 23 22  2  0
 24 23  1  0
 25 24  2  0
 26 25  1  0
 27 19  1  0
 27 22  1  0
 27 26  2  0
 28  1  1  0
 29  4  1  0
 30  5  1  0
 31 10  1  0
 32 11  1  0
 33 11  1  0
 12 34  1  6
 35 13  1  0
 36 13  1  0
 37 14  1  0
 38 14  1  0
 15 39  1  6
 40 16  1  0
 41 16  1  0
 42 18  1  0
 43 18  1  0
 44 20  1  0
 45 23  1  0
 46 24  1  0
 47 25  1  0
 48 26  1  0
 17 49  1  1
M  CHG  1  17   1
M  END
>  <b_m_subgroup_collapsed>  (986) 
0

>  <r_i_docking_score>  (986) 
-7.0218835578596801

>  <s_m_subgroup_title>  (986) 
glide-dock_SP_D22_pv

>  <s_m_subgroupid>  (986) 
glide-dock_SP_D22_pv

>  <Molecule ChEMBL ID>  (986) 
CHEMBL3084513

>  <Standard Type>  (986) 
Ki

>  <Standard Value>  (986) 
29.8

>  <label>  (986) 
1

$$$$
CHEMBL3590078
     RDKit          3D

 59 61  0  0  1  0  0  0  0  0999 V2000
    3.0621   -0.7906  -14.0611 C   0  0  0  0  0  0  0  0  0  0  0  0
    4.4495   -0.5371  -14.1358 O   0  0  0  0  0  0  0  0  0  0  0  0
    5.0144   -0.4989  -15.3935 C   0  0  0  0  0  0  0  0  0  0  0  0
    4.4290   -1.1551  -16.5089 C   0  0  0  0  0  0  0  0  0  0  0  0
    5.0366   -1.1000  -17.7737 C   0  0  0  0  0  0  0  0  0  0  0  0
    6.2388   -0.3931  -17.9428 C   0  0  0  0  0  0  0  0  0  0  0  0
    6.8300    0.2577  -16.8440 C   0  0  0  0  0  0  0  0  0  0  0  0
    6.2323    0.2125  -15.5614 C   0  0  0  0  0  0  0  0  0  0  0  0
    6.8263    0.9024  -14.4792 N   0  0  0  0  0  0  0  0  0  0  0  0
    8.2752    1.0501  -14.3943 C   0  0  0  0  0  0  0  0  0  0  0  0
    8.6827    2.5313  -14.4870 C   0  0  0  0  0  0  0  0  0  0  0  0
    7.9255    3.3723  -13.5192 N   0  0  0  0  0  0  0  0  0  0  0  0
    8.3864    4.7810  -13.5287 C   0  0  0  0  0  0  0  0  0  0  0  0
    7.8885    5.6048  -12.3232 C   0  0  0  0  0  0  0  0  0  0  0  0
    8.3268    7.0677  -12.4355 C   0  0  0  0  0  0  0  0  0  0  0  0
    9.7993    7.3336  -12.0504 C   0  0  0  0  0  0  0  0  0  0  0  0
   10.0645    7.1289  -10.6238 N   0  0  0  0  0  0  0  0  0  0  0  0
    9.8375    8.0397   -9.6631 C   0  0  0  0  0  0  0  0  0  0  0  0
    9.2860    9.1239   -9.8481 O   0  0  0  0  0  0  0  0  0  0  0  0
   10.3638    7.6453   -8.3136 N   0  0  0  0  0  0  0  0  0  0  0  0
   10.3485    8.5633   -7.4661 N   0  0  0  0  0  0  0  0  0  0  0  0
   10.8861    8.2893   -6.1832 C   0  0  0  0  0  0  0  0  0  0  0  0
   11.1378    6.9749   -5.7201 C   0  0  0  0  0  0  0  0  0  0  0  0
   11.6860    6.7695   -4.4403 C   0  0  0  0  0  0  0  0  0  0  0  0
   11.9838    7.8589   -3.6066 C   0  0  0  0  0  0  0  0  0  0  0  0
   12.5104    7.6493   -2.3768 F   0  0  0  0  0  0  0  0  0  0  0  0
   11.7114    9.1647   -4.0486 C   0  0  0  0  0  0  0  0  0  0  0  0
   11.9612   10.2051   -3.2254 F   0  0  0  0  0  0  0  0  0  0  0  0
   11.1729    9.3822   -5.3345 C   0  0  0  0  0  0  0  0  0  0  0  0
    6.4539    3.2201  -13.6853 C   0  0  0  0  0  0  0  0  0  0  0  0
    6.0154    1.7486  -13.6043 C   0  0  0  0  0  0  0  0  0  0  0  0
    2.7086   -0.6279  -13.0462 H   0  0  0  0  0  0  0  0  0  0  0  0
    2.4855   -0.1500  -14.7309 H   0  0  0  0  0  0  0  0  0  0  0  0
    2.8860   -1.8277  -14.3078 H   0  0  0  0  0  0  0  0  0  0  0  0
    3.5147   -1.7230  -16.4186 H   0  0  0  0  0  0  0  0  0  0  0  0
    4.5803   -1.6057  -18.6140 H   0  0  0  0  0  0  0  0  0  0  0  0
    6.7072   -0.3511  -18.9151 H   0  0  0  0  0  0  0  0  0  0  0  0
    7.7429    0.8072  -17.0119 H   0  0  0  0  0  0  0  0  0  0  0  0
    8.5995    0.6292  -13.4468 H   0  0  0  0  0  0  0  0  0  0  0  0
    8.7928    0.4608  -15.1504 H   0  0  0  0  0  0  0  0  0  0  0  0
    9.7546    2.6170  -14.2992 H   0  0  0  0  0  0  0  0  0  0  0  0
    8.5069    2.9004  -15.4991 H   0  0  0  0  0  0  0  0  0  0  0  0
    9.4762    4.7872  -13.5209 H   0  0  0  0  0  0  0  0  0  0  0  0
    8.0860    5.2494  -14.4671 H   0  0  0  0  0  0  0  0  0  0  0  0
    6.8010    5.6082  -12.2808 H   0  0  0  0  0  0  0  0  0  0  0  0
    8.2273    5.1727  -11.3815 H   0  0  0  0  0  0  0  0  0  0  0  0
    8.0860    7.3861  -13.4456 H   0  0  0  0  0  0  0  0  0  0  0  0
    7.6863    7.7093  -11.8468 H   0  0  0  0  0  0  0  0  0  0  0  0
   10.4674    6.6871  -12.6184 H   0  0  0  0  0  0  0  0  0  0  0  0
   10.0824    8.3523  -12.3178 H   0  0  0  0  0  0  0  0  0  0  0  0
   10.4996    6.2614  -10.3483 H   0  0  0  0  0  0  0  0  0  0  0  0
   10.9158    6.1171   -6.3361 H   0  0  0  0  0  0  0  0  0  0  0  0
   11.8826    5.7719   -4.0870 H   0  0  0  0  0  0  0  0  0  0  0  0
   10.9765   10.3922   -5.6670 H   0  0  0  0  0  0  0  0  0  0  0  0
    5.9101    3.7709  -12.9202 H   0  0  0  0  0  0  0  0  0  0  0  0
    6.1542    3.6378  -14.6467 H   0  0  0  0  0  0  0  0  0  0  0  0
    4.9558    1.7114  -13.8471 H   0  0  0  0  0  0  0  0  0  0  0  0
    6.0871    1.3772  -12.5812 H   0  0  0  0  0  0  0  0  0  0  0  0
    8.1513    3.0071  -12.6051 H   0  0  0  0  0  0  0  0  0  0  0  0
  2  1  1  0
  3  2  1  0
  4  3  2  0
  5  4  1  0
  6  5  2  0
  7  6  1  0
  8  3  1  0
  8  7  2  0
  9  8  1  0
 10  9  1  0
 11 10  1  0
 12 11  1  0
 13 12  1  0
 14 13  1  0
 15 14  1  0
 16 15  1  0
 17 16  1  0
 18 17  1  0
 19 18  2  0
 20 18  1  0
 21 20  2  0
 22 21  1  0
 23 22  1  0
 24 23  2  0
 25 24  1  0
 26 25  1  0
 27 25  2  0
 28 27  1  0
 29 22  2  0
 29 27  1  0
 30 12  1  0
 31  9  1  0
 31 30  1  0
 32  1  1  0
 33  1  1  0
 34  1  1  0
 35  4  1  0
 36  5  1  0
 37  6  1  0
 38  7  1  0
 39 10  1  0
 40 10  1  0
 41 11  1  0
 42 11  1  0
 43 13  1  0
 44 13  1  0
 45 14  1  0
 46 14  1  0
 47 15  1  0
 48 15  1  0
 49 16  1  0
 50 16  1  0
 51 17  1  0
 52 23  1  0
 53 24  1  0
 54 29  1  0
 55 30  1  0
 56 30  1  0
 57 31  1  0
 58 31  1  0
 59 12  1  0
M  CHG  1  12   1
M  END
>  <b_m_subgroup_collapsed>  (987) 
0

>  <r_i_docking_score>  (987) 
-7.0170749654463496

>  <s_m_subgroup_title>  (987) 
glide-dock_SP_D22_pv

>  <s_m_subgroupid>  (987) 
glide-dock_SP_D22_pv

>  <Molecule ChEMBL ID>  (987) 
CHEMBL3590078

>  <Standard Type>  (987) 
Ki

>  <Standard Value>  (987) 
7.5

>  <label>  (987) 
1

$$$$
CHEMBL90374
     RDKit          3D

 42 45  0  0  1  0  0  0  0  0999 V2000
   12.0871    9.3613   -2.6336 Cl  0  0  0  0  0  0  0  0  0  0  0  0
   11.6963    8.8056   -4.2119 C   0  0  0  0  0  0  0  0  0  0  0  0
   11.4057    9.7311   -5.2292 C   0  0  0  0  0  0  0  0  0  0  0  0
   11.0840    9.2738   -6.5176 C   0  0  0  0  0  0  0  0  0  0  0  0
   11.0124    7.8916   -6.7972 C   0  0  0  0  0  0  0  0  0  0  0  0
   10.6648    7.4644   -8.0884 N   0  0  0  0  0  0  0  0  0  0  0  0
   11.3437    8.0309   -9.2445 C   0  0  0  0  0  0  0  0  0  0  0  0
   10.3560    8.0964  -10.4162 C   0  0  0  0  0  0  0  0  0  0  0  0
    9.8470    6.7589  -10.7440 N   0  0  0  0  0  0  0  0  0  0  0  0
    8.9042    6.9398  -11.8460 C   0  0  0  0  0  0  0  0  0  0  0  0
    8.3314    5.6673  -12.4446 C   0  0  0  0  0  0  0  0  0  0  0  0
    7.0001    5.3595  -12.2574 C   0  0  0  0  0  0  0  0  0  0  0  0
    6.4283    4.2221  -12.8818 C   0  0  0  0  0  0  0  0  0  0  0  0
    7.1960    3.4076  -13.6837 C   0  0  0  0  0  0  0  0  0  0  0  0
    8.5164    3.7000  -13.8469 N   0  0  0  0  0  0  0  0  0  0  0  0
    9.4053    2.9781  -14.6026 N   0  0  0  0  0  0  0  0  0  0  0  0
   10.5401    3.6272  -14.4640 C   0  0  0  0  0  0  0  0  0  0  0  0
   10.4476    4.7815  -13.6481 C   0  0  0  0  0  0  0  0  0  0  0  0
    9.1383    4.8165  -13.2485 C   0  0  0  0  0  0  0  0  0  0  0  0
    9.1514    6.2162   -9.5660 C   0  0  0  0  0  0  0  0  0  0  0  0
   10.0775    6.1529   -8.3321 C   0  0  0  0  0  0  0  0  0  0  0  0
   11.2860    6.9714   -5.7605 C   0  0  0  0  0  0  0  0  0  0  0  0
   11.6535    7.4251   -4.4792 C   0  0  0  0  0  0  0  0  0  0  0  0
   11.4237   10.7913   -5.0298 H   0  0  0  0  0  0  0  0  0  0  0  0
   10.8698    9.9975   -7.2860 H   0  0  0  0  0  0  0  0  0  0  0  0
   12.1913    7.3965   -9.5066 H   0  0  0  0  0  0  0  0  0  0  0  0
   11.7473    9.0225   -9.0441 H   0  0  0  0  0  0  0  0  0  0  0  0
   10.8612    8.5193  -11.2844 H   0  0  0  0  0  0  0  0  0  0  0  0
    9.5310    8.7671  -10.1664 H   0  0  0  0  0  0  0  0  0  0  0  0
    9.4186    7.4670  -12.6467 H   0  0  0  0  0  0  0  0  0  0  0  0
    8.0864    7.5925  -11.5382 H   0  0  0  0  0  0  0  0  0  0  0  0
    6.3828    6.0019  -11.6342 H   0  0  0  0  0  0  0  0  0  0  0  0
    5.3785    3.9935  -12.7288 H   0  0  0  0  0  0  0  0  0  0  0  0
    6.8175    2.5256  -14.1890 H   0  0  0  0  0  0  0  0  0  0  0  0
   11.4241    3.2565  -14.9634 H   0  0  0  0  0  0  0  0  0  0  0  0
   11.2355    5.4726  -13.3888 H   0  0  0  0  0  0  0  0  0  0  0  0
    8.2889    6.8370   -9.3254 H   0  0  0  0  0  0  0  0  0  0  0  0
    8.7678    5.2197   -9.7867 H   0  0  0  0  0  0  0  0  0  0  0  0
   10.8701    5.4208   -8.4858 H   0  0  0  0  0  0  0  0  0  0  0  0
    9.4971    5.8282   -7.4680 H   0  0  0  0  0  0  0  0  0  0  0  0
   11.2512    5.9086   -5.9443 H   0  0  0  0  0  0  0  0  0  0  0  0
   11.8736    6.7123   -3.6979 H   0  0  0  0  0  0  0  0  0  0  0  0
  2  1  1  0
  3  2  1  0
  4  3  2  0
  5  4  1  0
  6  5  1  0
  7  6  1  0
  8  7  1  0
  9  8  1  0
 10  9  1  0
 11 10  1  0
 12 11  2  0
 13 12  1  0
 14 13  2  0
 15 14  1  0
 16 15  1  0
 17 16  2  0
 18 17  1  0
 19 11  1  0
 19 15  1  0
 19 18  2  0
 20  9  1  0
 21  6  1  0
 21 20  1  0
 22  5  2  0
 23  2  2  0
 23 22  1  0
 24  3  1  0
 25  4  1  0
 26  7  1  0
 27  7  1  0
 28  8  1  0
 29  8  1  0
 30 10  1  0
 31 10  1  0
 32 12  1  0
 33 13  1  0
 34 14  1  0
 35 17  1  0
 36 18  1  0
 37 20  1  0
 38 20  1  0
 39 21  1  0
 40 21  1  0
 41 22  1  0
 42 23  1  0
M  END
>  <b_m_subgroup_collapsed>  (988) 
0

>  <r_i_docking_score>  (988) 
-7.0167141874225001

>  <s_m_subgroup_title>  (988) 
glide-dock_SP_D22_pv

>  <s_m_subgroupid>  (988) 
glide-dock_SP_D22_pv

>  <Molecule ChEMBL ID>  (988) 
CHEMBL90374

>  <Standard Type>  (988) 
Ki

>  <Standard Value>  (988) 
16000.0

>  <label>  (988) 
0

$$$$
CHEMBL105512
     RDKit          3D

 41 42  0  0  1  0  0  0  0  0999 V2000
   11.7596    8.8840  -10.2484 C   0  0  0  0  0  0  0  0  0  0  0  0
   10.7327    7.7682  -10.4813 C   0  0  0  0  0  0  0  0  0  0  0  0
    9.4732    7.8179   -9.5822 C   0  0  0  0  0  0  0  0  0  0  0  0
    9.5796    7.0938   -8.2726 N   0  0  0  0  0  0  0  0  0  0  0  0
    9.7079    5.6139   -8.4304 C   0  0  0  0  0  0  0  0  0  0  0  0
    8.5816    4.9575   -9.2551 C   0  0  0  0  0  0  0  0  0  0  0  0
    8.9635    4.6268  -10.7071 C   0  0  0  0  0  0  0  0  0  0  0  0
   10.5535    7.6934   -7.2915 C   0  0  1  0  0  0  0  0  0  0  0  0
   10.2886    9.2092   -7.0635 C   0  0  0  0  0  0  0  0  0  0  0  0
   11.2769    9.9087   -6.1158 C   0  0  0  0  0  0  0  0  0  0  0  0
   11.5621    9.0663   -4.9237 C   0  0  0  0  0  0  0  0  0  0  0  0
   12.1147    9.6074   -3.7683 N   0  0  0  0  0  0  0  0  0  0  0  0
   12.3382    8.6806   -2.8429 C   0  0  0  0  0  0  0  0  0  0  0  0
   12.8825    8.9698   -1.6071 N   0  0  0  0  0  0  0  0  0  0  0  0
   11.8949    7.0494   -3.3472 S   0  0  0  0  0  0  0  0  0  0  0  0
   11.3095    7.7246   -4.8533 C   0  0  0  0  0  0  0  0  0  0  0  0
   10.6200    6.9402   -5.9241 C   0  0  0  0  0  0  0  0  0  0  0  0
   12.5015    8.8922  -11.0459 H   0  0  0  0  0  0  0  0  0  0  0  0
   11.2861    9.8615  -10.2377 H   0  0  0  0  0  0  0  0  0  0  0  0
   12.3113    8.7752   -9.3188 H   0  0  0  0  0  0  0  0  0  0  0  0
   11.2242    6.7992  -10.4361 H   0  0  0  0  0  0  0  0  0  0  0  0
   10.3936    7.8677  -11.5135 H   0  0  0  0  0  0  0  0  0  0  0  0
    8.6504    7.3842  -10.1438 H   0  0  0  0  0  0  0  0  0  0  0  0
    9.1293    8.8416   -9.4521 H   0  0  0  0  0  0  0  0  0  0  0  0
   10.6897    5.3415   -8.8113 H   0  0  0  0  0  0  0  0  0  0  0  0
    9.6424    5.1607   -7.4478 H   0  0  0  0  0  0  0  0  0  0  0  0
    8.2952    4.0227   -8.7700 H   0  0  0  0  0  0  0  0  0  0  0  0
    7.6864    5.5792   -9.2301 H   0  0  0  0  0  0  0  0  0  0  0  0
    8.1193    4.1729  -11.2256 H   0  0  0  0  0  0  0  0  0  0  0  0
    9.2481    5.5090  -11.2763 H   0  0  0  0  0  0  0  0  0  0  0  0
    9.7962    3.9254  -10.7490 H   0  0  0  0  0  0  0  0  0  0  0  0
   11.5501    7.5923   -7.7169 H   0  0  0  0  0  0  0  0  0  0  0  0
   10.3079    9.7718   -7.9896 H   0  0  0  0  0  0  0  0  0  0  0  0
    9.2858    9.3060   -6.6561 H   0  0  0  0  0  0  0  0  0  0  0  0
   10.8858   10.8829   -5.8194 H   0  0  0  0  0  0  0  0  0  0  0  0
   12.2106   10.1013   -6.6453 H   0  0  0  0  0  0  0  0  0  0  0  0
   13.2799    9.8942   -1.4476 H   0  0  0  0  0  0  0  0  0  0  0  0
   13.1554    8.2393   -0.9690 H   0  0  0  0  0  0  0  0  0  0  0  0
   11.1466    5.9944   -6.0443 H   0  0  0  0  0  0  0  0  0  0  0  0
    9.6130    6.7020   -5.5796 H   0  0  0  0  0  0  0  0  0  0  0  0
    8.6647    7.2206   -7.8548 H   0  0  0  0  0  0  0  0  0  0  0  0
  2  1  1  0
  3  2  1  0
  4  3  1  0
  5  4  1  0
  6  5  1  0
  7  6  1  0
  8  4  1  0
  9  8  1  0
 10  9  1  0
 11 10  1  0
 12 11  1  0
 13 12  2  0
 14 13  1  0
 15 13  1  0
 16 11  2  0
 16 15  1  0
 17  8  1  0
 17 16  1  0
 18  1  1  0
 19  1  1  0
 20  1  1  0
 21  2  1  0
 22  2  1  0
 23  3  1  0
 24  3  1  0
 25  5  1  0
 26  5  1  0
 27  6  1  0
 28  6  1  0
 29  7  1  0
 30  7  1  0
 31  7  1  0
  8 32  1  6
 33  9  1  0
 34  9  1  0
 35 10  1  0
 36 10  1  0
 37 14  1  0
 38 14  1  0
 39 17  1  0
 40 17  1  0
 41  4  1  0
M  CHG  1   4   1
M  END
>  <b_m_subgroup_collapsed>  (989) 
0

>  <r_i_docking_score>  (989) 
-7.0144344803756704

>  <s_m_subgroup_title>  (989) 
glide-dock_SP_D22_pv

>  <s_m_subgroupid>  (989) 
glide-dock_SP_D22_pv

>  <Molecule ChEMBL ID>  (989) 
CHEMBL105512

>  <Standard Type>  (989) 
Ki

>  <Standard Value>  (989) 
57.0

>  <label>  (989) 
1

$$$$
CHEMBL113524
     RDKit          3D

 65 68  0  0  1  0  0  0  0  0999 V2000
   13.7457    8.1723   -9.4469 C   0  0  0  0  0  0  0  0  0  0  0  0
   12.4135    7.7723   -8.8374 C   0  0  0  0  0  0  0  0  0  0  0  0
   11.4456    8.8794   -8.7858 N   0  0  1  0  0  0  0  0  0  0  0  0
   10.8965    9.2544  -10.1121 C   0  0  0  0  0  0  0  0  0  0  0  0
   10.2207    8.2043  -10.9950 C   0  0  0  0  0  0  0  0  0  0  0  0
    8.9051    8.1405  -11.3583 C   0  0  0  0  0  0  0  0  0  0  0  0
    8.6937    6.9929  -12.1698 C   0  0  0  0  0  0  0  0  0  0  0  0
    9.9058    6.4171  -12.4198 C   0  0  0  0  0  0  0  0  0  0  0  0
   10.2316    5.3021  -13.3309 C   0  0  0  0  0  0  0  0  0  0  0  0
    9.2435    4.3105  -13.5769 C   0  0  0  0  0  0  0  0  0  0  0  0
    9.4240    3.3373  -14.5857 C   0  0  0  0  0  0  0  0  0  0  0  0
    8.1112    2.1897  -15.0357 S   0  0  0  0  0  0  0  0  0  0  0  0
    6.9194    2.5343  -14.2456 O   0  0  0  0  0  0  0  0  0  0  0  0
    8.0292    2.1743  -16.5051 O   0  0  0  0  0  0  0  0  0  0  0  0
    8.6754    0.5180  -14.5078 C   0  0  0  0  0  0  0  0  0  0  0  0
    9.8935    0.0205  -15.2951 C   0  0  0  0  0  0  0  0  0  0  0  0
   10.6214    3.2961  -15.3132 C   0  0  0  0  0  0  0  0  0  0  0  0
   11.6275    4.2344  -15.0480 C   0  0  0  0  0  0  0  0  0  0  0  0
   11.4315    5.2668  -14.0934 C   0  0  0  0  0  0  0  0  0  0  0  0
   12.3514    6.2786  -13.9257 O   0  0  0  0  0  0  0  0  0  0  0  0
   13.2888    6.4779  -14.9766 C   0  0  0  0  0  0  0  0  0  0  0  0
   10.8368    7.1730  -11.7076 N   0  0  0  0  0  0  0  0  0  0  0  0
   10.4434    8.8076   -7.6819 C   0  0  1  0  0  0  0  0  0  0  0  0
    9.3402    7.7718   -8.0013 C   0  0  0  0  0  0  0  0  0  0  0  0
    8.6829    7.2038   -6.7634 C   0  0  0  0  0  0  0  0  0  0  0  0
    9.7535    6.5726   -5.8816 C   0  0  0  0  0  0  0  0  0  0  0  0
   10.8437    7.5307   -5.4908 C   0  0  0  0  0  0  0  0  0  0  0  0
   11.5418    7.3159   -4.2848 C   0  0  0  0  0  0  0  0  0  0  0  0
   12.4860    8.2539   -3.8467 C   0  0  0  0  0  0  0  0  0  0  0  0
   12.7615    9.3750   -4.6467 C   0  0  0  0  0  0  0  0  0  0  0  0
   12.0852    9.5783   -5.8673 C   0  0  0  0  0  0  0  0  0  0  0  0
   11.1278    8.6417   -6.3139 C   0  0  0  0  0  0  0  0  0  0  0  0
   14.4727    7.3723   -9.4468 H   0  0  0  0  0  0  0  0  0  0  0  0
   13.6429    8.5215  -10.4751 H   0  0  0  0  0  0  0  0  0  0  0  0
   14.1769    8.9723   -8.8495 H   0  0  0  0  0  0  0  0  0  0  0  0
   12.6156    7.3713   -7.8479 H   0  0  0  0  0  0  0  0  0  0  0  0
   11.9767    6.9723   -9.4134 H   0  0  0  0  0  0  0  0  0  0  0  0
   10.1616   10.0114   -9.8468 H   0  0  0  0  0  0  0  0  0  0  0  0
   11.6878    9.7686  -10.6479 H   0  0  0  0  0  0  0  0  0  0  0  0
    8.1430    8.8412  -11.0479 H   0  0  0  0  0  0  0  0  0  0  0  0
    7.7487    6.6700  -12.5816 H   0  0  0  0  0  0  0  0  0  0  0  0
    8.3066    4.3406  -13.0385 H   0  0  0  0  0  0  0  0  0  0  0  0
    8.8848    0.5533  -13.4469 H   0  0  0  0  0  0  0  0  0  0  0  0
    7.8381   -0.1650  -14.6574 H   0  0  0  0  0  0  0  0  0  0  0  0
   10.0803   -1.0286  -15.0841 H   0  0  0  0  0  0  0  0  0  0  0  0
    9.7403    0.1146  -16.3702 H   0  0  0  0  0  0  0  0  0  0  0  0
   10.7978    0.5624  -15.0216 H   0  0  0  0  0  0  0  0  0  0  0  0
   10.7609    2.5676  -16.0970 H   0  0  0  0  0  0  0  0  0  0  0  0
   12.5281    4.1648  -15.6384 H   0  0  0  0  0  0  0  0  0  0  0  0
   13.8600    7.3728  -14.7701 H   0  0  0  0  0  0  0  0  0  0  0  0
   14.0043    5.6580  -15.0497 H   0  0  0  0  0  0  0  0  0  0  0  0
   12.7949    6.6143  -15.9405 H   0  0  0  0  0  0  0  0  0  0  0  0
   11.8314    7.0018  -11.7538 H   0  0  0  0  0  0  0  0  0  0  0  0
    9.9437    9.7721   -7.6074 H   0  0  0  0  0  0  0  0  0  0  0  0
    9.7531    6.9258   -8.5525 H   0  0  0  0  0  0  0  0  0  0  0  0
    8.5762    8.2112   -8.6429 H   0  0  0  0  0  0  0  0  0  0  0  0
    7.9469    6.4513   -7.0470 H   0  0  0  0  0  0  0  0  0  0  0  0
    8.1474    7.9998   -6.2474 H   0  0  0  0  0  0  0  0  0  0  0  0
   10.2338    5.7719   -6.4335 H   0  0  0  0  0  0  0  0  0  0  0  0
    9.2983    6.1723   -4.9820 H   0  0  0  0  0  0  0  0  0  0  0  0
   11.3202    6.4526   -3.6735 H   0  0  0  0  0  0  0  0  0  0  0  0
   13.0011    8.1067   -2.9087 H   0  0  0  0  0  0  0  0  0  0  0  0
   13.5042   10.0914   -4.3253 H   0  0  0  0  0  0  0  0  0  0  0  0
   12.3258   10.4457   -6.4630 H   0  0  0  0  0  0  0  0  0  0  0  0
   12.0131    9.6693   -8.5199 H   0  0  0  0  0  0  0  0  0  0  0  0
  2  1  1  0
  3  2  1  0
  4  3  1  0
  5  4  1  0
  6  5  2  0
  7  6  1  0
  8  7  2  0
  9  8  1  0
 10  9  1  0
 11 10  2  0
 12 11  1  0
 13 12  2  0
 14 12  2  0
 15 12  1  0
 16 15  1  0
 17 11  1  0
 18 17  2  0
 19  9  2  0
 19 18  1  0
 20 19  1  0
 21 20  1  0
 22  5  1  0
 22  8  1  0
 23  3  1  0
 24 23  1  0
 25 24  1  0
 26 25  1  0
 27 26  1  0
 28 27  2  0
 29 28  1  0
 30 29  2  0
 31 30  1  0
 32 23  1  0
 32 27  1  0
 32 31  2  0
 33  1  1  0
 34  1  1  0
 35  1  1  0
 36  2  1  0
 37  2  1  0
 38  4  1  0
 39  4  1  0
 40  6  1  0
 41  7  1  0
 42 10  1  0
 43 15  1  0
 44 15  1  0
 45 16  1  0
 46 16  1  0
 47 16  1  0
 48 17  1  0
 49 18  1  0
 50 21  1  0
 51 21  1  0
 52 21  1  0
 53 22  1  0
 23 54  1  1
 55 24  1  0
 56 24  1  0
 57 25  1  0
 58 25  1  0
 59 26  1  0
 60 26  1  0
 61 28  1  0
 62 29  1  0
 63 30  1  0
 64 31  1  0
  3 65  1  1
M  CHG  1   3   1
M  END
>  <b_m_subgroup_collapsed>  (990) 
0

>  <r_i_docking_score>  (990) 
-7.01271376467664

>  <s_m_subgroup_title>  (990) 
glide-dock_SP_D22_pv

>  <s_m_subgroupid>  (990) 
glide-dock_SP_D22_pv

>  <Molecule ChEMBL ID>  (990) 
CHEMBL113524

>  <Standard Type>  (990) 
Ki

>  <Standard Value>  (990) 
12.59

>  <label>  (990) 
1

$$$$
CHEMBL5278957
     RDKit          3D

 45 47  0  0  1  0  0  0  0  0999 V2000
    9.3821    3.6625  -14.5785 C   0  0  0  0  0  0  0  0  0  0  0  0
    8.6720    4.1722  -13.3106 C   0  0  0  0  0  0  0  0  0  0  0  0
    7.1514    3.9615  -13.4468 C   0  0  0  0  0  0  0  0  0  0  0  0
    9.0049    5.5977  -13.0279 N   0  0  2  0  0  0  0  0  0  0  0  0
   10.4530    5.8875  -12.8900 C   0  0  0  0  0  0  0  0  0  0  0  0
   10.5431    7.2738  -12.2345 C   0  0  2  0  0  0  0  0  0  0  0  0
   11.8603    7.6216  -11.5043 C   0  0  0  0  0  0  0  0  0  0  0  0
    9.2221    7.3912  -11.4469 C   0  0  2  0  0  0  0  0  0  0  0  0
    9.3405    7.6680  -10.0183 N   0  0  0  0  0  0  0  0  0  0  0  0
    9.8305    6.8653   -9.0634 C   0  0  0  0  0  0  0  0  0  0  0  0
   10.0860    5.6724   -9.2223 O   0  0  0  0  0  0  0  0  0  0  0  0
   10.1828    7.5523   -7.8160 C   0  0  0  0  0  0  0  0  0  0  0  0
   10.0781    8.8623   -7.4284 C   0  0  0  0  0  0  0  0  0  0  0  0
   10.6699    8.9574   -6.1285 C   0  0  0  0  0  0  0  0  0  0  0  0
   10.8860   10.0154   -5.2184 C   0  0  0  0  0  0  0  0  0  0  0  0
   11.4497    9.7723   -3.9544 C   0  0  0  0  0  0  0  0  0  0  0  0
   11.8345    8.4742   -3.5907 C   0  0  0  0  0  0  0  0  0  0  0  0
   12.4860    8.1723   -1.8469 Br  0  0  0  0  0  0  0  0  0  0  0  0
   11.6860    7.4054   -4.4883 C   0  0  0  0  0  0  0  0  0  0  0  0
   11.0941    7.6527   -5.7377 C   0  0  0  0  0  0  0  0  0  0  0  0
   10.7844    6.8315   -6.7993 N   0  0  0  0  0  0  0  0  0  0  0  0
    8.3932    6.1417  -11.7967 C   0  0  0  0  0  0  0  0  0  0  0  0
    9.0826    2.6389  -14.8069 H   0  0  0  0  0  0  0  0  0  0  0  0
    9.1429    4.2771  -15.4469 H   0  0  0  0  0  0  0  0  0  0  0  0
   10.4660    3.6487  -14.4633 H   0  0  0  0  0  0  0  0  0  0  0  0
    9.0216    3.5692  -12.4704 H   0  0  0  0  0  0  0  0  0  0  0  0
    6.9222    2.9206  -13.6774 H   0  0  0  0  0  0  0  0  0  0  0  0
    6.6202    4.1990  -12.5245 H   0  0  0  0  0  0  0  0  0  0  0  0
    6.7295    4.5723  -14.2445 H   0  0  0  0  0  0  0  0  0  0  0  0
   10.8860    5.1272  -12.2469 H   0  0  0  0  0  0  0  0  0  0  0  0
   10.9748    5.8600  -13.8472 H   0  0  0  0  0  0  0  0  0  0  0  0
   10.4860    7.9964  -13.0466 H   0  0  0  0  0  0  0  0  0  0  0  0
   12.0782    6.9723  -10.6635 H   0  0  0  0  0  0  0  0  0  0  0  0
   12.7078    7.5673  -12.1884 H   0  0  0  0  0  0  0  0  0  0  0  0
   11.8305    8.6335  -11.0992 H   0  0  0  0  0  0  0  0  0  0  0  0
    8.6867    8.2529  -11.8498 H   0  0  0  0  0  0  0  0  0  0  0  0
    9.0864    8.6001   -9.7285 H   0  0  0  0  0  0  0  0  0  0  0  0
    9.6485    9.6762   -7.9905 H   0  0  0  0  0  0  0  0  0  0  0  0
   10.5779   11.0135   -5.4822 H   0  0  0  0  0  0  0  0  0  0  0  0
   11.5699   10.5724   -3.2406 H   0  0  0  0  0  0  0  0  0  0  0  0
   11.9763    6.4046   -4.2044 H   0  0  0  0  0  0  0  0  0  0  0  0
   10.9432    5.8356   -6.8666 H   0  0  0  0  0  0  0  0  0  0  0  0
    8.4210    5.3857  -11.0130 H   0  0  0  0  0  0  0  0  0  0  0  0
    7.3439    6.3973  -11.9508 H   0  0  0  0  0  0  0  0  0  0  0  0
    8.6637    6.1573  -13.7958 H   0  0  0  0  0  0  0  0  0  0  0  0
  2  1  1  0
  3  2  1  0
  4  2  1  0
  5  4  1  0
  6  5  1  0
  7  6  1  0
  8  6  1  0
  9  8  1  0
 10  9  1  0
 11 10  2  0
 12 10  1  0
 13 12  2  0
 14 13  1  0
 15 14  2  0
 16 15  1  0
 17 16  2  0
 18 17  1  0
 19 17  1  0
 20 14  1  0
 20 19  2  0
 21 12  1  0
 21 20  1  0
 22  4  1  0
 22  8  1  0
 23  1  1  0
 24  1  1  0
 25  1  1  0
 26  2  1  0
 27  3  1  0
 28  3  1  0
 29  3  1  0
 30  5  1  0
 31  5  1  0
  6 32  1  6
 33  7  1  0
 34  7  1  0
 35  7  1  0
  8 36  1  6
 37  9  1  0
 38 13  1  0
 39 15  1  0
 40 16  1  0
 41 19  1  0
 42 21  1  0
 43 22  1  0
 44 22  1  0
  4 45  1  6
M  CHG  1   4   1
M  END
>  <b_m_subgroup_collapsed>  (991) 
0

>  <r_i_docking_score>  (991) 
-7.0113013579326999

>  <s_m_subgroup_title>  (991) 
glide-dock_SP_D22_pv

>  <s_m_subgroupid>  (991) 
glide-dock_SP_D22_pv

>  <Molecule ChEMBL ID>  (991) 
CHEMBL5278957

>  <Standard Type>  (991) 
Ki

>  <Standard Value>  (991) 
10000.0

>  <label>  (991) 
0

$$$$
CHEMBL4745809
     RDKit          3D

 65 68  0  0  1  0  0  0  0  0999 V2000
   12.2585    4.6479  -14.0895 C   0  0  0  0  0  0  0  0  0  0  0  0
   10.7927    4.3684  -13.6922 C   0  0  1  0  0  0  0  0  0  0  0  0
    9.9841    5.6723  -13.8102 C   0  0  0  0  0  0  0  0  0  0  0  0
    8.8553    5.7771  -12.8415 N   0  0  1  0  0  0  0  0  0  0  0  0
    8.3831    7.1597  -12.5517 C   0  0  0  0  0  0  0  0  0  0  0  0
    9.4354    8.1182  -11.9528 C   0  0  0  0  0  0  0  0  0  0  0  0
    9.7857    7.8360  -10.4758 C   0  0  1  0  0  0  0  0  0  0  0  0
   11.3096    7.7819  -10.2293 C   0  0  0  0  0  0  0  0  0  0  0  0
   11.6405    7.5741   -8.7378 C   0  0  0  0  0  0  0  0  0  0  0  0
   10.9694    8.6399   -7.8587 C   0  0  2  0  0  0  0  0  0  0  0  0
   11.2510    8.4129   -6.4488 N   0  0  0  0  0  0  0  0  0  0  0  0
   11.5031    9.3720   -5.5475 C   0  0  0  0  0  0  0  0  0  0  0  0
   11.6712   10.5545   -5.8449 O   0  0  0  0  0  0  0  0  0  0  0  0
   11.4922    8.9219   -4.0834 C   0  0  2  0  0  0  0  0  0  0  0  0
   12.4393    9.6467   -3.1431 C   0  0  0  0  0  0  0  0  0  0  0  0
   12.6432    8.6420   -2.0196 C   0  0  0  0  0  0  0  0  0  0  0  0
   12.1511    7.3094   -2.5975 C   0  0  0  0  0  0  0  0  0  0  0  0
   11.9054    7.5663   -3.9724 O   0  0  0  0  0  0  0  0  0  0  0  0
    9.4537    8.6275   -8.0890 C   0  0  0  0  0  0  0  0  0  0  0  0
    9.1634    8.9050   -9.5630 C   0  0  0  0  0  0  0  0  0  0  0  0
    7.7026    4.9382  -13.2303 C   0  0  0  0  0  0  0  0  0  0  0  0
    7.9945    3.4686  -13.0508 C   0  0  0  0  0  0  0  0  0  0  0  0
    8.8067    2.8123  -14.1576 C   0  0  0  0  0  0  0  0  0  0  0  0
    8.2162    1.7380  -14.8598 C   0  0  0  0  0  0  0  0  0  0  0  0
    8.9334    1.0454  -15.8495 C   0  0  0  0  0  0  0  0  0  0  0  0
   10.2489    1.4308  -16.1517 C   0  0  0  0  0  0  0  0  0  0  0  0
   11.1394    0.5823  -17.3613 Cl  0  0  0  0  0  0  0  0  0  0  0  0
   10.8404    2.5079  -15.4663 C   0  0  0  0  0  0  0  0  0  0  0  0
   10.1353    3.2110  -14.4558 C   0  0  0  0  0  0  0  0  0  0  0  0
   12.8855    3.7724  -13.9598 H   0  0  0  0  0  0  0  0  0  0  0  0
   12.3409    4.9723  -15.1280 H   0  0  0  0  0  0  0  0  0  0  0  0
   12.6961    5.4314  -13.4696 H   0  0  0  0  0  0  0  0  0  0  0  0
   10.8156    4.0749  -12.6448 H   0  0  0  0  0  0  0  0  0  0  0  0
   10.6873    6.4801  -13.6377 H   0  0  0  0  0  0  0  0  0  0  0  0
    9.6307    5.7723  -14.8366 H   0  0  0  0  0  0  0  0  0  0  0  0
    7.9327    7.5782  -13.4466 H   0  0  0  0  0  0  0  0  0  0  0  0
    7.5587    7.0998  -11.8475 H   0  0  0  0  0  0  0  0  0  0  0  0
   10.3360    8.1728  -12.5549 H   0  0  0  0  0  0  0  0  0  0  0  0
    9.0223    9.1253  -12.0302 H   0  0  0  0  0  0  0  0  0  0  0  0
    9.3693    6.8681  -10.1913 H   0  0  0  0  0  0  0  0  0  0  0  0
   11.7547    6.9805  -10.8185 H   0  0  0  0  0  0  0  0  0  0  0  0
   11.7737    8.7090  -10.5712 H   0  0  0  0  0  0  0  0  0  0  0  0
   12.7208    7.6114   -8.5909 H   0  0  0  0  0  0  0  0  0  0  0  0
   11.3005    6.5851   -8.4268 H   0  0  0  0  0  0  0  0  0  0  0  0
   11.3570    9.6151   -8.1587 H   0  0  0  0  0  0  0  0  0  0  0  0
   11.1446    7.4719   -6.0936 H   0  0  0  0  0  0  0  0  0  0  0  0
   10.4865    9.0374   -3.7007 H   0  0  0  0  0  0  0  0  0  0  0  0
   13.3744    9.8716   -3.6501 H   0  0  0  0  0  0  0  0  0  0  0  0
   12.0141   10.5757   -2.7712 H   0  0  0  0  0  0  0  0  0  0  0  0
   12.0644    8.9137   -1.1367 H   0  0  0  0  0  0  0  0  0  0  0  0
   13.6860    8.6062   -1.7196 H   0  0  0  0  0  0  0  0  0  0  0  0
   11.2205    7.0023   -2.1182 H   0  0  0  0  0  0  0  0  0  0  0  0
   12.8758    6.5040   -2.4759 H   0  0  0  0  0  0  0  0  0  0  0  0
    8.9629    9.3722   -7.4667 H   0  0  0  0  0  0  0  0  0  0  0  0
    9.0253    7.6657   -7.8018 H   0  0  0  0  0  0  0  0  0  0  0  0
    9.5725    9.8723   -9.8362 H   0  0  0  0  0  0  0  0  0  0  0  0
    8.0926    8.9809   -9.7159 H   0  0  0  0  0  0  0  0  0  0  0  0
    6.8533    5.1730  -12.5856 H   0  0  0  0  0  0  0  0  0  0  0  0
    7.3836    5.1258  -14.2483 H   0  0  0  0  0  0  0  0  0  0  0  0
    7.0281    2.9723  -12.9647 H   0  0  0  0  0  0  0  0  0  0  0  0
    8.5267    3.3724  -12.1065 H   0  0  0  0  0  0  0  0  0  0  0  0
    7.2087    1.4227  -14.6303 H   0  0  0  0  0  0  0  0  0  0  0  0
    8.4770    0.2159  -16.3697 H   0  0  0  0  0  0  0  0  0  0  0  0
   11.8529    2.7668  -15.7348 H   0  0  0  0  0  0  0  0  0  0  0  0
    9.1901    5.4249  -11.9559 H   0  0  0  0  0  0  0  0  0  0  0  0
  2  1  1  0
  3  2  1  0
  4  3  1  0
  5  4  1  0
  6  5  1  0
  7  6  1  0
  8  7  1  0
  9  8  1  0
 10  9  1  0
 11 10  1  0
 12 11  1  0
 13 12  2  0
 14 12  1  0
 15 14  1  0
 16 15  1  0
 17 16  1  0
 18 14  1  0
 18 17  1  0
 19 10  1  0
 20  7  1  0
 20 19  1  0
 21  4  1  0
 22 21  1  0
 23 22  1  0
 24 23  1  0
 25 24  2  0
 26 25  1  0
 27 26  1  0
 28 26  2  0
 29  2  1  0
 29 23  2  0
 29 28  1  0
 30  1  1  0
 31  1  1  0
 32  1  1  0
  2 33  1  1
 34  3  1  0
 35  3  1  0
 36  5  1  0
 37  5  1  0
 38  6  1  0
 39  6  1  0
  7 40  1  1
 41  8  1  0
 42  8  1  0
 43  9  1  0
 44  9  1  0
 10 45  1  6
 46 11  1  0
 14 47  1  1
 48 15  1  0
 49 15  1  0
 50 16  1  0
 51 16  1  0
 52 17  1  0
 53 17  1  0
 54 19  1  0
 55 19  1  0
 56 20  1  0
 57 20  1  0
 58 21  1  0
 59 21  1  0
 60 22  1  0
 61 22  1  0
 62 24  1  0
 63 25  1  0
 64 28  1  0
  4 65  1  1
M  CHG  1   4   1
M  END
>  <b_m_subgroup_collapsed>  (992) 
0

>  <r_i_docking_score>  (992) 
-7.0111195108956998

>  <s_m_subgroup_title>  (992) 
glide-dock_SP_D22_pv

>  <s_m_subgroupid>  (992) 
glide-dock_SP_D22_pv

>  <Molecule ChEMBL ID>  (992) 
CHEMBL4745809

>  <Standard Type>  (992) 
Ki

>  <Standard Value>  (992) 
20.6

>  <label>  (992) 
1

$$$$
CHEMBL456674
     RDKit          3D

 61 64  0  0  1  0  0  0  0  0999 V2000
   13.4373    8.5358  -16.9714 C   0  0  0  0  0  0  0  0  0  0  0  0
   14.1110    7.3115  -17.2197 O   0  0  0  0  0  0  0  0  0  0  0  0
   13.4034    6.1445  -17.0339 C   0  0  0  0  0  0  0  0  0  0  0  0
   13.9636    4.9646  -17.5608 C   0  0  0  0  0  0  0  0  0  0  0  0
   13.2884    3.7352  -17.4439 C   0  0  0  0  0  0  0  0  0  0  0  0
   12.0522    3.6701  -16.7765 C   0  0  0  0  0  0  0  0  0  0  0  0
   11.4839    4.8396  -16.2346 C   0  0  0  0  0  0  0  0  0  0  0  0
   10.1342    4.7792  -15.5501 C   0  0  0  0  0  0  0  0  0  0  0  0
   10.1996    4.2553  -14.1086 C   0  0  0  0  0  0  0  0  0  0  0  0
    8.8191    4.2634  -13.4691 C   0  0  0  0  0  0  0  0  0  0  0  0
    7.8444    3.3726  -13.9695 C   0  0  0  0  0  0  0  0  0  0  0  0
    6.5381    3.3714  -13.4495 C   0  0  0  0  0  0  0  0  0  0  0  0
    6.2072    4.2483  -12.4053 C   0  0  0  0  0  0  0  0  0  0  0  0
    7.1766    5.1269  -11.8906 C   0  0  0  0  0  0  0  0  0  0  0  0
    8.4977    5.1530  -12.4119 C   0  0  0  0  0  0  0  0  0  0  0  0
    9.4818    6.0046  -11.9384 O   0  0  0  0  0  0  0  0  0  0  0  0
    9.2063    6.7422  -10.7510 C   0  0  0  0  0  0  0  0  0  0  0  0
   10.5059    7.3484  -10.1793 C   0  0  0  0  0  0  0  0  0  0  0  0
   10.3306    7.9996   -8.8742 N   0  0  0  0  0  0  0  0  0  0  0  0
    9.9670    7.0061   -7.8501 C   0  0  0  0  0  0  0  0  0  0  0  0
    9.8266    7.6653   -6.4748 C   0  0  0  0  0  0  0  0  0  0  0  0
   11.0784    8.3095   -6.1117 N   0  0  0  0  0  0  0  0  0  0  0  0
   11.5222    8.2733   -4.8056 C   0  0  0  0  0  0  0  0  0  0  0  0
   11.6860    7.0628   -4.2679 N   0  0  0  0  0  0  0  0  0  0  0  0
   12.0898    7.0082   -2.9849 C   0  0  0  0  0  0  0  0  0  0  0  0
   12.3138    8.1764   -2.2387 C   0  0  0  0  0  0  0  0  0  0  0  0
   12.0862    9.3930   -2.9036 C   0  0  0  0  0  0  0  0  0  0  0  0
   11.7013    9.4412   -4.1921 N   0  0  0  0  0  0  0  0  0  0  0  0
   11.5352    9.2892   -7.0886 C   0  0  0  0  0  0  0  0  0  0  0  0
   11.6051    8.6261   -8.4878 C   0  0  0  0  0  0  0  0  0  0  0  0
   12.1581    6.0724  -16.3605 C   0  0  0  0  0  0  0  0  0  0  0  0
   14.0467    9.3666  -17.3311 H   0  0  0  0  0  0  0  0  0  0  0  0
   12.4873    8.5724  -17.5046 H   0  0  0  0  0  0  0  0  0  0  0  0
   13.2606    8.6859  -15.9057 H   0  0  0  0  0  0  0  0  0  0  0  0
   14.9144    5.0080  -18.0701 H   0  0  0  0  0  0  0  0  0  0  0  0
   13.7279    2.8390  -17.8584 H   0  0  0  0  0  0  0  0  0  0  0  0
   11.5393    2.7233  -16.6892 H   0  0  0  0  0  0  0  0  0  0  0  0
    9.4720    4.1579  -16.1527 H   0  0  0  0  0  0  0  0  0  0  0  0
    9.6909    5.7723  -15.5484 H   0  0  0  0  0  0  0  0  0  0  0  0
   10.9028    4.8529  -13.5289 H   0  0  0  0  0  0  0  0  0  0  0  0
   10.5845    3.2347  -14.0948 H   0  0  0  0  0  0  0  0  0  0  0  0
    8.0966    2.6911  -14.7678 H   0  0  0  0  0  0  0  0  0  0  0  0
    5.7958    2.6912  -13.8423 H   0  0  0  0  0  0  0  0  0  0  0  0
    5.2131    4.2487  -11.9854 H   0  0  0  0  0  0  0  0  0  0  0  0
    6.8677    5.7721  -11.0835 H   0  0  0  0  0  0  0  0  0  0  0  0
    8.7623    6.0614  -10.0293 H   0  0  0  0  0  0  0  0  0  0  0  0
    8.4861    7.5330  -10.9669 H   0  0  0  0  0  0  0  0  0  0  0  0
   10.8907    8.0756  -10.8963 H   0  0  0  0  0  0  0  0  0  0  0  0
   11.2660    6.5727  -10.0899 H   0  0  0  0  0  0  0  0  0  0  0  0
   10.7091    6.2072   -7.8099 H   0  0  0  0  0  0  0  0  0  0  0  0
    9.0056    6.5438   -8.0702 H   0  0  0  0  0  0  0  0  0  0  0  0
    9.5414    6.9139   -5.7354 H   0  0  0  0  0  0  0  0  0  0  0  0
    9.0268    8.4076   -6.4892 H   0  0  0  0  0  0  0  0  0  0  0  0
   12.2259    6.0277   -2.5521 H   0  0  0  0  0  0  0  0  0  0  0  0
   12.6242    8.1523   -1.2048 H   0  0  0  0  0  0  0  0  0  0  0  0
   12.1942   10.3368   -2.3954 H   0  0  0  0  0  0  0  0  0  0  0  0
   10.8851   10.1688   -7.0775 H   0  0  0  0  0  0  0  0  0  0  0  0
   12.5283    9.6428   -6.8100 H   0  0  0  0  0  0  0  0  0  0  0  0
   12.3950    7.8725   -8.4882 H   0  0  0  0  0  0  0  0  0  0  0  0
   11.8845    9.3726   -9.2326 H   0  0  0  0  0  0  0  0  0  0  0  0
   11.7000    6.9539  -15.9382 H   0  0  0  0  0  0  0  0  0  0  0  0
  2  1  1  0
  3  2  1  0
  4  3  1  0
  5  4  2  0
  6  5  1  0
  7  6  2  0
  8  7  1  0
  9  8  1  0
 10  9  1  0
 11 10  2  0
 12 11  1  0
 13 12  2  0
 14 13  1  0
 15 10  1  0
 15 14  2  0
 16 15  1  0
 17 16  1  0
 18 17  1  0
 19 18  1  0
 20 19  1  0
 21 20  1  0
 22 21  1  0
 23 22  1  0
 24 23  2  0
 25 24  1  0
 26 25  2  0
 27 26  1  0
 28 23  1  0
 28 27  2  0
 29 22  1  0
 30 19  1  0
 30 29  1  0
 31  3  2  0
 31  7  1  0
 32  1  1  0
 33  1  1  0
 34  1  1  0
 35  4  1  0
 36  5  1  0
 37  6  1  0
 38  8  1  0
 39  8  1  0
 40  9  1  0
 41  9  1  0
 42 11  1  0
 43 12  1  0
 44 13  1  0
 45 14  1  0
 46 17  1  0
 47 17  1  0
 48 18  1  0
 49 18  1  0
 50 20  1  0
 51 20  1  0
 52 21  1  0
 53 21  1  0
 54 25  1  0
 55 26  1  0
 56 27  1  0
 57 29  1  0
 58 29  1  0
 59 30  1  0
 60 30  1  0
 61 31  1  0
M  END
>  <b_m_subgroup_collapsed>  (993) 
0

>  <r_i_docking_score>  (993) 
-7.0086764472872902

>  <s_m_subgroup_title>  (993) 
glide-dock_SP_D22_pv

>  <s_m_subgroupid>  (993) 
glide-dock_SP_D22_pv

>  <Molecule ChEMBL ID>  (993) 
CHEMBL456674

>  <Standard Type>  (993) 
Ki

>  <Standard Value>  (993) 
629000.0

>  <label>  (993) 
0

$$$$
CHEMBL539518
     RDKit          3D

 39 41  0  0  1  0  0  0  0  0999 V2000
    8.7094    4.4103  -12.1529 C   0  0  0  0  0  0  0  0  0  0  0  0
    9.3663    5.5716  -11.5138 N   0  0  2  0  0  0  0  0  0  0  0  0
    9.6905    5.3294  -10.0939 C   0  0  0  0  0  0  0  0  0  0  0  0
   10.6005    6.4615   -9.5873 C   0  0  0  0  0  0  0  0  0  0  0  0
    9.9085    7.8403   -9.6294 C   0  0  2  0  0  0  0  0  0  0  0  0
    9.2869    8.0431  -11.0371 C   0  0  0  0  0  0  0  0  0  0  0  0
    8.5661    6.8047  -11.6186 C   0  0  0  0  0  0  0  0  0  0  0  0
   10.9100    8.9789   -9.3658 C   0  0  0  0  0  0  0  0  0  0  0  0
   11.4928    8.8129   -7.9733 C   0  0  0  0  0  0  0  0  0  0  0  0
   12.6966    8.9723   -7.7978 O   0  0  0  0  0  0  0  0  0  0  0  0
   10.5606    8.4138   -6.9112 C   0  0  0  0  0  0  0  0  0  0  0  0
   11.0237    8.3287   -5.5173 C   0  0  0  0  0  0  0  0  0  0  0  0
   11.2858    7.0638   -4.9482 C   0  0  0  0  0  0  0  0  0  0  0  0
   11.8150    6.9724   -3.6455 C   0  0  0  0  0  0  0  0  0  0  0  0
   12.0894    8.1425   -2.9128 C   0  0  0  0  0  0  0  0  0  0  0  0
   11.8280    9.4040   -3.4797 C   0  0  0  0  0  0  0  0  0  0  0  0
   11.3004    9.5012   -4.7829 C   0  0  0  0  0  0  0  0  0  0  0  0
    9.3292    8.0044   -7.2996 C   0  0  0  0  0  0  0  0  0  0  0  0
    8.8998    7.8776   -8.6108 O   0  0  0  0  0  0  0  0  0  0  0  0
    7.7655    4.1730  -11.6594 H   0  0  0  0  0  0  0  0  0  0  0  0
    8.5046    4.6140  -13.2040 H   0  0  0  0  0  0  0  0  0  0  0  0
    9.3510    3.5288  -12.1049 H   0  0  0  0  0  0  0  0  0  0  0  0
   10.1590    4.3550   -9.9734 H   0  0  0  0  0  0  0  0  0  0  0  0
    8.7776    5.2836   -9.4967 H   0  0  0  0  0  0  0  0  0  0  0  0
   11.4963    6.5723  -10.1972 H   0  0  0  0  0  0  0  0  0  0  0  0
   10.9375    6.2008   -8.5851 H   0  0  0  0  0  0  0  0  0  0  0  0
    8.5990    8.8895  -11.0158 H   0  0  0  0  0  0  0  0  0  0  0  0
   10.0776    8.3171  -11.7360 H   0  0  0  0  0  0  0  0  0  0  0  0
    8.2575    6.9907  -12.6485 H   0  0  0  0  0  0  0  0  0  0  0  0
    7.6860    6.5722  -11.0468 H   0  0  0  0  0  0  0  0  0  0  0  0
   10.4156    9.9463   -9.4467 H   0  0  0  0  0  0  0  0  0  0  0  0
   11.7173    8.9701  -10.0991 H   0  0  0  0  0  0  0  0  0  0  0  0
   11.0928    6.1633   -5.5123 H   0  0  0  0  0  0  0  0  0  0  0  0
   12.0127    6.0039   -3.2106 H   0  0  0  0  0  0  0  0  0  0  0  0
   12.4925    8.0736   -1.9119 H   0  0  0  0  0  0  0  0  0  0  0  0
   12.0419   10.2999   -2.9129 H   0  0  0  0  0  0  0  0  0  0  0  0
   11.1247   10.4731   -5.2214 H   0  0  0  0  0  0  0  0  0  0  0  0
    8.5746    7.6545   -6.6107 H   0  0  0  0  0  0  0  0  0  0  0  0
   10.2333    5.7259  -12.0087 H   0  0  0  0  0  0  0  0  0  0  0  0
  2  1  1  0
  3  2  1  0
  4  3  1  0
  5  4  1  0
  6  5  1  0
  7  2  1  0
  7  6  1  0
  8  5  1  0
  9  8  1  0
 10  9  2  0
 11  9  1  0
 12 11  1  0
 13 12  2  0
 14 13  1  0
 15 14  2  0
 16 15  1  0
 17 12  1  0
 17 16  2  0
 18 11  2  0
  5 19  1  1
 19 18  1  0
 20  1  1  0
 21  1  1  0
 22  1  1  0
 23  3  1  0
 24  3  1  0
 25  4  1  0
 26  4  1  0
 27  6  1  0
 28  6  1  0
 29  7  1  0
 30  7  1  0
 31  8  1  0
 32  8  1  0
 33 13  1  0
 34 14  1  0
 35 15  1  0
 36 16  1  0
 37 17  1  0
 38 18  1  0
  2 39  1  6
M  CHG  1   2   1
M  END
>  <b_m_subgroup_collapsed>  (994) 
0

>  <r_i_docking_score>  (994) 
-7.00807968847311

>  <s_m_subgroup_title>  (994) 
glide-dock_SP_D22_pv

>  <s_m_subgroupid>  (994) 
glide-dock_SP_D22_pv

>  <Molecule ChEMBL ID>  (994) 
CHEMBL539518

>  <Standard Type>  (994) 
Ki

>  <Standard Value>  (994) 
100000.0

>  <label>  (994) 
0

$$$$
CHEMBL4548837
     RDKit          3D

 51 55  0  0  1  0  0  0  0  0999 V2000
    4.8564   -1.5279  -15.0923 C   0  0  0  0  0  0  0  0  0  0  0  0
    4.8590   -0.1703  -14.3934 C   0  0  0  0  0  0  0  0  0  0  0  0
    3.8310    0.2198  -13.8468 O   0  0  0  0  0  0  0  0  0  0  0  0
    5.9957    0.5571  -14.4006 N   0  0  0  0  0  0  0  0  0  0  0  0
    7.2389    0.1954  -15.0824 C   0  0  0  0  0  0  0  0  0  0  0  0
    8.1115    1.4746  -14.9955 C   0  0  0  0  0  0  0  0  0  0  0  0
    7.3340    2.3849  -14.1637 N   0  0  0  0  0  0  0  0  0  0  0  0
    6.1852    1.8390  -13.8575 C   0  0  0  0  0  0  0  0  0  0  0  0
    5.4849    2.6433  -13.0654 N   0  0  0  0  0  0  0  0  0  0  0  0
    6.2524    3.7705  -12.8239 C   0  0  0  0  0  0  0  0  0  0  0  0
    5.7660    4.8442  -11.9065 C   0  0  0  0  0  0  0  0  0  0  0  0
    7.4455    3.6031  -13.5254 C   0  0  0  0  0  0  0  0  0  0  0  0
    8.6128    4.5197  -13.4153 C   0  0  0  0  0  0  0  0  0  0  0  0
    8.6649    5.6519  -12.6338 C   0  0  0  0  0  0  0  0  0  0  0  0
    9.9431    6.1549  -12.5322 N   0  0  0  0  0  0  0  0  0  0  0  0
   10.3367    7.5127  -11.5284 S   0  0  0  0  0  0  0  0  0  0  0  0
    9.3206    8.5294  -11.8459 O   0  0  0  0  0  0  0  0  0  0  0  0
   11.7672    7.7719  -11.7473 O   0  0  0  0  0  0  0  0  0  0  0  0
   10.1531    7.0507   -9.8019 C   0  0  0  0  0  0  0  0  0  0  0  0
    9.0716    6.2730   -9.3381 C   0  0  0  0  0  0  0  0  0  0  0  0
    8.9206    6.0393   -7.9575 C   0  0  0  0  0  0  0  0  0  0  0  0
    9.8485    6.5732   -7.0433 C   0  0  0  0  0  0  0  0  0  0  0  0
   10.9333    7.3405   -7.5051 C   0  0  0  0  0  0  0  0  0  0  0  0
   11.0832    7.5811   -8.8832 C   0  0  0  0  0  0  0  0  0  0  0  0
   10.7487    5.4888  -13.4464 C   0  0  0  0  0  0  0  0  0  0  0  0
   12.0883    5.6759  -13.8471 C   0  0  0  0  0  0  0  0  0  0  0  0
   12.6465    4.8770  -14.8538 C   0  0  0  0  0  0  0  0  0  0  0  0
   11.8649    3.8905  -15.4641 C   0  0  0  0  0  0  0  0  0  0  0  0
   10.5320    3.7012  -15.0632 C   0  0  0  0  0  0  0  0  0  0  0  0
    9.9229    4.4796  -14.0428 C   0  0  0  0  0  0  0  0  0  0  0  0
    5.5569   -2.2123  -14.6122 H   0  0  0  0  0  0  0  0  0  0  0  0
    3.8596   -1.9670  -15.0519 H   0  0  0  0  0  0  0  0  0  0  0  0
    5.1233   -1.4307  -16.1440 H   0  0  0  0  0  0  0  0  0  0  0  0
    7.0710   -0.1044  -16.1201 H   0  0  0  0  0  0  0  0  0  0  0  0
    7.7160   -0.6287  -14.5528 H   0  0  0  0  0  0  0  0  0  0  0  0
    8.2285    1.9207  -15.9818 H   0  0  0  0  0  0  0  0  0  0  0  0
    9.0751    1.2798  -14.5246 H   0  0  0  0  0  0  0  0  0  0  0  0
    6.4807    4.9942  -11.0984 H   0  0  0  0  0  0  0  0  0  0  0  0
    5.6418    5.7836  -12.4477 H   0  0  0  0  0  0  0  0  0  0  0  0
    4.8244    4.5721  -11.4463 H   0  0  0  0  0  0  0  0  0  0  0  0
    7.9043    6.1603  -12.0669 H   0  0  0  0  0  0  0  0  0  0  0  0
    8.3235    5.8929  -10.0091 H   0  0  0  0  0  0  0  0  0  0  0  0
    8.0740    5.4723   -7.5995 H   0  0  0  0  0  0  0  0  0  0  0  0
    9.7179    6.4040   -5.9855 H   0  0  0  0  0  0  0  0  0  0  0  0
   11.6398    7.7575   -6.8028 H   0  0  0  0  0  0  0  0  0  0  0  0
   11.8997    8.1977   -9.2291 H   0  0  0  0  0  0  0  0  0  0  0  0
   12.7119    6.4380  -13.4115 H   0  0  0  0  0  0  0  0  0  0  0  0
   13.6712    5.0283  -15.1646 H   0  0  0  0  0  0  0  0  0  0  0  0
   12.2892    3.2822  -16.2501 H   0  0  0  0  0  0  0  0  0  0  0  0
    9.9847    2.9643  -15.6043 H   0  0  0  0  0  0  0  0  0  0  0  0
    4.5660    2.4383  -12.6953 H   0  0  0  0  0  0  0  0  0  0  0  0
  2  1  1  0
  3  2  2  0
  4  2  1  0
  5  4  1  0
  6  5  1  0
  7  6  1  0
  8  4  1  0
  8  7  1  0
  9  8  2  0
 10  9  1  0
 11 10  1  0
 12  7  1  0
 12 10  2  0
 13 12  1  0
 14 13  2  0
 15 14  1  0
 16 15  1  0
 17 16  2  0
 18 16  2  0
 19 16  1  0
 20 19  2  0
 21 20  1  0
 22 21  2  0
 23 22  1  0
 24 19  1  0
 24 23  2  0
 25 15  1  0
 26 25  2  0
 27 26  1  0
 28 27  2  0
 29 28  1  0
 30 13  1  0
 30 25  1  0
 30 29  2  0
 31  1  1  0
 32  1  1  0
 33  1  1  0
 34  5  1  0
 35  5  1  0
 36  6  1  0
 37  6  1  0
 38 11  1  0
 39 11  1  0
 40 11  1  0
 41 14  1  0
 42 20  1  0
 43 21  1  0
 44 22  1  0
 45 23  1  0
 46 24  1  0
 47 26  1  0
 48 27  1  0
 49 28  1  0
 50 29  1  0
 51  9  1  0
M  CHG  1   9   1
M  END
>  <b_m_subgroup_collapsed>  (995) 
0

>  <r_i_docking_score>  (995) 
-7.0071536892436601

>  <s_m_subgroup_title>  (995) 
glide-dock_SP_D22_pv

>  <s_m_subgroupid>  (995) 
glide-dock_SP_D22_pv

>  <Molecule ChEMBL ID>  (995) 
CHEMBL4548837

>  <Standard Type>  (995) 
Ki

>  <Standard Value>  (995) 
10000.0

>  <label>  (995) 
0

$$$$
CHEMBL3216146
     RDKit          3D

 59 63  0  0  1  0  0  0  0  0999 V2000
    4.0954   -1.7846  -16.8762 C   0  0  0  0  0  0  0  0  0  0  0  0
    4.1665   -0.9155  -15.7081 N   0  0  0  0  0  0  0  0  0  0  0  0
    2.9607   -0.6359  -14.9410 C   0  0  0  0  0  0  0  0  0  0  0  0
    5.3598   -0.2257  -15.4066 C   0  0  0  0  0  0  0  0  0  0  0  0
    6.4856   -0.2669  -16.2626 C   0  0  0  0  0  0  0  0  0  0  0  0
    7.6781    0.4092  -15.9355 C   0  0  0  0  0  0  0  0  0  0  0  0
    7.7799    1.1672  -14.7481 C   0  0  0  0  0  0  0  0  0  0  0  0
    9.1115    1.7489  -14.2438 C   0  0  0  0  0  0  0  0  0  0  0  0
    9.9865    2.5739  -15.1887 C   0  0  0  0  0  0  0  0  0  0  0  0
   10.6387    1.8205  -16.1899 C   0  0  0  0  0  0  0  0  0  0  0  0
   11.5980    2.3821  -17.0325 C   0  0  0  0  0  0  0  0  0  0  0  0
   11.9761    3.7124  -16.8510 C   0  0  0  0  0  0  0  0  0  0  0  0
   11.3515    4.4604  -15.8160 C   0  0  0  0  0  0  0  0  0  0  0  0
   10.3086    3.9611  -14.9657 C   0  0  0  0  0  0  0  0  0  0  0  0
    9.7912    4.8363  -13.8551 C   0  0  0  0  0  0  0  0  0  0  0  0
   10.7008    5.7717  -13.2973 C   0  0  0  0  0  0  0  0  0  0  0  0
   10.3456    6.6146  -12.2258 C   0  0  0  0  0  0  0  0  0  0  0  0
    9.0457    6.5904  -11.7038 C   0  0  0  0  0  0  0  0  0  0  0  0
    8.0924    5.7446  -12.2875 C   0  0  0  0  0  0  0  0  0  0  0  0
    6.7964    5.7723  -11.8470 O   0  0  0  0  0  0  0  0  0  0  0  0
    8.4563    4.8883  -13.3502 C   0  0  0  0  0  0  0  0  0  0  0  0
    7.4351    4.1744  -13.8853 O   0  0  0  0  0  0  0  0  0  0  0  0
   12.0349    5.9993  -13.9666 C   0  0  0  0  0  0  0  0  0  0  0  0
   11.8424    5.8932  -15.4920 C   0  0  1  0  0  0  0  0  0  0  0  0
   13.0561    6.3543  -16.2242 N   0  0  2  0  0  0  0  0  0  0  0  0
   13.2659    7.8242  -16.1831 C   0  0  0  0  0  0  0  0  0  0  0  0
   13.0614    5.8801  -17.6155 C   0  0  0  0  0  0  0  0  0  0  0  0
   13.1157    4.3665  -17.6097 C   0  0  0  0  0  0  0  0  0  0  0  0
    6.6297    1.2670  -13.9368 C   0  0  0  0  0  0  0  0  0  0  0  0
    5.4537    0.5693  -14.2419 C   0  0  0  0  0  0  0  0  0  0  0  0
    4.8150   -2.6009  -16.7908 H   0  0  0  0  0  0  0  0  0  0  0  0
    4.3014   -1.2281  -17.7911 H   0  0  0  0  0  0  0  0  0  0  0  0
    3.1070   -2.2282  -16.9804 H   0  0  0  0  0  0  0  0  0  0  0  0
    2.8148    0.4355  -14.8145 H   0  0  0  0  0  0  0  0  0  0  0  0
    3.0133   -1.1020  -13.9576 H   0  0  0  0  0  0  0  0  0  0  0  0
    2.0861   -1.0276  -15.4472 H   0  0  0  0  0  0  0  0  0  0  0  0
    6.4687   -0.8496  -17.1707 H   0  0  0  0  0  0  0  0  0  0  0  0
    8.5086    0.2910  -16.6059 H   0  0  0  0  0  0  0  0  0  0  0  0
    8.9715    2.2979  -13.3213 H   0  0  0  0  0  0  0  0  0  0  0  0
    9.7063    0.8882  -13.9383 H   0  0  0  0  0  0  0  0  0  0  0  0
   10.4616    0.7609  -16.2784 H   0  0  0  0  0  0  0  0  0  0  0  0
   12.0950    1.7685  -17.7703 H   0  0  0  0  0  0  0  0  0  0  0  0
   11.0586    7.3156  -11.8188 H   0  0  0  0  0  0  0  0  0  0  0  0
    8.7695    7.2543  -10.8969 H   0  0  0  0  0  0  0  0  0  0  0  0
    6.6299    6.4484  -11.1861 H   0  0  0  0  0  0  0  0  0  0  0  0
    6.6467    4.3849  -13.4016 H   0  0  0  0  0  0  0  0  0  0  0  0
   12.4176    6.9716  -13.6648 H   0  0  0  0  0  0  0  0  0  0  0  0
   12.7483    5.2555  -13.6110 H   0  0  0  0  0  0  0  0  0  0  0  0
   11.0321    6.5591  -15.7964 H   0  0  0  0  0  0  0  0  0  0  0  0
   12.4855    8.3500  -16.7329 H   0  0  0  0  0  0  0  0  0  0  0  0
   14.2175    8.0807  -16.6490 H   0  0  0  0  0  0  0  0  0  0  0  0
   13.2866    8.2229  -15.1726 H   0  0  0  0  0  0  0  0  0  0  0  0
   12.1723    6.2341  -18.1391 H   0  0  0  0  0  0  0  0  0  0  0  0
   13.9301    6.2720  -18.1483 H   0  0  0  0  0  0  0  0  0  0  0  0
   14.0568    4.0257  -17.1755 H   0  0  0  0  0  0  0  0  0  0  0  0
   13.1023    4.0033  -18.6380 H   0  0  0  0  0  0  0  0  0  0  0  0
    6.6254    1.8701  -13.0472 H   0  0  0  0  0  0  0  0  0  0  0  0
    4.6277    0.6667  -13.5556 H   0  0  0  0  0  0  0  0  0  0  0  0
   13.8464    5.9215  -15.7671 H   0  0  0  0  0  0  0  0  0  0  0  0
  2  1  1  0
  3  2  1  0
  4  2  1  0
  5  4  1  0
  6  5  2  0
  7  6  1  0
  8  7  1  0
  9  8  1  0
 10  9  1  0
 11 10  2  0
 12 11  1  0
 13 12  2  0
 14  9  2  0
 14 13  1  0
 15 14  1  0
 16 15  2  0
 17 16  1  0
 18 17  2  0
 19 18  1  0
 20 19  1  0
 21 15  1  0
 21 19  2  0
 22 21  1  0
 23 16  1  0
 24 13  1  0
 24 23  1  0
 25 24  1  0
 26 25  1  0
 27 25  1  0
 28 12  1  0
 28 27  1  0
 29  7  2  0
 30  4  2  0
 30 29  1  0
 31  1  1  0
 32  1  1  0
 33  1  1  0
 34  3  1  0
 35  3  1  0
 36  3  1  0
 37  5  1  0
 38  6  1  0
 39  8  1  0
 40  8  1  0
 41 10  1  0
 42 11  1  0
 43 17  1  0
 44 18  1  0
 45 20  1  0
 46 22  1  0
 47 23  1  0
 48 23  1  0
 24 49  1  6
 50 26  1  0
 51 26  1  0
 52 26  1  0
 53 27  1  0
 54 27  1  0
 55 28  1  0
 56 28  1  0
 57 29  1  0
 58 30  1  0
 25 59  1  1
M  CHG  1  25   1
M  END
>  <b_m_subgroup_collapsed>  (996) 
0

>  <r_i_docking_score>  (996) 
-7.0058859356491103

>  <s_m_subgroup_title>  (996) 
glide-dock_SP_D22_pv

>  <s_m_subgroupid>  (996) 
glide-dock_SP_D22_pv

>  <Molecule ChEMBL ID>  (996) 
CHEMBL3216146

>  <Standard Type>  (996) 
Ki

>  <Standard Value>  (996) 
79.0

>  <label>  (996) 
1

$$$$
CHEMBL241102
     RDKit          3D

 56 59  0  0  1  0  0  0  0  0999 V2000
   11.6817   10.5195   -5.8779 C   0  0  0  0  0  0  0  0  0  0  0  0
   12.4125    9.3724   -6.2860 O   0  0  0  0  0  0  0  0  0  0  0  0
   11.6873    8.5313   -7.0845 C   0  0  0  0  0  0  0  0  0  0  0  0
   11.9515    8.5208   -8.4636 C   0  0  0  0  0  0  0  0  0  0  0  0
   11.1202    7.7980   -9.3322 C   0  0  0  0  0  0  0  0  0  0  0  0
   10.0393    7.0585   -8.8155 C   0  0  0  0  0  0  0  0  0  0  0  0
    9.8444    6.9766   -7.4231 C   0  0  0  0  0  0  0  0  0  0  0  0
   10.6908    7.6848   -6.5513 C   0  0  0  0  0  0  0  0  0  0  0  0
   10.5184    7.5376   -5.2031 O   0  0  0  0  0  0  0  0  0  0  0  0
   11.6423    6.9980   -4.5174 C   0  0  0  0  0  0  0  0  0  0  0  0
    9.0737    6.3583   -9.7451 C   0  0  0  0  0  0  0  0  0  0  0  0
    9.1221    6.7853  -11.1623 N   0  0  0  0  0  0  0  0  0  0  0  0
    8.3138    6.2253  -12.0814 C   0  0  0  0  0  0  0  0  0  0  0  0
    7.3694    5.3255  -11.7650 N   0  0  0  0  0  0  0  0  0  0  0  0
    7.1379    4.2329  -12.6554 C   0  0  0  0  0  0  0  0  0  0  0  0
    5.8821    3.5844  -12.6485 C   0  0  0  0  0  0  0  0  0  0  0  0
    5.6843    2.4359  -13.4465 C   0  0  0  0  0  0  0  0  0  0  0  0
    6.7505    1.9786  -14.2451 C   0  0  0  0  0  0  0  0  0  0  0  0
    7.9807    2.6269  -14.2471 C   0  0  0  0  0  0  0  0  0  0  0  0
    8.2037    3.7713  -13.4602 C   0  0  0  0  0  0  0  0  0  0  0  0
    8.9880    1.9104  -15.1075 C   0  0  2  0  0  0  0  0  0  0  0  0
    9.3452    2.6922  -16.2386 O   0  0  0  0  0  0  0  0  0  0  0  0
   10.4858    2.4326  -16.9015 C   0  0  0  0  0  0  0  0  0  0  0  0
   10.7133    3.3901  -18.0629 C   0  0  0  0  0  0  0  0  0  0  0  0
   11.2845    1.5321  -16.6440 O   0  0  0  0  0  0  0  0  0  0  0  0
    8.2512    0.6067  -15.5208 C   0  0  0  0  0  0  0  0  0  0  0  0
    6.7622    0.7649  -15.1336 C   0  0  0  0  0  0  0  0  0  0  0  0
   10.0108    7.8841  -11.5762 C   0  0  0  0  0  0  0  0  0  0  0  0
   11.3445    7.8655  -10.8228 C   0  0  0  0  0  0  0  0  0  0  0  0
   11.6304   10.5643   -4.7912 H   0  0  0  0  0  0  0  0  0  0  0  0
   12.1876   11.4122   -6.2452 H   0  0  0  0  0  0  0  0  0  0  0  0
   10.6598   10.5491   -6.2585 H   0  0  0  0  0  0  0  0  0  0  0  0
   12.7764    9.0888   -8.8603 H   0  0  0  0  0  0  0  0  0  0  0  0
    9.0421    6.3759   -7.0178 H   0  0  0  0  0  0  0  0  0  0  0  0
   11.3295    6.6738   -3.5249 H   0  0  0  0  0  0  0  0  0  0  0  0
   12.0347    6.1229   -5.0373 H   0  0  0  0  0  0  0  0  0  0  0  0
   12.4536    7.7188   -4.3928 H   0  0  0  0  0  0  0  0  0  0  0  0
    8.0784    6.5361   -9.3561 H   0  0  0  0  0  0  0  0  0  0  0  0
    9.2546    5.2846   -9.6914 H   0  0  0  0  0  0  0  0  0  0  0  0
    8.4224    6.5158  -13.1200 H   0  0  0  0  0  0  0  0  0  0  0  0
    5.0868    3.9445  -12.0129 H   0  0  0  0  0  0  0  0  0  0  0  0
    4.7380    1.9150  -13.4382 H   0  0  0  0  0  0  0  0  0  0  0  0
    9.1751    4.2433  -13.4437 H   0  0  0  0  0  0  0  0  0  0  0  0
    9.8681    1.6842  -14.5027 H   0  0  0  0  0  0  0  0  0  0  0  0
   10.6406    4.4233  -17.7238 H   0  0  0  0  0  0  0  0  0  0  0  0
   11.7014    3.2354  -18.4950 H   0  0  0  0  0  0  0  0  0  0  0  0
    9.9665    3.2248  -18.8391 H   0  0  0  0  0  0  0  0  0  0  0  0
    8.3892    0.3353  -16.5680 H   0  0  0  0  0  0  0  0  0  0  0  0
    8.6674   -0.2139  -14.9341 H   0  0  0  0  0  0  0  0  0  0  0  0
    6.3767   -0.1146  -14.6166 H   0  0  0  0  0  0  0  0  0  0  0  0
    6.1459    0.9522  -16.0136 H   0  0  0  0  0  0  0  0  0  0  0  0
   10.1988    7.8235  -12.6455 H   0  0  0  0  0  0  0  0  0  0  0  0
    9.4877    8.8238  -11.3943 H   0  0  0  0  0  0  0  0  0  0  0  0
   11.9196    8.7645  -11.0457 H   0  0  0  0  0  0  0  0  0  0  0  0
   11.9475    7.0119  -11.1342 H   0  0  0  0  0  0  0  0  0  0  0  0
    6.7695    5.5123  -10.9675 H   0  0  0  0  0  0  0  0  0  0  0  0
  2  1  1  0
  3  2  1  0
  4  3  2  0
  5  4  1  0
  6  5  2  0
  7  6  1  0
  8  3  1  0
  8  7  2  0
  9  8  1  0
 10  9  1  0
 11  6  1  0
 12 11  1  0
 13 12  2  3
 14 13  1  0
 15 14  1  0
 16 15  1  0
 17 16  2  0
 18 17  1  0
 19 18  2  0
 20 15  2  0
 20 19  1  0
 21 19  1  0
 22 21  1  0
 23 22  1  0
 24 23  1  0
 25 23  2  0
 26 21  1  0
 27 18  1  0
 27 26  1  0
 28 12  1  0
 29  5  1  0
 29 28  1  0
 30  1  1  0
 31  1  1  0
 32  1  1  0
 33  4  1  0
 34  7  1  0
 35 10  1  0
 36 10  1  0
 37 10  1  0
 38 11  1  0
 39 11  1  0
 40 13  1  0
 41 16  1  0
 42 17  1  0
 43 20  1  0
 21 44  1  1
 45 24  1  0
 46 24  1  0
 47 24  1  0
 48 26  1  0
 49 26  1  0
 50 27  1  0
 51 27  1  0
 52 28  1  0
 53 28  1  0
 54 29  1  0
 55 29  1  0
 56 14  1  0
M  CHG  1  12   1
M  END
>  <b_m_subgroup_collapsed>  (997) 
0

>  <r_i_docking_score>  (997) 
-7.0045722889897197

>  <s_m_subgroup_title>  (997) 
glide-dock_SP_D22_pv

>  <s_m_subgroupid>  (997) 
glide-dock_SP_D22_pv

>  <Molecule ChEMBL ID>  (997) 
CHEMBL241102

>  <Standard Type>  (997) 
Ki

>  <Standard Value>  (997) 
12000.0

>  <label>  (997) 
0

$$$$
CHEMBL3526391
     RDKit          3D

 39 42  0  0  1  0  0  0  0  0999 V2000
   12.5883    6.9262  -15.9213 C   0  0  0  0  0  0  0  0  0  0  0  0
   12.3976    5.7032  -16.5864 C   0  0  0  0  0  0  0  0  0  0  0  0
   11.7214    4.6558  -15.9361 C   0  0  0  0  0  0  0  0  0  0  0  0
   11.2232    4.8299  -14.6298 C   0  0  0  0  0  0  0  0  0  0  0  0
   11.3662    6.0760  -13.9629 C   0  0  0  0  0  0  0  0  0  0  0  0
   12.0863    7.1003  -14.6183 C   0  0  0  0  0  0  0  0  0  0  0  0
   10.9428    6.3671  -12.6562 N   0  0  0  0  0  0  0  0  0  0  0  0
    9.8126    6.0339  -12.1118 C   0  0  0  0  0  0  0  0  0  0  0  0
    9.5664    6.3850  -10.7819 N   0  0  0  0  0  0  0  0  0  0  0  0
    9.4745    7.8093  -10.4460 C   0  0  0  0  0  0  0  0  0  0  0  0
    9.6931    8.0959   -8.9491 C   0  0  0  0  0  0  0  0  0  0  0  0
    8.8860    7.1927   -8.1038 N   0  0  0  0  0  0  0  0  0  0  0  0
    9.1545    5.7732   -8.3973 C   0  0  0  0  0  0  0  0  0  0  0  0
    8.8689    5.4705   -9.8727 C   0  0  0  0  0  0  0  0  0  0  0  0
    8.6989    5.2718  -12.7941 C   0  0  0  0  0  0  0  0  0  0  0  0
    7.3713    5.7194  -12.5961 C   0  0  0  0  0  0  0  0  0  0  0  0
    6.2742    4.9673  -13.0464 C   0  0  0  0  0  0  0  0  0  0  0  0
    6.4807    3.7782  -13.7654 C   0  0  0  0  0  0  0  0  0  0  0  0
    7.7922    3.3515  -14.0294 C   0  0  0  0  0  0  0  0  0  0  0  0
    8.8920    4.0836  -13.5420 C   0  0  0  0  0  0  0  0  0  0  0  0
   10.4895    3.4413  -13.8468 S   0  0  0  0  0  0  0  0  0  0  0  0
   13.1216    7.7295  -16.4091 H   0  0  0  0  0  0  0  0  0  0  0  0
   12.7867    5.5613  -17.5846 H   0  0  0  0  0  0  0  0  0  0  0  0
   11.6043    3.7055  -16.4358 H   0  0  0  0  0  0  0  0  0  0  0  0
   12.2493    8.0454  -14.1207 H   0  0  0  0  0  0  0  0  0  0  0  0
   10.1957    8.3866  -11.0287 H   0  0  0  0  0  0  0  0  0  0  0  0
    8.4896    8.1657  -10.7490 H   0  0  0  0  0  0  0  0  0  0  0  0
   10.7463    7.9645   -8.6966 H   0  0  0  0  0  0  0  0  0  0  0  0
    9.4363    9.1304   -8.7204 H   0  0  0  0  0  0  0  0  0  0  0  0
    9.0618    7.3789   -7.1280 H   0  0  0  0  0  0  0  0  0  0  0  0
   10.1927    5.5362   -8.1565 H   0  0  0  0  0  0  0  0  0  0  0  0
    8.5238    5.1500   -7.7653 H   0  0  0  0  0  0  0  0  0  0  0  0
    7.7929    5.5512  -10.0359 H   0  0  0  0  0  0  0  0  0  0  0  0
    9.1471    4.4389  -10.0967 H   0  0  0  0  0  0  0  0  0  0  0  0
    7.1744    6.6240  -12.0402 H   0  0  0  0  0  0  0  0  0  0  0  0
    5.2772    5.3194  -12.8468 H   0  0  0  0  0  0  0  0  0  0  0  0
    5.6402    3.2041  -14.1242 H   0  0  0  0  0  0  0  0  0  0  0  0
    7.9557    2.4402  -14.5863 H   0  0  0  0  0  0  0  0  0  0  0  0
    7.8970    7.3683   -8.2832 H   0  0  0  0  0  0  0  0  0  0  0  0
  2  1  2  0
  3  2  1  0
  4  3  2  0
  5  4  1  0
  6  1  1  0
  6  5  2  0
  7  5  1  0
  8  7  2  0
  9  8  1  0
 10  9  1  0
 11 10  1  0
 12 11  1  0
 13 12  1  0
 14  9  1  0
 14 13  1  0
 15  8  1  0
 16 15  2  0
 17 16  1  0
 18 17  2  0
 19 18  1  0
 20 15  1  0
 20 19  2  0
 21  4  1  0
 21 20  1  0
 22  1  1  0
 23  2  1  0
 24  3  1  0
 25  6  1  0
 26 10  1  0
 27 10  1  0
 28 11  1  0
 29 11  1  0
 30 12  1  0
 31 13  1  0
 32 13  1  0
 33 14  1  0
 34 14  1  0
 35 16  1  0
 36 17  1  0
 37 18  1  0
 38 19  1  0
 39 12  1  0
M  CHG  1  12   1
M  END
>  <b_m_subgroup_collapsed>  (998) 
0

>  <r_i_docking_score>  (998) 
-6.9917063672427497

>  <s_m_subgroup_title>  (998) 
glide-dock_SP_D22_pv

>  <s_m_subgroupid>  (998) 
glide-dock_SP_D22_pv

>  <Molecule ChEMBL ID>  (998) 
CHEMBL3526391

>  <Standard Type>  (998) 
Ki

>  <Standard Value>  (998) 
37.0

>  <label>  (998) 
1

$$$$
CHEMBL392888
     RDKit          3D

 42 44  0  0  1  0  0  0  0  0999 V2000
    9.6927    4.0327   -9.1358 C   0  0  0  0  0  0  0  0  0  0  0  0
    9.4692    5.4663   -8.9461 N   0  0  0  0  0  0  0  0  0  0  0  0
    9.9205    5.9980   -7.7960 C   0  0  0  0  0  0  0  0  0  0  0  0
    9.5868    7.2168   -7.3463 N   0  0  0  0  0  0  0  0  0  0  0  0
   10.4056    7.8528   -6.3561 C   0  0  0  0  0  0  0  0  0  0  0  0
   10.5917    9.2458   -6.4738 C   0  0  0  0  0  0  0  0  0  0  0  0
   11.3030    9.9499   -5.4828 C   0  0  0  0  0  0  0  0  0  0  0  0
   11.8207    9.2222   -4.3986 C   0  0  0  0  0  0  0  0  0  0  0  0
   11.6855    7.8447   -4.3017 C   0  0  0  0  0  0  0  0  0  0  0  0
   10.9658    7.1250   -5.2768 C   0  0  0  0  0  0  0  0  0  0  0  0
   12.2862    7.3240   -3.0182 C   0  0  2  0  0  0  0  0  0  0  0  0
   11.3807    6.5722   -2.2470 O   0  0  0  0  0  0  0  0  0  0  0  0
   12.6830    8.6022   -2.2384 C   0  0  0  0  0  0  0  0  0  0  0  0
   12.5255    9.7836   -3.2069 C   0  0  0  0  0  0  0  0  0  0  0  0
    8.7220    6.2086   -9.9835 C   0  0  0  0  0  0  0  0  0  0  0  0
    9.2630    5.9784  -11.3864 C   0  0  0  0  0  0  0  0  0  0  0  0
   10.4722    6.5811  -11.7941 C   0  0  0  0  0  0  0  0  0  0  0  0
   11.0316    6.2656  -13.0475 C   0  0  0  0  0  0  0  0  0  0  0  0
   10.3715    5.3678  -13.9082 C   0  0  0  0  0  0  0  0  0  0  0  0
    9.1424    4.7982  -13.5232 C   0  0  0  0  0  0  0  0  0  0  0  0
    8.5882    5.1039  -12.2651 C   0  0  0  0  0  0  0  0  0  0  0  0
    9.6910    3.7725  -10.1910 H   0  0  0  0  0  0  0  0  0  0  0  0
   10.6599    3.7347   -8.7379 H   0  0  0  0  0  0  0  0  0  0  0  0
    8.9190    3.4620   -8.6220 H   0  0  0  0  0  0  0  0  0  0  0  0
   10.6106    5.4012   -7.2163 H   0  0  0  0  0  0  0  0  0  0  0  0
   10.1612    9.7725   -7.3107 H   0  0  0  0  0  0  0  0  0  0  0  0
   11.4298   11.0205   -5.5446 H   0  0  0  0  0  0  0  0  0  0  0  0
   10.8089    6.0648   -5.1573 H   0  0  0  0  0  0  0  0  0  0  0  0
   13.1693    6.7283   -3.2364 H   0  0  0  0  0  0  0  0  0  0  0  0
   11.2853    5.7075   -2.6213 H   0  0  0  0  0  0  0  0  0  0  0  0
   11.9975    8.7594   -1.4045 H   0  0  0  0  0  0  0  0  0  0  0  0
   13.6863    8.5723   -1.8137 H   0  0  0  0  0  0  0  0  0  0  0  0
   13.4880   10.1721   -3.5319 H   0  0  0  0  0  0  0  0  0  0  0  0
   11.9506   10.5893   -2.7532 H   0  0  0  0  0  0  0  0  0  0  0  0
    7.6808    5.8979   -9.9399 H   0  0  0  0  0  0  0  0  0  0  0  0
    8.7414    7.2788   -9.7821 H   0  0  0  0  0  0  0  0  0  0  0  0
   10.9931    7.2566  -11.1312 H   0  0  0  0  0  0  0  0  0  0  0  0
   11.9699    6.7090  -13.3477 H   0  0  0  0  0  0  0  0  0  0  0  0
   10.8009    5.1270  -14.8696 H   0  0  0  0  0  0  0  0  0  0  0  0
    8.6308    4.1168  -14.1869 H   0  0  0  0  0  0  0  0  0  0  0  0
    7.6581    4.6420  -11.9656 H   0  0  0  0  0  0  0  0  0  0  0  0
    8.9512    7.7646   -7.9117 H   0  0  0  0  0  0  0  0  0  0  0  0
  2  1  1  0
  3  2  2  3
  4  3  1  0
  5  4  1  0
  6  5  1  0
  7  6  2  0
  8  7  1  0
  9  8  2  0
 10  5  2  0
 10  9  1  0
 11  9  1  0
 12 11  1  0
 13 11  1  0
 14  8  1  0
 14 13  1  0
 15  2  1  0
 16 15  1  0
 17 16  2  0
 18 17  1  0
 19 18  2  0
 20 19  1  0
 21 16  1  0
 21 20  2  0
 22  1  1  0
 23  1  1  0
 24  1  1  0
 25  3  1  0
 26  6  1  0
 27  7  1  0
 28 10  1  0
 11 29  1  6
 30 12  1  0
 31 13  1  0
 32 13  1  0
 33 14  1  0
 34 14  1  0
 35 15  1  0
 36 15  1  0
 37 17  1  0
 38 18  1  0
 39 19  1  0
 40 20  1  0
 41 21  1  0
 42  4  1  0
M  CHG  1   2   1
M  END
>  <b_m_subgroup_collapsed>  (999) 
0

>  <r_i_docking_score>  (999) 
-6.9909100553168404

>  <s_m_subgroup_title>  (999) 
glide-dock_SP_D22_pv

>  <s_m_subgroupid>  (999) 
glide-dock_SP_D22_pv

>  <Molecule ChEMBL ID>  (999) 
CHEMBL392888

>  <Standard Type>  (999) 
Ki

>  <Standard Value>  (999) 
59000.0

>  <label>  (999) 
0

$$$$
CHEMBL2048230
     RDKit          3D

 41 42  0  0  1  0  0  0  0  0999 V2000
    6.0577    4.1888  -13.1627 C   0  0  0  0  0  0  0  0  0  0  0  0
    6.6710    4.7591  -11.8807 C   0  0  0  0  0  0  0  0  0  0  0  0
    8.0198    5.4749  -12.0925 C   0  0  0  0  0  0  0  0  0  0  0  0
    8.4828    6.1705  -10.8639 N   0  0  2  0  0  0  0  0  0  0  0  0
    9.5529    7.1676  -11.1301 C   0  0  0  0  0  0  0  0  0  0  0  0
    9.9068    7.9632   -9.8588 C   0  0  0  0  0  0  0  0  0  0  0  0
   10.3151    7.0311   -8.6936 C   0  0  1  0  0  0  0  0  0  0  0  0
   10.6771    7.7463   -7.3879 C   0  0  0  0  0  0  0  0  0  0  0  0
   10.7436    9.1518   -7.2961 C   0  0  0  0  0  0  0  0  0  0  0  0
   11.0690    9.7839   -6.0811 C   0  0  0  0  0  0  0  0  0  0  0  0
   11.3463    9.0311   -4.9260 C   0  0  0  0  0  0  0  0  0  0  0  0
   11.6554    9.7325   -3.7803 O   0  0  0  0  0  0  0  0  0  0  0  0
   12.0728    9.0022   -2.6370 C   0  0  0  0  0  0  0  0  0  0  0  0
   11.2891    7.6179   -5.0139 C   0  0  0  0  0  0  0  0  0  0  0  0
   10.9683    6.9881   -6.2316 C   0  0  0  0  0  0  0  0  0  0  0  0
    9.1840    6.0063   -8.4843 C   0  0  0  0  0  0  0  0  0  0  0  0
    8.8764    5.2402   -9.7750 C   0  0  0  0  0  0  0  0  0  0  0  0
    5.1479    3.6304  -12.9389 H   0  0  0  0  0  0  0  0  0  0  0  0
    5.7795    4.9848  -13.8481 H   0  0  0  0  0  0  0  0  0  0  0  0
    6.7435    3.5159  -13.6779 H   0  0  0  0  0  0  0  0  0  0  0  0
    6.7848    3.9347  -11.1773 H   0  0  0  0  0  0  0  0  0  0  0  0
    5.9540    5.4569  -11.4466 H   0  0  0  0  0  0  0  0  0  0  0  0
    7.8978    6.2088  -12.8896 H   0  0  0  0  0  0  0  0  0  0  0  0
    8.7775    4.7673  -12.4340 H   0  0  0  0  0  0  0  0  0  0  0  0
    9.2202    7.8566  -11.9067 H   0  0  0  0  0  0  0  0  0  0  0  0
   10.4383    6.6586  -11.5139 H   0  0  0  0  0  0  0  0  0  0  0  0
    9.0467    8.5686   -9.5642 H   0  0  0  0  0  0  0  0  0  0  0  0
   10.7138    8.6600  -10.0905 H   0  0  0  0  0  0  0  0  0  0  0  0
   11.2161    6.4980   -8.9975 H   0  0  0  0  0  0  0  0  0  0  0  0
   10.5455    9.7629   -8.1571 H   0  0  0  0  0  0  0  0  0  0  0  0
   11.1095   10.8627   -6.0311 H   0  0  0  0  0  0  0  0  0  0  0  0
   12.3192    9.7032   -1.8405 H   0  0  0  0  0  0  0  0  0  0  0  0
   11.2860    8.3458   -2.2675 H   0  0  0  0  0  0  0  0  0  0  0  0
   12.9627    8.4085   -2.8435 H   0  0  0  0  0  0  0  0  0  0  0  0
   11.4925    6.9928   -4.1575 H   0  0  0  0  0  0  0  0  0  0  0  0
   10.9562    5.9089   -6.2626 H   0  0  0  0  0  0  0  0  0  0  0  0
    9.4445    5.2846   -7.7125 H   0  0  0  0  0  0  0  0  0  0  0  0
    8.2854    6.5153   -8.1306 H   0  0  0  0  0  0  0  0  0  0  0  0
    8.0855    4.5281   -9.5558 H   0  0  0  0  0  0  0  0  0  0  0  0
    9.7423    4.6503  -10.0817 H   0  0  0  0  0  0  0  0  0  0  0  0
    7.6776    6.7105  -10.5353 H   0  0  0  0  0  0  0  0  0  0  0  0
  2  1  1  0
  3  2  1  0
  4  3  1  0
  5  4  1  0
  6  5  1  0
  7  6  1  0
  8  7  1  0
  9  8  2  0
 10  9  1  0
 11 10  2  0
 12 11  1  0
 13 12  1  0
 14 11  1  0
 15  8  1  0
 15 14  2  0
 16  7  1  0
 17  4  1  0
 17 16  1  0
 18  1  1  0
 19  1  1  0
 20  1  1  0
 21  2  1  0
 22  2  1  0
 23  3  1  0
 24  3  1  0
 25  5  1  0
 26  5  1  0
 27  6  1  0
 28  6  1  0
  7 29  1  6
 30  9  1  0
 31 10  1  0
 32 13  1  0
 33 13  1  0
 34 13  1  0
 35 14  1  0
 36 15  1  0
 37 16  1  0
 38 16  1  0
 39 17  1  0
 40 17  1  0
  4 41  1  1
M  CHG  1   4   1
M  END
>  <b_m_subgroup_collapsed>  (1000) 
0

>  <r_i_docking_score>  (1000) 
-6.9889308585736796

>  <s_m_subgroup_title>  (1000) 
glide-dock_SP_D22_pv

>  <s_m_subgroupid>  (1000) 
glide-dock_SP_D22_pv

>  <Molecule ChEMBL ID>  (1000) 
CHEMBL2048230

>  <Standard Type>  (1000) 
Ki

>  <Standard Value>  (1000) 
23000.0

>  <label>  (1000) 
0

$$$$
CHEMBL561054
     RDKit          3D

 47 49  0  0  1  0  0  0  0  0999 V2000
    7.1123    6.8147  -12.7021 C   0  0  0  0  0  0  0  0  0  0  0  0
    7.4446    5.6100  -11.7946 C   0  0  1  0  0  0  0  0  0  0  0  0
    6.8367    4.2984  -12.3284 C   0  0  0  0  0  0  0  0  0  0  0  0
    7.5622    3.7999  -13.5863 C   0  0  0  0  0  0  0  0  0  0  0  0
    9.0739    3.6954  -13.3460 C   0  0  0  0  0  0  0  0  0  0  0  0
    9.6469    5.0058  -12.7899 C   0  0  0  0  0  0  0  0  0  0  0  0
    8.9098    5.4334  -11.5685 N   0  0  1  0  0  0  0  0  0  0  0  0
    9.5705    6.5440  -10.8358 C   0  0  0  0  0  0  0  0  0  0  0  0
    9.2978    6.4472   -9.3268 C   0  0  0  0  0  0  0  0  0  0  0  0
   10.0344    7.4154   -8.5120 N   0  0  0  0  0  0  0  0  0  0  0  0
   10.8531    8.4973   -9.0404 C   0  0  0  0  0  0  0  0  0  0  0  0
   11.5055    9.0721   -7.7832 C   0  0  0  0  0  0  0  0  0  0  0  0
   10.9400    8.2638   -6.7165 N   0  0  0  0  0  0  0  0  0  0  0  0
   11.2989    8.4359   -5.3556 C   0  0  0  0  0  0  0  0  0  0  0  0
   11.3094    9.7272   -4.7910 C   0  0  0  0  0  0  0  0  0  0  0  0
   11.6861    9.8987   -3.4467 C   0  0  0  0  0  0  0  0  0  0  0  0
   12.0860    8.8061   -2.6648 C   0  0  0  0  0  0  0  0  0  0  0  0
   12.0706    7.5197   -3.2236 C   0  0  0  0  0  0  0  0  0  0  0  0
   12.4860    6.1764   -2.2469 Cl  0  0  0  0  0  0  0  0  0  0  0  0
   11.6813    7.3285   -4.5621 C   0  0  0  0  0  0  0  0  0  0  0  0
   10.0636    7.3575   -7.1758 C   0  0  0  0  0  0  0  0  0  0  0  0
    9.4155    6.5723   -6.4914 O   0  0  0  0  0  0  0  0  0  0  0  0
    6.0525    6.8288  -12.9614 H   0  0  0  0  0  0  0  0  0  0  0  0
    7.3266    7.7779  -12.2468 H   0  0  0  0  0  0  0  0  0  0  0  0
    7.6862    6.7868  -13.6229 H   0  0  0  0  0  0  0  0  0  0  0  0
    6.9718    5.7723  -10.8284 H   0  0  0  0  0  0  0  0  0  0  0  0
    5.7749    4.4347  -12.5385 H   0  0  0  0  0  0  0  0  0  0  0  0
    6.8855    3.5383  -11.5480 H   0  0  0  0  0  0  0  0  0  0  0  0
    7.3762    4.4932  -14.4026 H   0  0  0  0  0  0  0  0  0  0  0  0
    7.1607    2.8346  -13.8965 H   0  0  0  0  0  0  0  0  0  0  0  0
    9.5802    3.4306  -14.2752 H   0  0  0  0  0  0  0  0  0  0  0  0
    9.2874    2.8901  -12.6468 H   0  0  0  0  0  0  0  0  0  0  0  0
    9.6272    5.7849  -13.5499 H   0  0  0  0  0  0  0  0  0  0  0  0
   10.6993    4.8425  -12.5608 H   0  0  0  0  0  0  0  0  0  0  0  0
    9.2724    7.5156  -11.2284 H   0  0  0  0  0  0  0  0  0  0  0  0
   10.6462    6.4780  -10.9908 H   0  0  0  0  0  0  0  0  0  0  0  0
    9.5588    5.4447   -8.9816 H   0  0  0  0  0  0  0  0  0  0  0  0
    8.2342    6.5723   -9.1184 H   0  0  0  0  0  0  0  0  0  0  0  0
   11.6079    8.1359   -9.7389 H   0  0  0  0  0  0  0  0  0  0  0  0
   10.2299    9.2374   -9.5435 H   0  0  0  0  0  0  0  0  0  0  0  0
   11.2856   10.1295   -7.6463 H   0  0  0  0  0  0  0  0  0  0  0  0
   12.5897    8.9514   -7.8077 H   0  0  0  0  0  0  0  0  0  0  0  0
   11.0192   10.5880   -5.3755 H   0  0  0  0  0  0  0  0  0  0  0  0
   11.6860   10.8857   -3.0092 H   0  0  0  0  0  0  0  0  0  0  0  0
   12.3756    8.9545   -1.6340 H   0  0  0  0  0  0  0  0  0  0  0  0
   11.6770    6.3288   -4.9739 H   0  0  0  0  0  0  0  0  0  0  0  0
    8.9778    4.6420  -10.9443 H   0  0  0  0  0  0  0  0  0  0  0  0
  2  1  1  0
  3  2  1  0
  4  3  1  0
  5  4  1  0
  6  5  1  0
  7  2  1  0
  7  6  1  0
  8  7  1  0
  9  8  1  0
 10  9  1  0
 11 10  1  0
 12 11  1  0
 13 12  1  0
 14 13  1  0
 15 14  2  0
 16 15  1  0
 17 16  2  0
 18 17  1  0
 19 18  1  0
 20 14  1  0
 20 18  2  0
 21 10  1  0
 21 13  1  0
 22 21  2  0
 23  1  1  0
 24  1  1  0
 25  1  1  0
  2 26  1  1
 27  3  1  0
 28  3  1  0
 29  4  1  0
 30  4  1  0
 31  5  1  0
 32  5  1  0
 33  6  1  0
 34  6  1  0
 35  8  1  0
 36  8  1  0
 37  9  1  0
 38  9  1  0
 39 11  1  0
 40 11  1  0
 41 12  1  0
 42 12  1  0
 43 15  1  0
 44 16  1  0
 45 17  1  0
 46 20  1  0
  7 47  1  1
M  CHG  1   7   1
M  END
>  <b_m_subgroup_collapsed>  (1001) 
0

>  <r_i_docking_score>  (1001) 
-6.9877935455984197

>  <s_m_subgroup_title>  (1001) 
glide-dock_SP_D22_pv

>  <s_m_subgroupid>  (1001) 
glide-dock_SP_D22_pv

>  <Molecule ChEMBL ID>  (1001) 
CHEMBL561054

>  <Standard Type>  (1001) 
Ki

>  <Standard Value>  (1001) 
25.12

>  <label>  (1001) 
1

$$$$
CHEMBL1255588
     RDKit          3D

 59 63  0  0  1  0  0  0  0  0999 V2000
   10.3122    5.7726   -7.9487 C   0  0  0  0  0  0  0  0  0  0  0  0
    9.8568    7.1937   -8.3463 C   0  0  0  0  0  0  0  0  0  0  0  0
   10.9590    8.2031   -7.9347 C   0  0  0  0  0  0  0  0  0  0  0  0
    8.6385    7.4882   -7.4501 C   0  0  0  0  0  0  0  0  0  0  0  0
    9.5499    7.2728   -9.9030 C   0  0  1  0  0  0  0  0  0  0  0  0
    8.8860    8.4900  -10.2010 O   0  0  0  0  0  0  0  0  0  0  0  0
   10.8576    7.3612  -10.7307 C   0  0  0  0  0  0  0  0  0  0  0  0
   10.6319    7.3222  -12.2470 C   0  0  0  0  0  0  0  0  0  0  0  0
    9.8104    6.1723  -12.6747 N   0  0  1  0  0  0  0  0  0  0  0  0
   10.4860    4.8679  -12.7313 C   0  0  0  0  0  0  0  0  0  0  0  0
    9.7158    3.9675  -13.6949 C   0  0  2  0  0  0  0  0  0  0  0  0
    9.9555    4.2471  -15.1934 C   0  0  0  0  0  0  0  0  0  0  0  0
   10.7195    5.3718  -15.6088 C   0  0  0  0  0  0  0  0  0  0  0  0
   10.9497    5.6501  -16.9669 C   0  0  0  0  0  0  0  0  0  0  0  0
   10.4286    4.8016  -17.9518 C   0  0  0  0  0  0  0  0  0  0  0  0
    9.6939    3.6700  -17.5671 C   0  0  0  0  0  0  0  0  0  0  0  0
    9.4547    3.3740  -16.2065 C   0  0  0  0  0  0  0  0  0  0  0  0
    8.6644    2.0897  -15.9634 C   0  0  0  0  0  0  0  0  0  0  0  0
    8.1869    1.7510  -14.5481 C   0  0  0  0  0  0  0  0  0  0  0  0
    7.4355    2.8711  -13.8469 C   0  0  0  0  0  0  0  0  0  0  0  0
    6.0601    2.8380  -13.5664 C   0  0  0  0  0  0  0  0  0  0  0  0
    5.4546    3.8628  -12.8268 C   0  0  0  0  0  0  0  0  0  0  0  0
    6.2280    4.9173  -12.3122 C   0  0  0  0  0  0  0  0  0  0  0  0
    7.6176    4.9736  -12.5416 C   0  0  0  0  0  0  0  0  0  0  0  0
    8.2144    3.9429  -13.3404 C   0  0  0  0  0  0  0  0  0  0  0  0
    8.5052    6.1024  -11.9962 C   0  0  1  0  0  0  0  0  0  0  0  0
    8.6709    6.0967  -10.4483 C   0  0  0  0  0  0  0  0  0  0  0  0
   10.8860    5.2996   -8.7310 H   0  0  0  0  0  0  0  0  0  0  0  0
    9.4678    5.1002   -7.7949 H   0  0  0  0  0  0  0  0  0  0  0  0
   10.9004    5.7724   -7.0307 H   0  0  0  0  0  0  0  0  0  0  0  0
   11.0948    8.2321   -6.8530 H   0  0  0  0  0  0  0  0  0  0  0  0
   10.7099    9.2160   -8.2533 H   0  0  0  0  0  0  0  0  0  0  0  0
   11.9333    7.9476   -8.3512 H   0  0  0  0  0  0  0  0  0  0  0  0
    8.9284    7.6258   -6.4082 H   0  0  0  0  0  0  0  0  0  0  0  0
    7.9662    6.6343   -7.4469 H   0  0  0  0  0  0  0  0  0  0  0  0
    8.0863    8.3812   -7.7448 H   0  0  0  0  0  0  0  0  0  0  0  0
    7.9259    8.3226  -10.2458 H   0  0  0  0  0  0  0  0  0  0  0  0
   11.3864    8.2908  -10.5169 H   0  0  0  0  0  0  0  0  0  0  0  0
   11.5374    6.5724  -10.4329 H   0  0  0  0  0  0  0  0  0  0  0  0
   10.0901    8.2179  -12.5521 H   0  0  0  0  0  0  0  0  0  0  0  0
   11.5825    7.3357  -12.7816 H   0  0  0  0  0  0  0  0  0  0  0  0
   11.5278    4.9506  -13.0469 H   0  0  0  0  0  0  0  0  0  0  0  0
   10.4858    4.4084  -11.7453 H   0  0  0  0  0  0  0  0  0  0  0  0
   10.1634    2.9960  -13.5001 H   0  0  0  0  0  0  0  0  0  0  0  0
   11.1581    6.0635  -14.9098 H   0  0  0  0  0  0  0  0  0  0  0  0
   11.5273    6.5175  -17.2525 H   0  0  0  0  0  0  0  0  0  0  0  0
   10.6012    5.0103  -18.9976 H   0  0  0  0  0  0  0  0  0  0  0  0
    9.3121    3.0136  -18.3357 H   0  0  0  0  0  0  0  0  0  0  0  0
    7.7791    2.1467  -16.5987 H   0  0  0  0  0  0  0  0  0  0  0  0
    9.2503    1.2528  -16.3454 H   0  0  0  0  0  0  0  0  0  0  0  0
    7.5079    0.9009  -14.6266 H   0  0  0  0  0  0  0  0  0  0  0  0
    8.9926    1.3626  -13.9273 H   0  0  0  0  0  0  0  0  0  0  0  0
    5.4587    2.0108  -13.9123 H   0  0  0  0  0  0  0  0  0  0  0  0
    4.3931    3.8209  -12.6469 H   0  0  0  0  0  0  0  0  0  0  0  0
    5.7516    5.6892  -11.7227 H   0  0  0  0  0  0  0  0  0  0  0  0
    7.9778    7.0213  -12.2590 H   0  0  0  0  0  0  0  0  0  0  0  0
    9.0908    5.1355  -10.1598 H   0  0  0  0  0  0  0  0  0  0  0  0
    7.6917    6.1220   -9.9710 H   0  0  0  0  0  0  0  0  0  0  0  0
    9.5806    6.3615  -13.6402 H   0  0  0  0  0  0  0  0  0  0  0  0
  2  1  1  0
  3  2  1  0
  4  2  1  0
  5  2  1  0
  5  6  1  1
  7  5  1  0
  8  7  1  0
  9  8  1  0
 10  9  1  0
 11 10  1  0
 12 11  1  0
 13 12  2  0
 14 13  1  0
 15 14  2  0
 16 15  1  0
 17 12  1  0
 17 16  2  0
 18 17  1  0
 19 18  1  0
 20 19  1  0
 21 20  1  0
 22 21  2  0
 23 22  1  0
 24 23  2  0
 25 11  1  0
 25 20  2  0
 25 24  1  0
 26  9  1  0
 26 24  1  0
 27  5  1  0
 27 26  1  0
 28  1  1  0
 29  1  1  0
 30  1  1  0
 31  3  1  0
 32  3  1  0
 33  3  1  0
 34  4  1  0
 35  4  1  0
 36  4  1  0
 37  6  1  0
 38  7  1  0
 39  7  1  0
 40  8  1  0
 41  8  1  0
 42 10  1  0
 43 10  1  0
 11 44  1  1
 45 13  1  0
 46 14  1  0
 47 15  1  0
 48 16  1  0
 49 18  1  0
 50 18  1  0
 51 19  1  0
 52 19  1  0
 53 21  1  0
 54 22  1  0
 55 23  1  0
 26 56  1  1
 57 27  1  0
 58 27  1  0
  9 59  1  6
M  CHG  1   9   1
M  END
>  <b_m_subgroup_collapsed>  (1002) 
0

>  <r_i_docking_score>  (1002) 
-6.9826331355547797

>  <s_m_subgroup_title>  (1002) 
glide-dock_SP_D22_pv

>  <s_m_subgroupid>  (1002) 
glide-dock_SP_D22_pv

>  <Molecule ChEMBL ID>  (1002) 
CHEMBL1255588

>  <Standard Type>  (1002) 
Ki

>  <Standard Value>  (1002) 
0.37

>  <label>  (1002) 
1

$$$$
CHEMBL197159
     RDKit          3D

 40 41  0  0  1  0  0  0  0  0999 V2000
    8.8953    5.0862  -10.1358 C   0  0  0  0  0  0  0  0  0  0  0  0
    9.3989    4.9576   -8.6910 C   0  0  0  0  0  0  0  0  0  0  0  0
    9.0894    6.1698   -7.7914 C   0  0  0  0  0  0  0  0  0  0  0  0
   10.0898    7.2708   -7.9210 N   0  0  0  0  0  0  0  0  0  0  0  0
    9.6678    8.2318   -8.9888 C   0  0  0  0  0  0  0  0  0  0  0  0
   10.8307    8.7519   -9.8664 C   0  0  0  0  0  0  0  0  0  0  0  0
   11.6703    7.6767  -10.5621 C   0  0  0  0  0  0  0  0  0  0  0  0
   10.4388    7.8937   -6.5937 C   0  0  2  0  0  0  0  0  0  0  0  0
   11.2589    9.2075   -6.6988 C   0  0  0  0  0  0  0  0  0  0  0  0
   11.5257    9.8883   -5.3466 C   0  0  0  0  0  0  0  0  0  0  0  0
   11.8154    8.9226   -4.3110 N   0  0  0  0  0  0  0  0  0  0  0  0
   12.2111    9.3302   -3.0914 N   0  0  0  0  0  0  0  0  0  0  0  0
   12.3658    8.2069   -2.4094 C   0  0  0  0  0  0  0  0  0  0  0  0
   12.0577    7.0491   -3.1800 C   0  0  0  0  0  0  0  0  0  0  0  0
   11.6859    7.5559   -4.3941 C   0  0  0  0  0  0  0  0  0  0  0  0
   11.2152    6.9138   -5.6619 C   0  0  0  0  0  0  0  0  0  0  0  0
    9.0774    4.1723  -10.6955 H   0  0  0  0  0  0  0  0  0  0  0  0
    9.3966    5.8789  -10.6810 H   0  0  0  0  0  0  0  0  0  0  0  0
    7.8236    5.2869  -10.1701 H   0  0  0  0  0  0  0  0  0  0  0  0
    8.9063    4.0851   -8.2583 H   0  0  0  0  0  0  0  0  0  0  0  0
   10.4654    4.7324   -8.6765 H   0  0  0  0  0  0  0  0  0  0  0  0
    8.0861    6.5433   -7.9771 H   0  0  0  0  0  0  0  0  0  0  0  0
    9.0420    5.8008   -6.7715 H   0  0  0  0  0  0  0  0  0  0  0  0
    8.9470    7.7703   -9.6623 H   0  0  0  0  0  0  0  0  0  0  0  0
    9.1083    9.0589   -8.5495 H   0  0  0  0  0  0  0  0  0  0  0  0
   10.3971    9.3722  -10.6454 H   0  0  0  0  0  0  0  0  0  0  0  0
   11.5004    9.4078   -9.3167 H   0  0  0  0  0  0  0  0  0  0  0  0
   12.5051    8.1337  -11.0951 H   0  0  0  0  0  0  0  0  0  0  0  0
   11.0883    7.1242  -11.2981 H   0  0  0  0  0  0  0  0  0  0  0  0
   12.0862    6.9724   -9.8469 H   0  0  0  0  0  0  0  0  0  0  0  0
    9.4955    8.1530   -6.1094 H   0  0  0  0  0  0  0  0  0  0  0  0
   12.2185    8.9909   -7.1715 H   0  0  0  0  0  0  0  0  0  0  0  0
   10.7622    9.9465   -7.3166 H   0  0  0  0  0  0  0  0  0  0  0  0
   12.3678   10.5721   -5.4469 H   0  0  0  0  0  0  0  0  0  0  0  0
   10.6578   10.4701   -5.0315 H   0  0  0  0  0  0  0  0  0  0  0  0
   12.6918    8.2663   -1.3814 H   0  0  0  0  0  0  0  0  0  0  0  0
   12.0857    6.0114   -2.8799 H   0  0  0  0  0  0  0  0  0  0  0  0
   10.5977    6.0677   -5.3798 H   0  0  0  0  0  0  0  0  0  0  0  0
   12.0804    6.4999   -6.1846 H   0  0  0  0  0  0  0  0  0  0  0  0
   10.9327    6.8344   -8.2637 H   0  0  0  0  0  0  0  0  0  0  0  0
  2  1  1  0
  3  2  1  0
  4  3  1  0
  5  4  1  0
  6  5  1  0
  7  6  1  0
  8  4  1  0
  9  8  1  0
 10  9  1  0
 11 10  1  0
 12 11  1  0
 13 12  2  0
 14 13  1  0
 15 11  1  0
 15 14  2  0
 16  8  1  0
 16 15  1  0
 17  1  1  0
 18  1  1  0
 19  1  1  0
 20  2  1  0
 21  2  1  0
 22  3  1  0
 23  3  1  0
 24  5  1  0
 25  5  1  0
 26  6  1  0
 27  6  1  0
 28  7  1  0
 29  7  1  0
 30  7  1  0
  8 31  1  1
 32  9  1  0
 33  9  1  0
 34 10  1  0
 35 10  1  0
 36 13  1  0
 37 14  1  0
 38 16  1  0
 39 16  1  0
 40  4  1  0
M  CHG  1   4   1
M  END
>  <b_m_subgroup_collapsed>  (1003) 
0

>  <r_i_docking_score>  (1003) 
-6.9821888227284097

>  <s_m_subgroup_title>  (1003) 
glide-dock_SP_D22_pv

>  <s_m_subgroupid>  (1003) 
glide-dock_SP_D22_pv

>  <Molecule ChEMBL ID>  (1003) 
CHEMBL197159

>  <Standard Type>  (1003) 
Ki

>  <Standard Value>  (1003) 
20000.0

>  <label>  (1003) 
0

$$$$
CHEMBL133085
     RDKit          3D

 39 40  0  0  1  0  0  0  0  0999 V2000
    8.5423    4.7599   -8.7532 C   0  0  0  0  0  0  0  0  0  0  0  0
    9.7359    5.7085   -8.6791 C   0  0  0  0  0  0  0  0  0  0  0  0
    9.2861    7.1919   -8.6326 C   0  0  0  0  0  0  0  0  0  0  0  0
   10.3370    8.1851   -8.3468 N   0  0  0  0  0  0  0  0  0  0  0  0
   11.5849    8.1060   -9.1246 C   0  0  0  0  0  0  0  0  0  0  0  0
   11.4366    7.7074  -10.5868 C   0  0  0  0  0  0  0  0  0  0  0  0
   12.4239    7.7723  -11.4905 C   0  0  0  0  0  0  0  0  0  0  0  0
   12.0860    6.9724  -13.4726 I   0  0  0  0  0  0  0  0  0  0  0  0
   10.5032    8.4402   -6.9023 C   0  0  2  0  0  0  0  0  0  0  0  0
   11.3594    9.6786   -6.5661 C   0  0  0  0  0  0  0  0  0  0  0  0
   11.3042    9.9653   -5.1790 O   0  0  0  0  0  0  0  0  0  0  0  0
   11.6513    8.9278   -4.3491 C   0  0  0  0  0  0  0  0  0  0  0  0
   12.0858    9.2107   -3.0464 C   0  0  0  0  0  0  0  0  0  0  0  0
   12.0860   10.4934   -2.6469 O   0  0  0  0  0  0  0  0  0  0  0  0
   12.4858    8.1981   -2.1597 C   0  0  0  0  0  0  0  0  0  0  0  0
   12.4112    6.8617   -2.5766 C   0  0  0  0  0  0  0  0  0  0  0  0
   11.9372    6.5723   -3.8645 C   0  0  0  0  0  0  0  0  0  0  0  0
   11.5539    7.5857   -4.7509 C   0  0  0  0  0  0  0  0  0  0  0  0
   11.0204    7.2206   -6.1152 C   0  0  0  0  0  0  0  0  0  0  0  0
    8.8592    3.7234   -8.6468 H   0  0  0  0  0  0  0  0  0  0  0  0
    7.8271    4.9723   -7.9578 H   0  0  0  0  0  0  0  0  0  0  0  0
    8.0334    4.8613   -9.7114 H   0  0  0  0  0  0  0  0  0  0  0  0
   10.3777    5.5153   -9.5354 H   0  0  0  0  0  0  0  0  0  0  0  0
   10.3261    5.4237   -7.8162 H   0  0  0  0  0  0  0  0  0  0  0  0
    8.4860    7.3073   -7.8997 H   0  0  0  0  0  0  0  0  0  0  0  0
    8.8179    7.4479   -9.5831 H   0  0  0  0  0  0  0  0  0  0  0  0
   12.1087    9.0609   -9.0857 H   0  0  0  0  0  0  0  0  0  0  0  0
   12.2451    7.3723   -8.6674 H   0  0  0  0  0  0  0  0  0  0  0  0
   10.4905    7.3105  -10.9185 H   0  0  0  0  0  0  0  0  0  0  0  0
   13.4073    8.1724  -11.2919 H   0  0  0  0  0  0  0  0  0  0  0  0
    9.5097    8.6715   -6.5142 H   0  0  0  0  0  0  0  0  0  0  0  0
   10.9859   10.5723   -7.0469 H   0  0  0  0  0  0  0  0  0  0  0  0
   12.4007    9.5493   -6.8655 H   0  0  0  0  0  0  0  0  0  0  0  0
   12.7865   10.7368   -2.0454 H   0  0  0  0  0  0  0  0  0  0  0  0
   12.8216    8.4406   -1.1622 H   0  0  0  0  0  0  0  0  0  0  0  0
   12.6998    6.0610   -1.9110 H   0  0  0  0  0  0  0  0  0  0  0  0
   11.8754    5.5508   -4.1922 H   0  0  0  0  0  0  0  0  0  0  0  0
   11.8176    6.7020   -6.6453 H   0  0  0  0  0  0  0  0  0  0  0  0
   10.2071    6.5120   -5.9589 H   0  0  0  0  0  0  0  0  0  0  0  0
  2  1  1  0
  3  2  1  0
  4  3  1  0
  5  4  1  0
  6  5  1  0
  7  6  2  0
  8  7  1  0
  9  4  1  0
 10  9  1  0
 11 10  1  0
 12 11  1  0
 13 12  2  0
 14 13  1  0
 15 13  1  0
 16 15  2  0
 17 16  1  0
 18 12  1  0
 18 17  2  0
 19  9  1  0
 19 18  1  0
 20  1  1  0
 21  1  1  0
 22  1  1  0
 23  2  1  0
 24  2  1  0
 25  3  1  0
 26  3  1  0
 27  5  1  0
 28  5  1  0
 29  6  1  0
 30  7  1  0
  9 31  1  1
 32 10  1  0
 33 10  1  0
 34 14  1  0
 35 15  1  0
 36 16  1  0
 37 17  1  0
 38 19  1  0
 39 19  1  0
M  END
>  <b_m_subgroup_collapsed>  (1004) 
0

>  <r_i_docking_score>  (1004) 
-6.9820491356742798

>  <s_m_subgroup_title>  (1004) 
glide-dock_SP_D22_pv

>  <s_m_subgroupid>  (1004) 
glide-dock_SP_D22_pv

>  <Molecule ChEMBL ID>  (1004) 
CHEMBL133085

>  <Standard Type>  (1004) 
Ki

>  <Standard Value>  (1004) 
10.8

>  <label>  (1004) 
1

$$$$
CHEMBL2159455
     RDKit          3D

 60 63  0  0  1  0  0  0  0  0999 V2000
   11.2861   10.5725   -6.6469 O   0  0  0  0  0  0  0  0  0  0  0  0
   11.2968    9.1366   -6.9504 S   0  0  0  0  0  0  0  0  0  0  0  0
   12.3121    8.5683   -7.8482 O   0  0  0  0  0  0  0  0  0  0  0  0
    9.7186    8.7159   -7.5101 N   0  0  0  0  0  0  0  0  0  0  0  0
    9.3051    7.3460   -7.8236 C   0  0  0  0  0  0  0  0  0  0  0  0
   10.2300    6.6165   -8.8258 C   0  0  1  0  0  0  0  0  0  0  0  0
    9.6855    5.2192   -9.1628 C   0  0  0  0  0  0  0  0  0  0  0  0
    8.4834    5.2843  -10.1166 C   0  0  0  0  0  0  0  0  0  0  0  0
    8.8012    6.0268  -11.3649 N   0  0  1  0  0  0  0  0  0  0  0  0
    7.6875    6.0066  -12.3493 C   0  0  0  0  0  0  0  0  0  0  0  0
    7.6870    4.7001  -13.1554 C   0  0  0  0  0  0  0  0  0  0  0  0
    8.8603    4.7360  -13.9543 O   0  0  0  0  0  0  0  0  0  0  0  0
    9.3560    3.5693  -14.4973 C   0  0  0  0  0  0  0  0  0  0  0  0
    8.6506    2.3395  -14.4824 C   0  0  0  0  0  0  0  0  0  0  0  0
    9.2171    1.1823  -15.0474 C   0  0  0  0  0  0  0  0  0  0  0  0
   10.4858    1.2450  -15.6472 C   0  0  0  0  0  0  0  0  0  0  0  0
   11.1814    2.4673  -15.6864 C   0  0  0  0  0  0  0  0  0  0  0  0
   10.6314    3.6351  -15.1138 C   0  0  0  0  0  0  0  0  0  0  0  0
   11.3834    4.9037  -15.1746 C   0  0  0  0  0  0  0  0  0  0  0  0
   11.8317    5.4128  -16.4144 C   0  0  0  0  0  0  0  0  0  0  0  0
   12.5196    6.6397  -16.4867 C   0  0  0  0  0  0  0  0  0  0  0  0
   12.7709    7.3743  -15.3140 C   0  0  0  0  0  0  0  0  0  0  0  0
   12.3423    6.8745  -14.0706 C   0  0  0  0  0  0  0  0  0  0  0  0
   11.6605    5.6444  -14.0040 C   0  0  0  0  0  0  0  0  0  0  0  0
    9.2831    7.4025  -11.0813 C   0  0  0  0  0  0  0  0  0  0  0  0
   10.4966    7.3891  -10.1398 C   0  0  0  0  0  0  0  0  0  0  0  0
   11.5128    8.3605   -5.3879 C   0  0  0  0  0  0  0  0  0  0  0  0
   11.3389    7.0559   -4.9964 C   0  0  0  0  0  0  0  0  0  0  0  0
   11.6862    6.8660   -3.6228 C   0  0  0  0  0  0  0  0  0  0  0  0
   12.0851    8.0382   -3.0393 C   0  0  0  0  0  0  0  0  0  0  0  0
   12.5135    8.4082   -1.4469 Cl  0  0  0  0  0  0  0  0  0  0  0  0
   12.0861    9.3724   -4.1072 S   0  0  0  0  0  0  0  0  0  0  0  0
    9.3953    9.3788   -8.2139 H   0  0  0  0  0  0  0  0  0  0  0  0
    9.2211    6.7800   -6.8967 H   0  0  0  0  0  0  0  0  0  0  0  0
    8.2959    7.4045   -8.2192 H   0  0  0  0  0  0  0  0  0  0  0  0
   11.1839    6.4548   -8.3244 H   0  0  0  0  0  0  0  0  0  0  0  0
   10.4756    4.6208   -9.6086 H   0  0  0  0  0  0  0  0  0  0  0  0
    9.4007    4.6959   -8.2484 H   0  0  0  0  0  0  0  0  0  0  0  0
    7.6551    5.7723   -9.6135 H   0  0  0  0  0  0  0  0  0  0  0  0
    8.1513    4.2728  -10.3452 H   0  0  0  0  0  0  0  0  0  0  0  0
    6.7324    6.1616  -11.8437 H   0  0  0  0  0  0  0  0  0  0  0  0
    7.7896    6.8372  -13.0483 H   0  0  0  0  0  0  0  0  0  0  0  0
    7.6647    3.8404  -12.4856 H   0  0  0  0  0  0  0  0  0  0  0  0
    6.8096    4.6437  -13.8009 H   0  0  0  0  0  0  0  0  0  0  0  0
    7.6674    2.2545  -14.0459 H   0  0  0  0  0  0  0  0  0  0  0  0
    8.6753    0.2479  -15.0242 H   0  0  0  0  0  0  0  0  0  0  0  0
   10.9237    0.3581  -16.0831 H   0  0  0  0  0  0  0  0  0  0  0  0
   12.1557    2.5036  -16.1529 H   0  0  0  0  0  0  0  0  0  0  0  0
   11.6330    4.8653  -17.3249 H   0  0  0  0  0  0  0  0  0  0  0  0
   12.8446    7.0223  -17.4435 H   0  0  0  0  0  0  0  0  0  0  0  0
   13.2857    8.3210  -15.3691 H   0  0  0  0  0  0  0  0  0  0  0  0
   12.5461    7.4298  -13.1670 H   0  0  0  0  0  0  0  0  0  0  0  0
   11.3374    5.2667  -13.0460 H   0  0  0  0  0  0  0  0  0  0  0  0
    8.4860    8.0036  -10.6502 H   0  0  0  0  0  0  0  0  0  0  0  0
    9.5660    7.8877  -12.0170 H   0  0  0  0  0  0  0  0  0  0  0  0
   10.8023    8.4154   -9.9395 H   0  0  0  0  0  0  0  0  0  0  0  0
   11.3437    6.9418  -10.6577 H   0  0  0  0  0  0  0  0  0  0  0  0
   11.0090    6.2457   -5.6278 H   0  0  0  0  0  0  0  0  0  0  0  0
   11.6165    5.9114   -3.1218 H   0  0  0  0  0  0  0  0  0  0  0  0
    9.5714    5.5483  -11.8094 H   0  0  0  0  0  0  0  0  0  0  0  0
  2  1  2  0
  3  2  2  0
  4  2  1  0
  5  4  1  0
  6  5  1  0
  7  6  1  0
  8  7  1  0
  9  8  1  0
 10  9  1  0
 11 10  1  0
 12 11  1  0
 13 12  1  0
 14 13  2  0
 15 14  1  0
 16 15  2  0
 17 16  1  0
 18 13  1  0
 18 17  2  0
 19 18  1  0
 20 19  2  0
 21 20  1  0
 22 21  2  0
 23 22  1  0
 24 19  1  0
 24 23  2  0
 25  9  1  0
 26  6  1  0
 26 25  1  0
 27  2  1  0
 28 27  2  0
 29 28  1  0
 30 29  2  0
 31 30  1  0
 32 27  1  0
 32 30  1  0
 33  4  1  0
 34  5  1  0
 35  5  1  0
  6 36  1  1
 37  7  1  0
 38  7  1  0
 39  8  1  0
 40  8  1  0
 41 10  1  0
 42 10  1  0
 43 11  1  0
 44 11  1  0
 45 14  1  0
 46 15  1  0
 47 16  1  0
 48 17  1  0
 49 20  1  0
 50 21  1  0
 51 22  1  0
 52 23  1  0
 53 24  1  0
 54 25  1  0
 55 25  1  0
 56 26  1  0
 57 26  1  0
 58 28  1  0
 59 29  1  0
  9 60  1  6
M  CHG  1   9   1
M  END
>  <b_m_subgroup_collapsed>  (1005) 
0

>  <r_i_docking_score>  (1005) 
-6.9749049665333898

>  <s_m_subgroup_title>  (1005) 
glide-dock_SP_D22_pv

>  <s_m_subgroupid>  (1005) 
glide-dock_SP_D22_pv

>  <Molecule ChEMBL ID>  (1005) 
CHEMBL2159455

>  <Standard Type>  (1005) 
Ki

>  <Standard Value>  (1005) 
32.0

>  <label>  (1005) 
1

$$$$
CHEMBL3221299
     RDKit          3D

 49 51  0  0  1  0  0  0  0  0999 V2000
    9.6874    4.8060   -8.9639 C   0  0  0  0  0  0  0  0  0  0  0  0
    8.5000    5.7119   -8.6231 C   0  0  0  0  0  0  0  0  0  0  0  0
    8.8871    7.0825   -8.2033 N   0  0  1  0  0  0  0  0  0  0  0  0
    9.2853    7.2003   -6.7799 C   0  0  0  0  0  0  0  0  0  0  0  0
   10.5474    8.0638   -6.7448 C   0  0  0  0  0  0  0  0  0  0  0  0
   10.4853    8.8321   -8.0579 C   0  0  0  0  0  0  0  0  0  0  0  0
    9.8921    7.8086   -9.0265 C   0  0  2  0  0  0  0  0  0  0  0  0
    9.3117    8.4677  -10.2926 C   0  0  0  0  0  0  0  0  0  0  0  0
    8.8863    7.5060  -11.3050 N   0  0  0  0  0  0  0  0  0  0  0  0
    9.7992    6.8231  -12.1294 C   0  0  0  0  0  0  0  0  0  0  0  0
   11.0506    7.3450  -12.2399 N   0  0  0  0  0  0  0  0  0  0  0  0
   12.0032    6.8592  -13.0466 N   0  0  0  0  0  0  0  0  0  0  0  0
   11.7131    5.7590  -13.7690 C   0  0  0  0  0  0  0  0  0  0  0  0
   10.4670    5.1092  -13.7100 C   0  0  0  0  0  0  0  0  0  0  0  0
   10.2293    3.9537  -14.4746 C   0  0  0  0  0  0  0  0  0  0  0  0
    8.9803    3.3159  -14.4057 C   0  0  0  0  0  0  0  0  0  0  0  0
    7.9543    3.8301  -13.5761 C   0  0  0  0  0  0  0  0  0  0  0  0
    6.7184    3.2303  -13.4475 O   0  0  0  0  0  0  0  0  0  0  0  0
    6.4840    2.0075  -14.1307 C   0  0  0  0  0  0  0  0  0  0  0  0
    8.1931    5.0051  -12.8182 C   0  0  0  0  0  0  0  0  0  0  0  0
    7.2056    5.4664  -11.9829 O   0  0  0  0  0  0  0  0  0  0  0  0
    6.1054    6.0922  -12.6311 C   0  0  0  0  0  0  0  0  0  0  0  0
    9.4621    5.6502  -12.8693 C   0  0  0  0  0  0  0  0  0  0  0  0
    9.3786    3.7660   -8.9642 H   0  0  0  0  0  0  0  0  0  0  0  0
   10.0867    5.0216   -9.9533 H   0  0  0  0  0  0  0  0  0  0  0  0
   10.4983    4.9209   -8.2469 H   0  0  0  0  0  0  0  0  0  0  0  0
    7.9044    5.2619   -7.8286 H   0  0  0  0  0  0  0  0  0  0  0  0
    7.8310    5.7730   -9.4791 H   0  0  0  0  0  0  0  0  0  0  0  0
    9.4570    6.2347   -6.3016 H   0  0  0  0  0  0  0  0  0  0  0  0
    8.4727    7.6966   -6.2490 H   0  0  0  0  0  0  0  0  0  0  0  0
   11.4328    7.4271   -6.7294 H   0  0  0  0  0  0  0  0  0  0  0  0
   10.5895    8.7166   -5.8728 H   0  0  0  0  0  0  0  0  0  0  0  0
   11.4579    9.2087   -8.3769 H   0  0  0  0  0  0  0  0  0  0  0  0
    9.8088    9.6790   -7.9431 H   0  0  0  0  0  0  0  0  0  0  0  0
   10.7098    7.1427   -9.3025 H   0  0  0  0  0  0  0  0  0  0  0  0
   10.0500    9.1411  -10.7206 H   0  0  0  0  0  0  0  0  0  0  0  0
    8.4648    9.0986  -10.0279 H   0  0  0  0  0  0  0  0  0  0  0  0
    7.9217    7.1835  -11.2334 H   0  0  0  0  0  0  0  0  0  0  0  0
   12.5087    5.3873  -14.3994 H   0  0  0  0  0  0  0  0  0  0  0  0
   11.0000    3.5461  -15.1139 H   0  0  0  0  0  0  0  0  0  0  0  0
    8.8369    2.4243  -14.9974 H   0  0  0  0  0  0  0  0  0  0  0  0
    5.4912    1.6405  -13.8695 H   0  0  0  0  0  0  0  0  0  0  0  0
    6.5161    2.1474  -15.2115 H   0  0  0  0  0  0  0  0  0  0  0  0
    7.2024    1.2369  -13.8472 H   0  0  0  0  0  0  0  0  0  0  0  0
    5.3170    6.2682  -11.8986 H   0  0  0  0  0  0  0  0  0  0  0  0
    6.4002    7.0615  -13.0343 H   0  0  0  0  0  0  0  0  0  0  0  0
    5.6809    5.4954  -13.4398 H   0  0  0  0  0  0  0  0  0  0  0  0
   11.2692    8.1876  -11.7092 H   0  0  0  0  0  0  0  0  0  0  0  0
    8.0107    7.5958   -8.2631 H   0  0  0  0  0  0  0  0  0  0  0  0
  2  1  1  0
  3  2  1  0
  4  3  1  0
  5  4  1  0
  6  5  1  0
  7  3  1  0
  7  6  1  0
  8  7  1  0
  9  8  1  0
 10  9  1  0
 11 10  2  0
 12 11  1  0
 13 12  2  0
 14 13  1  0
 15 14  2  0
 16 15  1  0
 17 16  2  0
 18 17  1  0
 19 18  1  0
 20 17  1  0
 21 20  1  0
 22 21  1  0
 23 10  1  0
 23 14  1  0
 23 20  2  0
 24  1  1  0
 25  1  1  0
 26  1  1  0
 27  2  1  0
 28  2  1  0
 29  4  1  0
 30  4  1  0
 31  5  1  0
 32  5  1  0
 33  6  1  0
 34  6  1  0
  7 35  1  6
 36  8  1  0
 37  8  1  0
 38  9  1  0
 39 13  1  0
 40 15  1  0
 41 16  1  0
 42 19  1  0
 43 19  1  0
 44 19  1  0
 45 22  1  0
 46 22  1  0
 47 22  1  0
 48 11  1  0
  3 49  1  1
M  CHG  2   3   1  11   1
M  END
>  <b_m_subgroup_collapsed>  (1006) 
0

>  <r_i_docking_score>  (1006) 
-6.9732176598518203

>  <s_m_subgroup_title>  (1006) 
glide-dock_SP_D22_pv

>  <s_m_subgroupid>  (1006) 
glide-dock_SP_D22_pv

>  <Molecule ChEMBL ID>  (1006) 
CHEMBL3221299

>  <Standard Type>  (1006) 
Ki

>  <Standard Value>  (1006) 
3.9

>  <label>  (1006) 
1

$$$$
CHEMBL104160
     RDKit          3D

 63 66  0  0  1  0  0  0  0  0999 V2000
   11.2920    1.1619  -17.5172 C   0  0  0  0  0  0  0  0  0  0  0  0
   11.0165    1.4599  -16.0283 C   0  0  1  0  0  0  0  0  0  0  0  0
   11.6837    2.7747  -15.6002 C   0  0  0  0  0  0  0  0  0  0  0  0
   10.7580    4.0124  -15.5213 C   0  0  0  0  0  0  0  0  0  0  0  0
   10.1562    4.3914  -16.9005 C   0  0  0  0  0  0  0  0  0  0  0  0
   11.7260    5.1814  -15.1852 C   0  0  0  0  0  0  0  0  0  0  0  0
    9.6265    3.6570  -14.5885 N   0  0  0  0  0  0  0  0  0  0  0  0
    9.2984    4.2237  -13.3716 C   0  0  0  0  0  0  0  0  0  0  0  0
    8.4027    3.7732  -12.6640 O   0  0  0  0  0  0  0  0  0  0  0  0
    9.9929    5.4756  -12.8151 C   0  0  0  0  0  0  0  0  0  0  0  0
    9.4198    6.1408  -11.6041 N   0  0  0  0  0  0  0  0  0  0  0  0
   10.1353    7.4034  -11.3848 C   0  0  0  0  0  0  0  0  0  0  0  0
    9.5059    8.2030  -10.2291 C   0  0  0  0  0  0  0  0  0  0  0  0
    9.5307    7.4117   -8.9774 N   0  0  0  0  0  0  0  0  0  0  0  0
    9.0613    8.1701   -7.7884 C   0  0  0  0  0  0  0  0  0  0  0  0
   10.0882    8.1720   -6.6595 C   0  0  0  0  0  0  0  0  0  0  0  0
   10.6637    9.3728   -6.1860 C   0  0  0  0  0  0  0  0  0  0  0  0
   11.4360    9.3805   -5.0095 C   0  0  0  0  0  0  0  0  0  0  0  0
   11.6865    8.1815   -4.3218 C   0  0  0  0  0  0  0  0  0  0  0  0
   12.4861    8.2051   -2.7965 Cl  0  0  0  0  0  0  0  0  0  0  0  0
   11.2312    6.9659   -4.8577 C   0  0  0  0  0  0  0  0  0  0  0  0
   10.4175    6.9682   -6.0074 C   0  0  0  0  0  0  0  0  0  0  0  0
    8.8358    6.1131   -9.1875 C   0  0  0  0  0  0  0  0  0  0  0  0
    9.4685    5.3478  -10.3616 C   0  0  0  0  0  0  0  0  0  0  0  0
    8.8774    2.4876  -15.0210 C   0  0  0  0  0  0  0  0  0  0  0  0
    7.4692    2.3882  -14.8398 C   0  0  0  0  0  0  0  0  0  0  0  0
    6.7665    1.2228  -15.1792 C   0  0  0  0  0  0  0  0  0  0  0  0
    7.4368    0.1583  -15.7845 C   0  0  0  0  0  0  0  0  0  0  0  0
    8.8132    0.2497  -16.0350 C   0  0  0  0  0  0  0  0  0  0  0  0
    9.5360    1.4089  -15.6805 C   0  0  0  0  0  0  0  0  0  0  0  0
   10.9529    0.1682  -17.8077 H   0  0  0  0  0  0  0  0  0  0  0  0
   10.8014    1.8815  -18.1717 H   0  0  0  0  0  0  0  0  0  0  0  0
   12.3610    1.1968  -17.7298 H   0  0  0  0  0  0  0  0  0  0  0  0
   11.4817    0.6542  -15.4622 H   0  0  0  0  0  0  0  0  0  0  0  0
   12.5630    2.9664  -16.2172 H   0  0  0  0  0  0  0  0  0  0  0  0
   12.0754    2.6195  -14.5947 H   0  0  0  0  0  0  0  0  0  0  0  0
   10.9366    4.5622  -17.6425 H   0  0  0  0  0  0  0  0  0  0  0  0
    9.4935    3.6317  -17.3128 H   0  0  0  0  0  0  0  0  0  0  0  0
    9.5693    5.3089  -16.8281 H   0  0  0  0  0  0  0  0  0  0  0  0
   12.4859    5.2660  -15.9636 H   0  0  0  0  0  0  0  0  0  0  0  0
   11.2526    6.1616  -15.1773 H   0  0  0  0  0  0  0  0  0  0  0  0
   12.2982    5.0224  -14.2726 H   0  0  0  0  0  0  0  0  0  0  0  0
   11.0405    5.2554  -12.6467 H   0  0  0  0  0  0  0  0  0  0  0  0
    9.9035    6.1722  -13.6293 H   0  0  0  0  0  0  0  0  0  0  0  0
   11.1925    7.2161  -11.1861 H   0  0  0  0  0  0  0  0  0  0  0  0
   10.0877    8.0139  -12.2872 H   0  0  0  0  0  0  0  0  0  0  0  0
   10.0694    9.1251  -10.0831 H   0  0  0  0  0  0  0  0  0  0  0  0
    8.4862    8.4956  -10.4799 H   0  0  0  0  0  0  0  0  0  0  0  0
    8.8254    9.2016   -8.0557 H   0  0  0  0  0  0  0  0  0  0  0  0
    8.1302    7.7513   -7.4033 H   0  0  0  0  0  0  0  0  0  0  0  0
   10.4786   10.3211   -6.6603 H   0  0  0  0  0  0  0  0  0  0  0  0
   11.7969   10.3136   -4.6097 H   0  0  0  0  0  0  0  0  0  0  0  0
   11.4287    6.0382   -4.3401 H   0  0  0  0  0  0  0  0  0  0  0  0
   10.0003    6.0355   -6.3505 H   0  0  0  0  0  0  0  0  0  0  0  0
    8.9128    5.5074   -8.2849 H   0  0  0  0  0  0  0  0  0  0  0  0
    7.7699    6.2297   -9.3774 H   0  0  0  0  0  0  0  0  0  0  0  0
    8.9404    4.4029  -10.4528 H   0  0  0  0  0  0  0  0  0  0  0  0
   10.4859    5.0964  -10.0978 H   0  0  0  0  0  0  0  0  0  0  0  0
    6.8991    3.1991  -14.4118 H   0  0  0  0  0  0  0  0  0  0  0  0
    5.7093    1.1385  -14.9791 H   0  0  0  0  0  0  0  0  0  0  0  0
    6.8951   -0.7380  -16.0512 H   0  0  0  0  0  0  0  0  0  0  0  0
    9.3089   -0.5879  -16.5020 H   0  0  0  0  0  0  0  0  0  0  0  0
   10.4998    7.1936   -8.8007 H   0  0  0  0  0  0  0  0  0  0  0  0
  2  1  1  0
  3  2  1  0
  4  3  1  0
  5  4  1  0
  6  4  1  0
  7  4  1  0
  8  7  1  0
  9  8  2  0
 10  8  1  0
 11 10  1  0
 12 11  1  0
 13 12  1  0
 14 13  1  0
 15 14  1  0
 16 15  1  0
 17 16  1  0
 18 17  2  0
 19 18  1  0
 20 19  1  0
 21 19  2  0
 22 16  2  0
 22 21  1  0
 23 14  1  0
 24 11  1  0
 24 23  1  0
 25  7  1  0
 26 25  2  0
 27 26  1  0
 28 27  2  0
 29 28  1  0
 30  2  1  0
 30 25  1  0
 30 29  2  0
 31  1  1  0
 32  1  1  0
 33  1  1  0
  2 34  1  1
 35  3  1  0
 36  3  1  0
 37  5  1  0
 38  5  1  0
 39  5  1  0
 40  6  1  0
 41  6  1  0
 42  6  1  0
 43 10  1  0
 44 10  1  0
 45 12  1  0
 46 12  1  0
 47 13  1  0
 48 13  1  0
 49 15  1  0
 50 15  1  0
 51 17  1  0
 52 18  1  0
 53 21  1  0
 54 22  1  0
 55 23  1  0
 56 23  1  0
 57 24  1  0
 58 24  1  0
 59 26  1  0
 60 27  1  0
 61 28  1  0
 62 29  1  0
 63 14  1  0
M  CHG  1  14   1
M  END
>  <b_m_subgroup_collapsed>  (1007) 
0

>  <r_i_docking_score>  (1007) 
-6.9727053473072402

>  <s_m_subgroup_title>  (1007) 
glide-dock_SP_D22_pv

>  <s_m_subgroupid>  (1007) 
glide-dock_SP_D22_pv

>  <Molecule ChEMBL ID>  (1007) 
CHEMBL104160

>  <Standard Type>  (1007) 
Ki

>  <Standard Value>  (1007) 
35.0

>  <label>  (1007) 
1

$$$$
CHEMBL1081649
     RDKit          3D

 61 65  0  0  1  0  0  0  0  0999 V2000
   12.1741    6.9783   -2.3678 C   0  0  0  0  0  0  0  0  0  0  0  0
   12.0862    6.5734   -3.7244 O   0  0  0  0  0  0  0  0  0  0  0  0
   11.6088    7.4817   -4.6414 C   0  0  0  0  0  0  0  0  0  0  0  0
   11.4548    8.8657   -4.3802 C   0  0  0  0  0  0  0  0  0  0  0  0
   10.8866    9.7021   -5.3560 C   0  0  0  0  0  0  0  0  0  0  0  0
   10.4865    9.1600   -6.5897 C   0  0  0  0  0  0  0  0  0  0  0  0
   10.6762    7.8014   -6.8996 C   0  0  0  0  0  0  0  0  0  0  0  0
   10.3003    7.2882   -8.2346 C   0  0  0  0  0  0  0  0  0  0  0  0
   10.3563    8.1209   -9.3764 C   0  0  0  0  0  0  0  0  0  0  0  0
   10.0581    7.6225  -10.6560 C   0  0  0  0  0  0  0  0  0  0  0  0
    9.7145    6.2678  -10.8419 C   0  0  0  0  0  0  0  0  0  0  0  0
    9.6260    5.7406  -12.2518 C   0  0  0  0  0  0  0  0  0  0  0  0
   10.4883    6.1217  -13.0454 O   0  0  0  0  0  0  0  0  0  0  0  0
    8.6199    4.9085  -12.6277 N   0  0  0  0  0  0  0  0  0  0  0  0
    8.5459    4.4637  -14.0259 C   0  0  0  0  0  0  0  0  0  0  0  0
    7.8753    3.0941  -14.2238 C   0  0  0  0  0  0  0  0  0  0  0  0
    6.6572    2.8178  -13.4473 N   0  0  0  0  0  0  0  0  0  0  0  0
    6.0269    1.5984  -13.4471 C   0  0  0  0  0  0  0  0  0  0  0  0
    5.2860    1.2636  -12.5188 O   0  0  0  0  0  0  0  0  0  0  0  0
    6.0479    0.6768  -14.6536 C   0  0  0  0  0  0  0  0  0  0  0  0
    7.1615    0.4726  -15.5074 C   0  0  0  0  0  0  0  0  0  0  0  0
    7.0264   -0.2297  -16.7207 C   0  0  0  0  0  0  0  0  0  0  0  0
    5.8091   -0.8475  -17.0826 C   0  0  0  0  0  0  0  0  0  0  0  0
    5.3539   -1.6196  -18.2062 C   0  0  0  0  0  0  0  0  0  0  0  0
    4.0542   -1.9667  -17.9447 C   0  0  0  0  0  0  0  0  0  0  0  0
    3.6873   -1.4388  -16.7192 N   0  0  0  0  0  0  0  0  0  0  0  0
    4.7365   -0.7447  -16.1545 C   0  0  0  0  0  0  0  0  0  0  0  0
    4.8545   -0.0227  -14.9570 C   0  0  0  0  0  0  0  0  0  0  0  0
    6.3107    3.8395  -12.4300 C   0  0  2  0  0  0  0  0  0  0  0  0
    5.4320    4.9181  -13.0400 C   0  0  0  0  0  0  0  0  0  0  0  0
    7.5276    4.4919  -11.7426 C   0  0  0  0  0  0  0  0  0  0  0  0
    9.6546    5.4302   -9.7047 C   0  0  0  0  0  0  0  0  0  0  0  0
    9.9108    5.9453   -8.4203 C   0  0  0  0  0  0  0  0  0  0  0  0
   11.2427    6.9742   -5.9045 C   0  0  0  0  0  0  0  0  0  0  0  0
   12.5219    6.1336   -1.7743 H   0  0  0  0  0  0  0  0  0  0  0  0
   12.8851    7.7923   -2.2329 H   0  0  0  0  0  0  0  0  0  0  0  0
   11.2026    7.2821   -1.9765 H   0  0  0  0  0  0  0  0  0  0  0  0
   11.7379    9.3000   -3.4332 H   0  0  0  0  0  0  0  0  0  0  0  0
   10.7389   10.7525   -5.1529 H   0  0  0  0  0  0  0  0  0  0  0  0
   10.0074    9.7792   -7.3223 H   0  0  0  0  0  0  0  0  0  0  0  0
   10.6672    9.1513   -9.2962 H   0  0  0  0  0  0  0  0  0  0  0  0
   10.1422    8.2812  -11.5080 H   0  0  0  0  0  0  0  0  0  0  0  0
    8.0472    5.2350  -14.6091 H   0  0  0  0  0  0  0  0  0  0  0  0
    9.5413    4.3840  -14.4672 H   0  0  0  0  0  0  0  0  0  0  0  0
    7.6796    2.9722  -15.2879 H   0  0  0  0  0  0  0  0  0  0  0  0
    8.6177    2.3541  -13.9212 H   0  0  0  0  0  0  0  0  0  0  0  0
    8.1419    0.8533  -15.2871 H   0  0  0  0  0  0  0  0  0  0  0  0
    7.8802   -0.3357  -17.3729 H   0  0  0  0  0  0  0  0  0  0  0  0
    5.9375   -1.8860  -19.0753 H   0  0  0  0  0  0  0  0  0  0  0  0
    3.3614   -2.5659  -18.5191 H   0  0  0  0  0  0  0  0  0  0  0  0
    2.7892   -1.6212  -16.2947 H   0  0  0  0  0  0  0  0  0  0  0  0
    3.9860    0.0669  -14.3199 H   0  0  0  0  0  0  0  0  0  0  0  0
    5.7275    3.4104  -11.6136 H   0  0  0  0  0  0  0  0  0  0  0  0
    5.2860    5.7166  -12.3143 H   0  0  0  0  0  0  0  0  0  0  0  0
    5.9630    5.3723  -13.8469 H   0  0  0  0  0  0  0  0  0  0  0  0
    4.4880    4.5464  -13.4411 H   0  0  0  0  0  0  0  0  0  0  0  0
    7.9215    3.7724  -11.0460 H   0  0  0  0  0  0  0  0  0  0  0  0
    7.1925    5.3349  -11.1346 H   0  0  0  0  0  0  0  0  0  0  0  0
    9.4731    4.3717   -9.7934 H   0  0  0  0  0  0  0  0  0  0  0  0
    9.8450    5.2835   -7.5733 H   0  0  0  0  0  0  0  0  0  0  0  0
   11.3996    5.9243   -6.0977 H   0  0  0  0  0  0  0  0  0  0  0  0
  2  1  1  0
  3  2  1  0
  4  3  1  0
  5  4  2  0
  6  5  1  0
  7  6  2  0
  8  7  1  0
  9  8  1  0
 10  9  2  0
 11 10  1  0
 12 11  1  0
 13 12  2  0
 14 12  1  0
 15 14  1  0
 16 15  1  0
 17 16  1  0
 18 17  1  0
 19 18  2  0
 20 18  1  0
 21 20  2  0
 22 21  1  0
 23 22  2  0
 24 23  1  0
 25 24  2  0
 26 25  1  0
 27 23  1  0
 27 26  1  0
 28 20  1  0
 28 27  2  0
 29 17  1  0
 30 29  1  0
 31 14  1  0
 31 29  1  0
 32 11  2  0
 33  8  2  0
 33 32  1  0
 34  3  2  0
 34  7  1  0
 35  1  1  0
 36  1  1  0
 37  1  1  0
 38  4  1  0
 39  5  1  0
 40  6  1  0
 41  9  1  0
 42 10  1  0
 43 15  1  0
 44 15  1  0
 45 16  1  0
 46 16  1  0
 47 21  1  0
 48 22  1  0
 49 24  1  0
 50 25  1  0
 51 26  1  0
 52 28  1  0
 29 53  1  1
 54 30  1  0
 55 30  1  0
 56 30  1  0
 57 31  1  0
 58 31  1  0
 59 32  1  0
 60 33  1  0
 61 34  1  0
M  END
>  <b_m_subgroup_collapsed>  (1008) 
0

>  <r_i_docking_score>  (1008) 
-6.97258890483418

>  <s_m_subgroup_title>  (1008) 
glide-dock_SP_D22_pv

>  <s_m_subgroupid>  (1008) 
glide-dock_SP_D22_pv

>  <Molecule ChEMBL ID>  (1008) 
CHEMBL1081649

>  <Standard Type>  (1008) 
Ki

>  <Standard Value>  (1008) 
10000.0

>  <label>  (1008) 
0

$$$$
CHEMBL253096
     RDKit          3D

 46 49  0  0  1  0  0  0  0  0999 V2000
    9.1572    8.4010  -11.9998 C   0  0  0  0  0  0  0  0  0  0  0  0
    9.4721    6.8745  -12.0628 C   0  0  2  0  0  0  0  0  0  0  0  0
    9.4865    6.3115  -10.6402 C   0  0  0  0  0  0  0  0  0  0  0  0
    8.8081    5.1093  -10.3164 C   0  0  0  0  0  0  0  0  0  0  0  0
    8.7642    4.6595   -9.0056 C   0  0  0  0  0  0  0  0  0  0  0  0
    9.3946    5.4036   -8.0188 C   0  0  0  0  0  0  0  0  0  0  0  0
   10.1337    6.5713   -8.2847 C   0  0  0  0  0  0  0  0  0  0  0  0
   10.8022    7.2911   -7.3127 O   0  0  0  0  0  0  0  0  0  0  0  0
   10.8773    6.6889   -6.0231 C   0  0  0  0  0  0  0  0  0  0  0  0
   11.4035    7.5864   -4.9320 C   0  0  0  0  0  0  0  0  0  0  0  0
   11.2040    8.9785   -4.9912 C   0  0  0  0  0  0  0  0  0  0  0  0
   11.5186    9.7723   -3.8751 C   0  0  0  0  0  0  0  0  0  0  0  0
   12.0865    9.1928   -2.7240 C   0  0  0  0  0  0  0  0  0  0  0  0
   12.3168    7.8063   -2.6771 C   0  0  0  0  0  0  0  0  0  0  0  0
   11.9632    7.0029   -3.7756 C   0  0  0  0  0  0  0  0  0  0  0  0
   10.1715    7.0152   -9.6143 C   0  0  0  0  0  0  0  0  0  0  0  0
   10.8861    6.6244  -12.6567 C   0  0  0  0  0  0  0  0  0  0  0  0
   11.8202    7.3723  -12.3736 O   0  0  0  0  0  0  0  0  0  0  0  0
   11.1024    5.5591  -13.4468 N   0  0  0  0  0  0  0  0  0  0  0  0
   10.1218    4.5944  -13.7731 C   0  0  0  0  0  0  0  0  0  0  0  0
   10.5363    3.3734  -14.3424 C   0  0  0  0  0  0  0  0  0  0  0  0
    9.5864    2.3817  -14.6467 C   0  0  0  0  0  0  0  0  0  0  0  0
   10.0897    0.8696  -15.3099 Cl  0  0  0  0  0  0  0  0  0  0  0  0
    8.2240    2.6158  -14.3894 C   0  0  0  0  0  0  0  0  0  0  0  0
    7.7973    3.8329  -13.8208 C   0  0  0  0  0  0  0  0  0  0  0  0
    6.1129    3.9887  -13.4468 Cl  0  0  0  0  0  0  0  0  0  0  0  0
    8.7512    4.8443  -13.5188 C   0  0  0  0  0  0  0  0  0  0  0  0
    8.3889    6.1723  -12.9295 C   0  0  0  0  0  0  0  0  0  0  0  0
    7.2860    6.6982  -13.0460 O   0  0  0  0  0  0  0  0  0  0  0  0
    9.0246    8.8526  -12.9831 H   0  0  0  0  0  0  0  0  0  0  0  0
    8.2367    8.5903  -11.4466 H   0  0  0  0  0  0  0  0  0  0  0  0
    9.9404    8.9723  -11.5070 H   0  0  0  0  0  0  0  0  0  0  0  0
    8.2638    4.5077  -11.0240 H   0  0  0  0  0  0  0  0  0  0  0  0
    8.2073    3.7728   -8.7454 H   0  0  0  0  0  0  0  0  0  0  0  0
    9.2866    5.0144   -7.0471 H   0  0  0  0  0  0  0  0  0  0  0  0
   11.4759    5.7762   -6.0751 H   0  0  0  0  0  0  0  0  0  0  0  0
    9.8810    6.4315   -5.6640 H   0  0  0  0  0  0  0  0  0  0  0  0
   10.7420    9.4284   -5.8583 H   0  0  0  0  0  0  0  0  0  0  0  0
   11.2859   10.8260   -3.8975 H   0  0  0  0  0  0  0  0  0  0  0  0
   12.3275    9.8049   -1.8677 H   0  0  0  0  0  0  0  0  0  0  0  0
   12.7321    7.3538   -1.7894 H   0  0  0  0  0  0  0  0  0  0  0  0
   12.0874    5.9315   -3.7151 H   0  0  0  0  0  0  0  0  0  0  0  0
   10.7307    7.9123   -9.8296 H   0  0  0  0  0  0  0  0  0  0  0  0
   12.0462    5.4056  -13.7721 H   0  0  0  0  0  0  0  0  0  0  0  0
   11.5829    3.1835  -14.5312 H   0  0  0  0  0  0  0  0  0  0  0  0
    7.5005    1.8436  -14.6061 H   0  0  0  0  0  0  0  0  0  0  0  0
  2  1  1  1
  3  2  1  0
  4  3  2  0
  5  4  1  0
  6  5  2  0
  7  6  1  0
  8  7  1  0
  9  8  1  0
 10  9  1  0
 11 10  2  0
 12 11  1  0
 13 12  2  0
 14 13  1  0
 15 10  1  0
 15 14  2  0
 16  3  1  0
 16  7  2  0
 17  2  1  0
 18 17  2  0
 19 17  1  0
 20 19  1  0
 21 20  2  0
 22 21  1  0
 23 22  1  0
 24 22  2  0
 25 24  1  0
 26 25  1  0
 27 20  1  0
 27 25  2  0
 28  2  1  0
 28 27  1  0
 29 28  2  0
 30  1  1  0
 31  1  1  0
 32  1  1  0
 33  4  1  0
 34  5  1  0
 35  6  1  0
 36  9  1  0
 37  9  1  0
 38 11  1  0
 39 12  1  0
 40 13  1  0
 41 14  1  0
 42 15  1  0
 43 16  1  0
 44 19  1  0
 45 21  1  0
 46 24  1  0
M  END
>  <b_m_subgroup_collapsed>  (1009) 
0

>  <r_i_docking_score>  (1009) 
-6.9695880012474101

>  <s_m_subgroup_title>  (1009) 
glide-dock_SP_D22_pv

>  <s_m_subgroupid>  (1009) 
glide-dock_SP_D22_pv

>  <Molecule ChEMBL ID>  (1009) 
CHEMBL253096

>  <Standard Type>  (1009) 
Ki

>  <Standard Value>  (1009) 
10000.0

>  <label>  (1009) 
0

$$$$
CHEMBL4166021
     RDKit          3D

 46 47  0  0  1  0  0  0  0  0999 V2000
    5.7601    3.9253  -11.8616 C   0  0  0  0  0  0  0  0  0  0  0  0
    6.8129    4.7213  -12.6374 C   0  0  0  0  0  0  0  0  0  0  0  0
    7.4819    5.7721  -11.8309 N   0  0  0  0  0  0  0  0  0  0  0  0
    8.2401    6.7177  -12.6765 C   0  0  0  0  0  0  0  0  0  0  0  0
    8.7690    7.8967  -11.8481 C   0  0  0  0  0  0  0  0  0  0  0  0
    9.6021    7.4362  -10.7387 N   0  0  0  0  0  0  0  0  0  0  0  0
    9.9032    8.5997   -9.9018 C   0  0  0  0  0  0  0  0  0  0  0  0
   11.3957    8.9242   -9.9977 C   0  0  0  0  0  0  0  0  0  0  0  0
   12.2357    8.0082   -9.0987 C   0  0  0  0  0  0  0  0  0  0  0  0
   12.0340    8.2729   -7.6739 N   0  0  0  0  0  0  0  0  0  0  0  0
   11.2859    7.5582   -6.8082 C   0  0  0  0  0  0  0  0  0  0  0  0
   10.5818    6.6078   -7.1376 O   0  0  0  0  0  0  0  0  0  0  0  0
   11.4915    7.8737   -5.3491 C   0  0  0  0  0  0  0  0  0  0  0  0
   11.6855    6.7967   -4.4538 C   0  0  0  0  0  0  0  0  0  0  0  0
   12.0169    7.0214   -3.1045 C   0  0  0  0  0  0  0  0  0  0  0  0
   12.1275    8.3377   -2.6295 C   0  0  0  0  0  0  0  0  0  0  0  0
   12.4852    8.5719   -1.3476 F   0  0  0  0  0  0  0  0  0  0  0  0
   11.8774    9.4184   -3.4895 C   0  0  0  0  0  0  0  0  0  0  0  0
   11.5646    9.1978   -4.8456 C   0  0  0  0  0  0  0  0  0  0  0  0
   11.2862   10.5724   -5.8472 Cl  0  0  0  0  0  0  0  0  0  0  0  0
    8.9037    6.4277   -9.9311 C   0  0  0  0  0  0  0  0  0  0  0  0
    8.3895    5.2572  -10.7822 C   0  0  0  0  0  0  0  0  0  0  0  0
    5.2618    3.2083  -12.5139 H   0  0  0  0  0  0  0  0  0  0  0  0
    6.2080    3.3635  -11.0471 H   0  0  0  0  0  0  0  0  0  0  0  0
    4.9941    4.5804  -11.4474 H   0  0  0  0  0  0  0  0  0  0  0  0
    6.3017    5.1956  -13.4729 H   0  0  0  0  0  0  0  0  0  0  0  0
    7.5581    4.0484  -13.0640 H   0  0  0  0  0  0  0  0  0  0  0  0
    7.5889    7.1193  -13.4463 H   0  0  0  0  0  0  0  0  0  0  0  0
    9.0550    6.1891  -13.1759 H   0  0  0  0  0  0  0  0  0  0  0  0
    7.9432    8.5094  -11.4917 H   0  0  0  0  0  0  0  0  0  0  0  0
    9.3662    8.5507  -12.4848 H   0  0  0  0  0  0  0  0  0  0  0  0
    9.6104    8.4405   -8.8638 H   0  0  0  0  0  0  0  0  0  0  0  0
    9.3255    9.4711  -10.2108 H   0  0  0  0  0  0  0  0  0  0  0  0
   11.5598    9.9609   -9.7076 H   0  0  0  0  0  0  0  0  0  0  0  0
   11.7279    8.8484  -11.0384 H   0  0  0  0  0  0  0  0  0  0  0  0
   13.2935    8.1596   -9.3170 H   0  0  0  0  0  0  0  0  0  0  0  0
   12.0098    6.9728   -9.3457 H   0  0  0  0  0  0  0  0  0  0  0  0
   12.5890    9.0221   -7.2839 H   0  0  0  0  0  0  0  0  0  0  0  0
   11.6240    5.7807   -4.8137 H   0  0  0  0  0  0  0  0  0  0  0  0
   12.1923    6.1857   -2.4416 H   0  0  0  0  0  0  0  0  0  0  0  0
   11.9407   10.4236   -3.0982 H   0  0  0  0  0  0  0  0  0  0  0  0
    9.6031    6.0207   -9.2073 H   0  0  0  0  0  0  0  0  0  0  0  0
    8.0863    6.8655   -9.3596 H   0  0  0  0  0  0  0  0  0  0  0  0
    7.8684    4.5572  -10.1321 H   0  0  0  0  0  0  0  0  0  0  0  0
    9.2224    4.7124  -11.2307 H   0  0  0  0  0  0  0  0  0  0  0  0
    6.7831    6.3319  -11.3454 H   0  0  0  0  0  0  0  0  0  0  0  0
  2  1  1  0
  3  2  1  0
  4  3  1  0
  5  4  1  0
  6  5  1  0
  7  6  1  0
  8  7  1  0
  9  8  1  0
 10  9  1  0
 11 10  1  0
 12 11  2  0
 13 11  1  0
 14 13  1  0
 15 14  2  0
 16 15  1  0
 17 16  1  0
 18 16  2  0
 19 13  2  0
 19 18  1  0
 20 19  1  0
 21  6  1  0
 22  3  1  0
 22 21  1  0
 23  1  1  0
 24  1  1  0
 25  1  1  0
 26  2  1  0
 27  2  1  0
 28  4  1  0
 29  4  1  0
 30  5  1  0
 31  5  1  0
 32  7  1  0
 33  7  1  0
 34  8  1  0
 35  8  1  0
 36  9  1  0
 37  9  1  0
 38 10  1  0
 39 14  1  0
 40 15  1  0
 41 18  1  0
 42 21  1  0
 43 21  1  0
 44 22  1  0
 45 22  1  0
 46  3  1  0
M  CHG  1   3   1
M  END
>  <b_m_subgroup_collapsed>  (1010) 
0

>  <r_i_docking_score>  (1010) 
-6.9689249784310299

>  <s_m_subgroup_title>  (1010) 
glide-dock_SP_D22_pv

>  <s_m_subgroupid>  (1010) 
glide-dock_SP_D22_pv

>  <Molecule ChEMBL ID>  (1010) 
CHEMBL4166021

>  <Standard Type>  (1010) 
Ki

>  <Standard Value>  (1010) 
10000.0

>  <label>  (1010) 
0

$$$$
CHEMBL4858961
     RDKit          3D

 52 53  0  0  1  0  0  0  0  0999 V2000
   11.0249    9.4238   -6.3028 C   0  0  0  0  0  0  0  0  0  0  0  0
   10.7400    8.3297   -7.3389 C   0  0  0  0  0  0  0  0  0  0  0  0
    9.2307    8.1626   -7.6238 C   0  0  0  0  0  0  0  0  0  0  0  0
    8.8860    7.0770   -8.5786 N   0  0  2  0  0  0  0  0  0  0  0  0
    9.1367    5.6922   -8.1421 C   0  0  0  0  0  0  0  0  0  0  0  0
    9.1607    4.8432   -9.4207 C   0  0  0  0  0  0  0  0  0  0  0  0
    9.1313    5.8310  -10.6045 C   0  0  1  0  0  0  0  0  0  0  0  0
    7.8008    5.7717  -11.3858 C   0  0  0  0  0  0  0  0  0  0  0  0
    7.6844    4.5459  -12.1621 N   0  0  0  0  0  0  0  0  0  0  0  0
    8.0129    4.4131  -13.4560 C   0  0  0  0  0  0  0  0  0  0  0  0
    8.4862    5.3290  -14.1262 O   0  0  0  0  0  0  0  0  0  0  0  0
    7.8241    3.0315  -14.0314 C   0  0  0  0  0  0  0  0  0  0  0  0
    6.6065    2.3111  -13.8469 C   0  0  0  0  0  0  0  0  0  0  0  0
    5.5498    2.8719  -13.1766 O   0  0  0  0  0  0  0  0  0  0  0  0
    6.4854    0.9812  -14.3261 C   0  0  0  0  0  0  0  0  0  0  0  0
    5.2217    0.1537  -14.0947 C   0  0  0  0  0  0  0  0  0  0  0  0
    4.6847   -0.5437  -15.3550 C   0  0  0  0  0  0  0  0  0  0  0  0
    7.5721    0.3880  -14.9967 C   0  0  0  0  0  0  0  0  0  0  0  0
    8.7595    1.1004  -15.2191 C   0  0  0  0  0  0  0  0  0  0  0  0
   10.0606    0.3247  -16.0523 Cl  0  0  0  0  0  0  0  0  0  0  0  0
    8.8891    2.4235  -14.7495 C   0  0  0  0  0  0  0  0  0  0  0  0
   10.0568    3.1007  -14.9993 O   0  0  0  0  0  0  0  0  0  0  0  0
   11.0400    2.9316  -13.9937 C   0  0  0  0  0  0  0  0  0  0  0  0
    9.3775    7.2040   -9.9617 C   0  0  0  0  0  0  0  0  0  0  0  0
   12.0958    9.5061   -6.1128 H   0  0  0  0  0  0  0  0  0  0  0  0
   10.6770   10.3976   -6.6463 H   0  0  0  0  0  0  0  0  0  0  0  0
   10.5328    9.2078   -5.3537 H   0  0  0  0  0  0  0  0  0  0  0  0
   11.1690    7.3990   -6.9714 H   0  0  0  0  0  0  0  0  0  0  0  0
   11.2763    8.5778   -8.2548 H   0  0  0  0  0  0  0  0  0  0  0  0
    8.8258    9.0975   -8.0148 H   0  0  0  0  0  0  0  0  0  0  0  0
    8.6967    7.9702   -6.6913 H   0  0  0  0  0  0  0  0  0  0  0  0
    8.3556    5.3725   -7.4518 H   0  0  0  0  0  0  0  0  0  0  0  0
   10.0937    5.6030   -7.6312 H   0  0  0  0  0  0  0  0  0  0  0  0
    8.3011    4.1724   -9.4382 H   0  0  0  0  0  0  0  0  0  0  0  0
   10.0554    4.2192   -9.4492 H   0  0  0  0  0  0  0  0  0  0  0  0
    9.9456    5.6186  -11.2988 H   0  0  0  0  0  0  0  0  0  0  0  0
    7.6854    6.6463  -12.0286 H   0  0  0  0  0  0  0  0  0  0  0  0
    6.9593    5.7723  -10.6949 H   0  0  0  0  0  0  0  0  0  0  0  0
    7.3444    3.7290  -11.6746 H   0  0  0  0  0  0  0  0  0  0  0  0
    5.6555    3.7916  -12.9841 H   0  0  0  0  0  0  0  0  0  0  0  0
    5.4555   -0.5978  -13.3419 H   0  0  0  0  0  0  0  0  0  0  0  0
    4.4218    0.7636  -13.6772 H   0  0  0  0  0  0  0  0  0  0  0  0
    3.7521   -1.0660  -15.1378 H   0  0  0  0  0  0  0  0  0  0  0  0
    4.4853    0.1722  -16.1516 H   0  0  0  0  0  0  0  0  0  0  0  0
    5.3832   -1.2872  -15.7395 H   0  0  0  0  0  0  0  0  0  0  0  0
    7.5031   -0.6275  -15.3524 H   0  0  0  0  0  0  0  0  0  0  0  0
   11.9532    3.4505  -14.2832 H   0  0  0  0  0  0  0  0  0  0  0  0
   10.7015    3.3518  -13.0468 H   0  0  0  0  0  0  0  0  0  0  0  0
   11.2846    1.8789  -13.8469 H   0  0  0  0  0  0  0  0  0  0  0  0
   10.4479    7.4065   -9.9635 H   0  0  0  0  0  0  0  0  0  0  0  0
    8.8864    8.0223  -10.4899 H   0  0  0  0  0  0  0  0  0  0  0  0
    7.8728    7.1327   -8.6767 H   0  0  0  0  0  0  0  0  0  0  0  0
  2  1  1  0
  3  2  1  0
  4  3  1  0
  5  4  1  0
  6  5  1  0
  7  6  1  0
  8  7  1  0
  9  8  1  0
 10  9  1  0
 11 10  2  0
 12 10  1  0
 13 12  1  0
 14 13  1  0
 15 13  2  0
 16 15  1  0
 17 16  1  0
 18 15  1  0
 19 18  2  0
 20 19  1  0
 21 12  2  0
 21 19  1  0
 22 21  1  0
 23 22  1  0
 24  4  1  0
 24  7  1  0
 25  1  1  0
 26  1  1  0
 27  1  1  0
 28  2  1  0
 29  2  1  0
 30  3  1  0
 31  3  1  0
 32  5  1  0
 33  5  1  0
 34  6  1  0
 35  6  1  0
  7 36  1  6
 37  8  1  0
 38  8  1  0
 39  9  1  0
 40 14  1  0
 41 16  1  0
 42 16  1  0
 43 17  1  0
 44 17  1  0
 45 17  1  0
 46 18  1  0
 47 23  1  0
 48 23  1  0
 49 23  1  0
 50 24  1  0
 51 24  1  0
  4 52  1  6
M  CHG  1   4   1
M  END
>  <b_m_subgroup_collapsed>  (1011) 
0

>  <r_i_docking_score>  (1011) 
-6.9681138343680598

>  <s_m_subgroup_title>  (1011) 
glide-dock_SP_D22_pv

>  <s_m_subgroupid>  (1011) 
glide-dock_SP_D22_pv

>  <Molecule ChEMBL ID>  (1011) 
CHEMBL4858961

>  <Standard Type>  (1011) 
Ki

>  <Standard Value>  (1011) 
66.4

>  <label>  (1011) 
1

$$$$
CHEMBL201177
     RDKit          3D

 48 51  0  0  1  0  0  0  0  0999 V2000
   13.0784    4.7070  -16.3900 C   0  0  0  0  0  0  0  0  0  0  0  0
   12.2391    5.0033  -15.2065 N   0  0  1  0  0  0  0  0  0  0  0  0
   11.5553    6.3111  -15.3073 C   0  0  0  0  0  0  0  0  0  0  0  0
   12.1513    7.3343  -14.3196 C   0  0  0  0  0  0  0  0  0  0  0  0
   12.0855    6.9872  -12.8166 C   0  0  0  0  0  0  0  0  0  0  0  0
   10.6975    7.1165  -12.1180 C   0  0  2  0  0  0  0  0  0  0  0  0
   10.7918    7.2600  -10.5846 C   0  0  0  0  0  0  0  0  0  0  0  0
   10.0862    6.4024   -9.6987 C   0  0  0  0  0  0  0  0  0  0  0  0
   10.1643    6.5766   -8.3040 C   0  0  0  0  0  0  0  0  0  0  0  0
   10.9583    7.6037   -7.7649 C   0  0  0  0  0  0  0  0  0  0  0  0
   11.6626    8.4639   -8.6273 C   0  0  0  0  0  0  0  0  0  0  0  0
   11.5694    8.3012  -10.0233 C   0  0  0  0  0  0  0  0  0  0  0  0
    9.6383    6.1258  -12.5480 C   0  0  0  0  0  0  0  0  0  0  0  0
    8.3105    6.4501  -12.2949 N   0  0  0  0  0  0  0  0  0  0  0  0
    7.4659    5.4560  -12.7145 C   0  0  0  0  0  0  0  0  0  0  0  0
    6.0738    5.3161  -12.6468 C   0  0  0  0  0  0  0  0  0  0  0  0
    5.4688    4.1679  -13.1875 C   0  0  0  0  0  0  0  0  0  0  0  0
    6.2639    3.1787  -13.7950 C   0  0  0  0  0  0  0  0  0  0  0  0
    7.6631    3.3269  -13.8467 C   0  0  0  0  0  0  0  0  0  0  0  0
    8.2996    4.4621  -13.2909 C   0  0  0  0  0  0  0  0  0  0  0  0
    9.6680    4.8570  -13.1062 C   0  0  0  0  0  0  0  0  0  0  0  0
   10.8227    3.9446  -13.4110 C   0  0  0  0  0  0  0  0  0  0  0  0
   11.3201    3.8888  -14.8676 C   0  0  0  0  0  0  0  0  0  0  0  0
   12.4701    4.6131  -17.2904 H   0  0  0  0  0  0  0  0  0  0  0  0
   13.6321    3.7778  -16.2588 H   0  0  0  0  0  0  0  0  0  0  0  0
   13.8079    5.5008  -16.5521 H   0  0  0  0  0  0  0  0  0  0  0  0
   11.6472    6.7105  -16.3192 H   0  0  0  0  0  0  0  0  0  0  0  0
   10.4862    6.1725  -15.1701 H   0  0  0  0  0  0  0  0  0  0  0  0
   13.1998    7.4826  -14.5835 H   0  0  0  0  0  0  0  0  0  0  0  0
   11.6860    8.3006  -14.4771 H   0  0  0  0  0  0  0  0  0  0  0  0
   12.5596    6.0312  -12.6471 H   0  0  0  0  0  0  0  0  0  0  0  0
   12.7642    7.6966  -12.3442 H   0  0  0  0  0  0  0  0  0  0  0  0
   10.3198    8.0937  -12.4217 H   0  0  0  0  0  0  0  0  0  0  0  0
    9.4735    5.5918  -10.0631 H   0  0  0  0  0  0  0  0  0  0  0  0
    9.6141    5.9175   -7.6486 H   0  0  0  0  0  0  0  0  0  0  0  0
   11.0198    7.7348   -6.6947 H   0  0  0  0  0  0  0  0  0  0  0  0
   12.2701    9.2566   -8.2170 H   0  0  0  0  0  0  0  0  0  0  0  0
   12.1033    8.9941  -10.6574 H   0  0  0  0  0  0  0  0  0  0  0  0
    8.0106    7.2654  -11.7683 H   0  0  0  0  0  0  0  0  0  0  0  0
    5.4841    6.0849  -12.1680 H   0  0  0  0  0  0  0  0  0  0  0  0
    4.3978    4.0449  -13.1373 H   0  0  0  0  0  0  0  0  0  0  0  0
    5.8007    2.2943  -14.2085 H   0  0  0  0  0  0  0  0  0  0  0  0
    8.2615    2.5432  -14.2870 H   0  0  0  0  0  0  0  0  0  0  0  0
   11.6532    4.1724  -12.7574 H   0  0  0  0  0  0  0  0  0  0  0  0
   10.5170    2.9341  -13.1310 H   0  0  0  0  0  0  0  0  0  0  0  0
   10.4877    3.8250  -15.5698 H   0  0  0  0  0  0  0  0  0  0  0  0
   11.8777    2.9578  -14.9738 H   0  0  0  0  0  0  0  0  0  0  0  0
   12.8771    5.0848  -14.4277 H   0  0  0  0  0  0  0  0  0  0  0  0
  2  1  1  0
  3  2  1  0
  4  3  1  0
  5  4  1  0
  6  5  1  0
  7  6  1  0
  8  7  2  0
  9  8  1  0
 10  9  2  0
 11 10  1  0
 12  7  1  0
 12 11  2  0
 13  6  1  0
 14 13  1  0
 15 14  1  0
 16 15  2  0
 17 16  1  0
 18 17  2  0
 19 18  1  0
 20 15  1  0
 20 19  2  0
 21 13  2  0
 21 20  1  0
 22 21  1  0
 23  2  1  0
 23 22  1  0
 24  1  1  0
 25  1  1  0
 26  1  1  0
 27  3  1  0
 28  3  1  0
 29  4  1  0
 30  4  1  0
 31  5  1  0
 32  5  1  0
  6 33  1  6
 34  8  1  0
 35  9  1  0
 36 10  1  0
 37 11  1  0
 38 12  1  0
 39 14  1  0
 40 16  1  0
 41 17  1  0
 42 18  1  0
 43 19  1  0
 44 22  1  0
 45 22  1  0
 46 23  1  0
 47 23  1  0
  2 48  1  1
M  CHG  1   2   1
M  END
>  <b_m_subgroup_collapsed>  (1012) 
0

>  <r_i_docking_score>  (1012) 
-6.9671215764587799

>  <s_m_subgroup_title>  (1012) 
glide-dock_SP_D22_pv

>  <s_m_subgroupid>  (1012) 
glide-dock_SP_D22_pv

>  <Molecule ChEMBL ID>  (1012) 
CHEMBL201177

>  <Standard Type>  (1012) 
Ki

>  <Standard Value>  (1012) 
10000.0

>  <label>  (1012) 
0

$$$$
CHEMBL4435834
     RDKit          3D

 56 58  0  0  1  0  0  0  0  0999 V2000
    6.8857    2.3753  -14.5868 C   0  0  0  0  0  0  0  0  0  0  0  0
    8.1060    3.2269  -14.2216 C   0  0  0  0  0  0  0  0  0  0  0  0
    7.8002    4.2818  -13.1468 C   0  0  0  0  0  0  0  0  0  0  0  0
    9.0312    5.1512  -12.8369 C   0  0  0  0  0  0  0  0  0  0  0  0
    8.8592    5.9947  -11.6255 N   0  0  0  0  0  0  0  0  0  0  0  0
    9.7277    7.2009  -11.6521 C   0  0  0  0  0  0  0  0  0  0  0  0
    9.4837    8.1089  -10.4335 C   0  0  0  0  0  0  0  0  0  0  0  0
    9.6173    7.3678   -9.0817 C   0  0  0  0  0  0  0  0  0  0  0  0
    8.7672    6.0602   -9.1464 C   0  0  0  0  0  0  0  0  0  0  0  0
    9.0653    5.2138  -10.3812 C   0  0  0  0  0  0  0  0  0  0  0  0
   11.1087    7.1121   -8.7340 C   0  0  0  0  0  0  0  0  0  0  0  0
   11.2858    6.4042   -7.3689 C   0  0  0  0  0  0  0  0  0  0  0  0
   10.5557    7.1165   -6.3304 N   0  0  0  0  0  0  0  0  0  0  0  0
   11.2235    7.5359   -5.1698 C   0  0  0  0  0  0  0  0  0  0  0  0
   11.6854    6.5805   -4.2452 C   0  0  0  0  0  0  0  0  0  0  0  0
   12.2708    6.9753   -3.0292 C   0  0  0  0  0  0  0  0  0  0  0  0
   12.4096    8.3429   -2.7363 C   0  0  0  0  0  0  0  0  0  0  0  0
   11.9847    9.3059   -3.6698 C   0  0  0  0  0  0  0  0  0  0  0  0
   11.4091    8.9084   -4.9039 C   0  0  0  0  0  0  0  0  0  0  0  0
   11.0099    9.7913   -5.8770 O   0  0  0  0  0  0  0  0  0  0  0  0
   11.6852   11.0207   -5.9243 C   0  0  0  0  0  0  0  0  0  0  0  0
    9.1995    7.5940   -6.5923 C   0  0  0  0  0  0  0  0  0  0  0  0
    9.1063    8.2829   -7.9569 C   0  0  0  0  0  0  0  0  0  0  0  0
    7.1500    1.6056  -15.3121 H   0  0  0  0  0  0  0  0  0  0  0  0
    6.4749    1.8730  -13.7104 H   0  0  0  0  0  0  0  0  0  0  0  0
    6.0982    2.9840  -15.0301 H   0  0  0  0  0  0  0  0  0  0  0  0
    8.4886    3.7136  -15.1195 H   0  0  0  0  0  0  0  0  0  0  0  0
    8.9008    2.5669  -13.8673 H   0  0  0  0  0  0  0  0  0  0  0  0
    7.4459    3.7724  -12.2519 H   0  0  0  0  0  0  0  0  0  0  0  0
    6.9787    4.9201  -13.4745 H   0  0  0  0  0  0  0  0  0  0  0  0
    9.2198    5.7741  -13.7109 H   0  0  0  0  0  0  0  0  0  0  0  0
    9.9212    4.5293  -12.7189 H   0  0  0  0  0  0  0  0  0  0  0  0
    9.5241    7.7766  -12.5548 H   0  0  0  0  0  0  0  0  0  0  0  0
   10.7757    6.9015  -11.7021 H   0  0  0  0  0  0  0  0  0  0  0  0
    8.4861    8.5389  -10.5194 H   0  0  0  0  0  0  0  0  0  0  0  0
   10.1659    8.9610  -10.4645 H   0  0  0  0  0  0  0  0  0  0  0  0
    8.9160    5.4387   -8.2652 H   0  0  0  0  0  0  0  0  0  0  0  0
    7.6947    6.2708   -9.1394 H   0  0  0  0  0  0  0  0  0  0  0  0
    8.4065    4.3469  -10.3641 H   0  0  0  0  0  0  0  0  0  0  0  0
   10.0858    4.8314  -10.3381 H   0  0  0  0  0  0  0  0  0  0  0  0
   11.6326    8.0691   -8.6876 H   0  0  0  0  0  0  0  0  0  0  0  0
   11.6009    6.5722   -9.5347 H   0  0  0  0  0  0  0  0  0  0  0  0
   12.3378    6.3552   -7.0900 H   0  0  0  0  0  0  0  0  0  0  0  0
   10.9360    5.3742   -7.4225 H   0  0  0  0  0  0  0  0  0  0  0  0
   11.5476    5.5391   -4.4598 H   0  0  0  0  0  0  0  0  0  0  0  0
   12.5946    6.2282   -2.3194 H   0  0  0  0  0  0  0  0  0  0  0  0
   12.8410    8.6572   -1.7963 H   0  0  0  0  0  0  0  0  0  0  0  0
   12.0865   10.3451   -3.4065 H   0  0  0  0  0  0  0  0  0  0  0  0
   11.5072   11.4978   -6.8834 H   0  0  0  0  0  0  0  0  0  0  0  0
   11.2860   11.6609   -5.1347 H   0  0  0  0  0  0  0  0  0  0  0  0
   12.7645   10.8922   -5.8469 H   0  0  0  0  0  0  0  0  0  0  0  0
    8.5010    6.7602   -6.5260 H   0  0  0  0  0  0  0  0  0  0  0  0
    8.8818    8.3101   -5.8469 H   0  0  0  0  0  0  0  0  0  0  0  0
    9.6804    9.2097   -7.9422 H   0  0  0  0  0  0  0  0  0  0  0  0
    8.0861    8.5945   -8.1369 H   0  0  0  0  0  0  0  0  0  0  0  0
    7.9051    6.3368  -11.6030 H   0  0  0  0  0  0  0  0  0  0  0  0
  2  1  1  0
  3  2  1  0
  4  3  1  0
  5  4  1  0
  6  5  1  0
  7  6  1  0
  8  7  1  0
  9  8  1  0
 10  5  1  0
 10  9  1  0
 11  8  1  0
 12 11  1  0
 13 12  1  0
 14 13  1  0
 15 14  2  0
 16 15  1  0
 17 16  2  0
 18 17  1  0
 19 14  1  0
 19 18  2  0
 20 19  1  0
 21 20  1  0
 22 13  1  0
 23  8  1  0
 23 22  1  0
 24  1  1  0
 25  1  1  0
 26  1  1  0
 27  2  1  0
 28  2  1  0
 29  3  1  0
 30  3  1  0
 31  4  1  0
 32  4  1  0
 33  6  1  0
 34  6  1  0
 35  7  1  0
 36  7  1  0
 37  9  1  0
 38  9  1  0
 39 10  1  0
 40 10  1  0
 41 11  1  0
 42 11  1  0
 43 12  1  0
 44 12  1  0
 45 15  1  0
 46 16  1  0
 47 17  1  0
 48 18  1  0
 49 21  1  0
 50 21  1  0
 51 21  1  0
 52 22  1  0
 53 22  1  0
 54 23  1  0
 55 23  1  0
 56  5  1  0
M  CHG  1   5   1
M  END
>  <b_m_subgroup_collapsed>  (1013) 
0

>  <r_i_docking_score>  (1013) 
-6.9657441528181296

>  <s_m_subgroup_title>  (1013) 
glide-dock_SP_D22_pv

>  <s_m_subgroupid>  (1013) 
glide-dock_SP_D22_pv

>  <Molecule ChEMBL ID>  (1013) 
CHEMBL4435834

>  <Standard Type>  (1013) 
Ki

>  <Standard Value>  (1013) 
26739.0

>  <label>  (1013) 
0

$$$$
CHEMBL2115560
     RDKit          3D

 50 53  0  0  1  0  0  0  0  0999 V2000
    8.5647    8.5723   -6.6469 O   0  0  0  0  0  0  0  0  0  0  0  0
    9.5036    8.4732   -7.4165 C   0  0  0  0  0  0  0  0  0  0  0  0
    9.2885    8.6962   -8.8911 C   0  0  0  0  0  0  0  0  0  0  0  0
    9.7596    7.4337   -9.6209 C   0  0  1  0  0  0  0  0  0  0  0  0
    8.9367    6.1744   -9.2057 C   0  0  0  0  0  0  0  0  0  0  0  0
    9.1048    4.9710  -10.1318 C   0  0  0  0  0  0  0  0  0  0  0  0
    8.9007    5.3369  -11.6036 C   0  0  2  0  0  0  0  0  0  0  0  0
    9.1799    4.1720  -12.3656 O   0  0  0  0  0  0  0  0  0  0  0  0
    8.5362    4.1171  -13.6297 C   0  0  0  0  0  0  0  0  0  0  0  0
    8.8464    2.8122  -14.3369 C   0  0  0  0  0  0  0  0  0  0  0  0
    7.8148    1.8995  -14.6469 C   0  0  0  0  0  0  0  0  0  0  0  0
    8.1175    0.6756  -15.2761 C   0  0  0  0  0  0  0  0  0  0  0  0
    9.4494    0.3670  -15.6128 C   0  0  0  0  0  0  0  0  0  0  0  0
   10.4783    1.2828  -15.3207 C   0  0  0  0  0  0  0  0  0  0  0  0
   10.1786    2.5007  -14.6791 C   0  0  0  0  0  0  0  0  0  0  0  0
    9.8511    6.4758  -11.9993 C   0  0  0  0  0  0  0  0  0  0  0  0
    9.6263    7.7165  -11.1335 C   0  0  0  0  0  0  0  0  0  0  0  0
   11.1468    7.2148   -9.3038 O   0  0  0  0  0  0  0  0  0  0  0  0
   11.5598    7.4467   -7.9987 C   0  0  0  0  0  0  0  0  0  0  0  0
   10.8384    8.0396   -7.0215 C   0  0  0  0  0  0  0  0  0  0  0  0
   11.2851    8.1156   -5.6154 C   0  0  0  0  0  0  0  0  0  0  0  0
   11.2891    9.3590   -4.9446 C   0  0  0  0  0  0  0  0  0  0  0  0
   11.6890    9.4324   -3.5953 C   0  0  0  0  0  0  0  0  0  0  0  0
   12.0871    8.2686   -2.9101 C   0  0  0  0  0  0  0  0  0  0  0  0
   12.0836    7.0264   -3.5733 C   0  0  0  0  0  0  0  0  0  0  0  0
   11.6843    6.9511   -4.9233 C   0  0  0  0  0  0  0  0  0  0  0  0
    8.2401    8.9151   -9.0883 H   0  0  0  0  0  0  0  0  0  0  0  0
    9.8663    9.5633   -9.2095 H   0  0  0  0  0  0  0  0  0  0  0  0
    9.1724    5.8612   -8.1885 H   0  0  0  0  0  0  0  0  0  0  0  0
    7.8803    6.4210   -9.1874 H   0  0  0  0  0  0  0  0  0  0  0  0
    8.3878    4.1998   -9.8463 H   0  0  0  0  0  0  0  0  0  0  0  0
   10.0863    4.5309   -9.9875 H   0  0  0  0  0  0  0  0  0  0  0  0
    7.8627    5.6474  -11.7409 H   0  0  0  0  0  0  0  0  0  0  0  0
    7.4569    4.2150  -13.5020 H   0  0  0  0  0  0  0  0  0  0  0  0
    8.8630    4.9427  -14.2627 H   0  0  0  0  0  0  0  0  0  0  0  0
    6.7909    2.1261  -14.3876 H   0  0  0  0  0  0  0  0  0  0  0  0
    7.3293   -0.0291  -15.4988 H   0  0  0  0  0  0  0  0  0  0  0  0
    9.6792   -0.5722  -16.0942 H   0  0  0  0  0  0  0  0  0  0  0  0
   11.4995    1.0495  -15.5824 H   0  0  0  0  0  0  0  0  0  0  0  0
   10.9727    3.1936  -14.4417 H   0  0  0  0  0  0  0  0  0  0  0  0
    9.7147    6.7204  -13.0469 H   0  0  0  0  0  0  0  0  0  0  0  0
   10.8863    6.1724  -11.8985 H   0  0  0  0  0  0  0  0  0  0  0  0
    8.6242    8.0962  -11.3424 H   0  0  0  0  0  0  0  0  0  0  0  0
   10.3177    8.5060  -11.4294 H   0  0  0  0  0  0  0  0  0  0  0  0
   12.5456    7.0499   -7.8310 H   0  0  0  0  0  0  0  0  0  0  0  0
   10.9796   10.2575   -5.4590 H   0  0  0  0  0  0  0  0  0  0  0  0
   11.6861   10.3828   -3.0800 H   0  0  0  0  0  0  0  0  0  0  0  0
   12.3868    8.3304   -1.8742 H   0  0  0  0  0  0  0  0  0  0  0  0
   12.3793    6.1308   -3.0466 H   0  0  0  0  0  0  0  0  0  0  0  0
   11.6754    5.9933   -5.4232 H   0  0  0  0  0  0  0  0  0  0  0  0
  2  1  2  0
  3  2  1  0
  4  3  1  0
  5  4  1  0
  6  5  1  0
  7  6  1  0
  8  7  1  0
  9  8  1  0
 10  9  1  0
 11 10  2  0
 12 11  1  0
 13 12  2  0
 14 13  1  0
 15 10  1  0
 15 14  2  0
 16  7  1  0
 17  4  1  0
 17 16  1  0
  4 18  1  6
 19 18  1  0
 20  2  1  0
 20 19  2  0
 21 20  1  0
 22 21  2  0
 23 22  1  0
 24 23  2  0
 25 24  1  0
 26 21  1  0
 26 25  2  0
 27  3  1  0
 28  3  1  0
 29  5  1  0
 30  5  1  0
 31  6  1  0
 32  6  1  0
  7 33  1  1
 34  9  1  0
 35  9  1  0
 36 11  1  0
 37 12  1  0
 38 13  1  0
 39 14  1  0
 40 15  1  0
 41 16  1  0
 42 16  1  0
 43 17  1  0
 44 17  1  0
 45 19  1  0
 46 22  1  0
 47 23  1  0
 48 24  1  0
 49 25  1  0
 50 26  1  0
M  END
>  <b_m_subgroup_collapsed>  (1014) 
0

>  <r_i_docking_score>  (1014) 
-6.9623428142534101

>  <s_m_subgroup_title>  (1014) 
glide-dock_SP_D22_pv

>  <s_m_subgroupid>  (1014) 
glide-dock_SP_D22_pv

>  <Molecule ChEMBL ID>  (1014) 
CHEMBL2115560

>  <Standard Type>  (1014) 
Ki

>  <Standard Value>  (1014) 
10000.0

>  <label>  (1014) 
0

$$$$
CHEMBL2207486
     RDKit          3D

 44 46  0  0  1  0  0  0  0  0999 V2000
   10.9737    9.6969   -6.0207 C   0  0  0  0  0  0  0  0  0  0  0  0
   10.7288    8.7577   -7.2086 C   0  0  0  0  0  0  0  0  0  0  0  0
    9.2379    8.6354   -7.6064 C   0  0  0  0  0  0  0  0  0  0  0  0
    8.9889    7.7420   -8.7698 N   0  0  2  0  0  0  0  0  0  0  0  0
    9.2788    6.3126   -8.5010 C   0  0  0  0  0  0  0  0  0  0  0  0
    8.7708    5.4444   -9.6574 C   0  0  0  0  0  0  0  0  0  0  0  0
    9.3856    5.8731  -11.0032 C   0  0  1  0  0  0  0  0  0  0  0  0
    8.8747    5.0309  -12.1413 C   0  0  0  0  0  0  0  0  0  0  0  0
    7.5919    4.5727  -12.3131 C   0  0  0  0  0  0  0  0  0  0  0  0
    7.5098    3.7740  -13.4457 N   0  0  0  0  0  0  0  0  0  0  0  0
    6.3117    3.0924  -13.8915 C   0  0  0  0  0  0  0  0  0  0  0  0
    8.7544    3.7259  -14.0549 C   0  0  0  0  0  0  0  0  0  0  0  0
    9.2120    3.0626  -15.2107 C   0  0  0  0  0  0  0  0  0  0  0  0
   10.5537    3.2080  -15.6096 C   0  0  0  0  0  0  0  0  0  0  0  0
   11.4234    4.0181  -14.8563 C   0  0  0  0  0  0  0  0  0  0  0  0
   12.7095    4.1725  -15.2448 F   0  0  0  0  0  0  0  0  0  0  0  0
   10.9623    4.6681  -13.6965 C   0  0  0  0  0  0  0  0  0  0  0  0
    9.6232    4.5327  -13.2606 C   0  0  0  0  0  0  0  0  0  0  0  0
    9.1416    7.3699  -11.2454 C   0  0  0  0  0  0  0  0  0  0  0  0
    9.5926    8.2189  -10.0434 C   0  0  0  0  0  0  0  0  0  0  0  0
   12.0418    9.7682   -5.8057 H   0  0  0  0  0  0  0  0  0  0  0  0
   10.6157   10.7056   -6.2313 H   0  0  0  0  0  0  0  0  0  0  0  0
   10.4846    9.3369   -5.1150 H   0  0  0  0  0  0  0  0  0  0  0  0
   11.1348    7.7781   -6.9545 H   0  0  0  0  0  0  0  0  0  0  0  0
   11.3166    9.1285   -8.0486 H   0  0  0  0  0  0  0  0  0  0  0  0
    8.8396    9.6192   -7.8491 H   0  0  0  0  0  0  0  0  0  0  0  0
    8.6509    8.2803   -6.7581 H   0  0  0  0  0  0  0  0  0  0  0  0
    8.7879    6.0063   -7.5745 H   0  0  0  0  0  0  0  0  0  0  0  0
   10.3507    6.1564   -8.3681 H   0  0  0  0  0  0  0  0  0  0  0  0
    7.6866    5.5320   -9.7028 H   0  0  0  0  0  0  0  0  0  0  0  0
    8.9919    4.3963   -9.4533 H   0  0  0  0  0  0  0  0  0  0  0  0
   10.4637    5.7429  -10.9236 H   0  0  0  0  0  0  0  0  0  0  0  0
    6.7220    4.7392  -11.6911 H   0  0  0  0  0  0  0  0  0  0  0  0
    5.4641    3.3588  -13.2593 H   0  0  0  0  0  0  0  0  0  0  0  0
    6.0871    3.3722  -14.9208 H   0  0  0  0  0  0  0  0  0  0  0  0
    6.4647    2.0140  -13.8428 H   0  0  0  0  0  0  0  0  0  0  0  0
    8.5367    2.4465  -15.7864 H   0  0  0  0  0  0  0  0  0  0  0  0
   10.9165    2.7047  -16.4934 H   0  0  0  0  0  0  0  0  0  0  0  0
   11.6470    5.2794  -13.1305 H   0  0  0  0  0  0  0  0  0  0  0  0
    9.6714    7.6940  -12.1426 H   0  0  0  0  0  0  0  0  0  0  0  0
    8.0863    7.5391  -11.4491 H   0  0  0  0  0  0  0  0  0  0  0  0
    9.3141    9.2597  -10.2093 H   0  0  0  0  0  0  0  0  0  0  0  0
   10.6787    8.1842   -9.9756 H   0  0  0  0  0  0  0  0  0  0  0  0
    7.9836    7.7757   -8.9302 H   0  0  0  0  0  0  0  0  0  0  0  0
  2  1  1  0
  3  2  1  0
  4  3  1  0
  5  4  1  0
  6  5  1  0
  7  6  1  0
  8  7  1  0
  9  8  2  0
 10  9  1  0
 11 10  1  0
 12 10  1  0
 13 12  2  0
 14 13  1  0
 15 14  2  0
 16 15  1  0
 17 15  1  0
 18  8  1  0
 18 12  1  0
 18 17  2  0
 19  7  1  0
 20  4  1  0
 20 19  1  0
 21  1  1  0
 22  1  1  0
 23  1  1  0
 24  2  1  0
 25  2  1  0
 26  3  1  0
 27  3  1  0
 28  5  1  0
 29  5  1  0
 30  6  1  0
 31  6  1  0
  7 32  1  1
 33  9  1  0
 34 11  1  0
 35 11  1  0
 36 11  1  0
 37 13  1  0
 38 14  1  0
 39 17  1  0
 40 19  1  0
 41 19  1  0
 42 20  1  0
 43 20  1  0
  4 44  1  6
M  CHG  1   4   1
M  END
>  <b_m_subgroup_collapsed>  (1015) 
0

>  <r_i_docking_score>  (1015) 
-6.9593180878974303

>  <s_m_subgroup_title>  (1015) 
glide-dock_SP_D22_pv

>  <s_m_subgroupid>  (1015) 
glide-dock_SP_D22_pv

>  <Molecule ChEMBL ID>  (1015) 
CHEMBL2207486

>  <Standard Type>  (1015) 
Ki

>  <Standard Value>  (1015) 
19.0

>  <label>  (1015) 
1

$$$$
CHEMBL56519
     RDKit          3D

 33 35  0  0  1  0  0  0  0  0999 V2000
   10.4327    3.2425  -14.9143 O   0  0  0  0  0  0  0  0  0  0  0  0
   10.8098    4.4348  -14.3652 C   0  0  0  0  0  0  0  0  0  0  0  0
   11.8929    5.1250  -14.9364 C   0  0  0  0  0  0  0  0  0  0  0  0
   12.3267    6.3359  -14.3746 C   0  0  0  0  0  0  0  0  0  0  0  0
   11.6860    6.8515  -13.2344 C   0  0  0  0  0  0  0  0  0  0  0  0
   10.5880    6.1784  -12.6469 C   0  0  0  0  0  0  0  0  0  0  0  0
   10.1398    4.9608  -13.2342 C   0  0  0  0  0  0  0  0  0  0  0  0
    8.9748    4.1723  -12.6443 C   0  0  0  0  0  0  0  0  0  0  0  0
    8.2174    4.8909  -11.5228 C   0  0  0  0  0  0  0  0  0  0  0  0
    9.1886    5.6346  -10.6063 C   0  0  2  0  0  0  0  0  0  0  0  0
    8.4860    6.1723   -9.4262 N   0  0  0  0  0  0  0  0  0  0  0  0
    9.3678    6.9037   -8.4955 C   0  0  0  0  0  0  0  0  0  0  0  0
   10.0561    8.0665   -9.2243 C   0  0  0  0  0  0  0  0  0  0  0  0
   10.8177    7.5748  -10.4663 C   0  0  0  0  0  0  0  0  0  0  0  0
    9.8944    6.7547  -11.4035 C   0  0  1  0  0  0  0  0  0  0  0  0
    9.7662    2.7934  -14.4182 H   0  0  0  0  0  0  0  0  0  0  0  0
   12.3986    4.7202  -15.8010 H   0  0  0  0  0  0  0  0  0  0  0  0
   13.1660    6.8613  -14.8065 H   0  0  0  0  0  0  0  0  0  0  0  0
   12.0643    7.7723  -12.8255 H   0  0  0  0  0  0  0  0  0  0  0  0
    8.2752    3.8929  -13.4329 H   0  0  0  0  0  0  0  0  0  0  0  0
    9.3930    3.2465  -12.2485 H   0  0  0  0  0  0  0  0  0  0  0  0
    7.5156    5.6059  -11.9564 H   0  0  0  0  0  0  0  0  0  0  0  0
    7.6147    4.1723  -10.9661 H   0  0  0  0  0  0  0  0  0  0  0  0
    9.9336    4.9251  -10.2408 H   0  0  0  0  0  0  0  0  0  0  0  0
    7.7578    6.8176   -9.7439 H   0  0  0  0  0  0  0  0  0  0  0  0
   10.1076    6.2189   -8.0778 H   0  0  0  0  0  0  0  0  0  0  0  0
    8.7695    7.2784   -7.6635 H   0  0  0  0  0  0  0  0  0  0  0  0
   10.7384    8.5815   -8.5471 H   0  0  0  0  0  0  0  0  0  0  0  0
    9.3071    8.8020   -9.5231 H   0  0  0  0  0  0  0  0  0  0  0  0
   11.6720    6.9723  -10.1570 H   0  0  0  0  0  0  0  0  0  0  0  0
   11.2192    8.4489  -10.9778 H   0  0  0  0  0  0  0  0  0  0  0  0
    9.1295    7.4365  -11.7806 H   0  0  0  0  0  0  0  0  0  0  0  0
    8.0266    5.4215   -8.9320 H   0  0  0  0  0  0  0  0  0  0  0  0
  2  1  1  0
  3  2  1  0
  4  3  2  0
  5  4  1  0
  6  5  2  0
  7  2  2  0
  7  6  1  0
  8  7  1  0
  9  8  1  0
 10  9  1  0
 11 10  1  0
 12 11  1  0
 13 12  1  0
 14 13  1  0
 15  6  1  0
 15 10  1  0
 15 14  1  0
 16  1  1  0
 17  3  1  0
 18  4  1  0
 19  5  1  0
 20  8  1  0
 21  8  1  0
 22  9  1  0
 23  9  1  0
 10 24  1  1
 25 11  1  0
 26 12  1  0
 27 12  1  0
 28 13  1  0
 29 13  1  0
 30 14  1  0
 31 14  1  0
 15 32  1  6
 33 11  1  0
M  CHG  1  11   1
M  END
>  <b_m_subgroup_collapsed>  (1016) 
0

>  <r_i_docking_score>  (1016) 
-6.9556244044565201

>  <s_m_subgroup_title>  (1016) 
glide-dock_SP_D22_pv

>  <s_m_subgroupid>  (1016) 
glide-dock_SP_D22_pv

>  <Molecule ChEMBL ID>  (1016) 
CHEMBL56519

>  <Standard Type>  (1016) 
Ki

>  <Standard Value>  (1016) 
11.0

>  <label>  (1016) 
1

$$$$
CHEMBL2326480
     RDKit          3D

 46 49  0  0  1  0  0  0  0  0999 V2000
    4.9083   -0.4722  -14.2155 C   0  0  0  0  0  0  0  0  0  0  0  0
    4.8618    0.6864  -13.3945 O   0  0  0  0  0  0  0  0  0  0  0  0
    5.7950    1.6754  -13.6169 C   0  0  0  0  0  0  0  0  0  0  0  0
    6.8872    1.5443  -14.5080 C   0  0  0  0  0  0  0  0  0  0  0  0
    7.7741    2.6178  -14.7066 C   0  0  0  0  0  0  0  0  0  0  0  0
    7.5737    3.8361  -14.0325 C   0  0  0  0  0  0  0  0  0  0  0  0
    6.5049    3.9805  -13.1186 C   0  0  0  0  0  0  0  0  0  0  0  0
    6.2963    5.2789  -12.3270 C   0  0  0  0  0  0  0  0  0  0  0  0
    7.4782    5.7734  -11.5559 N   0  0  1  0  0  0  0  0  0  0  0  0
    8.1986    4.7092  -10.8066 C   0  0  0  0  0  0  0  0  0  0  0  0
    9.6761    4.9859  -10.5485 C   0  0  0  0  0  0  0  0  0  0  0  0
    9.9103    6.1930   -9.6688 C   0  0  0  0  0  0  0  0  0  0  0  0
   10.4487    5.9595   -8.3920 C   0  0  0  0  0  0  0  0  0  0  0  0
   10.7031    6.9859   -7.4720 C   0  0  0  0  0  0  0  0  0  0  0  0
   11.2001    6.8429   -6.1797 N   0  0  0  0  0  0  0  0  0  0  0  0
   11.2937    8.0396   -5.6058 C   0  0  0  0  0  0  0  0  0  0  0  0
   11.6940    8.2208   -4.2955 N   0  0  0  0  0  0  0  0  0  0  0  0
   10.8791    9.4178   -6.6145 S   0  0  0  0  0  0  0  0  0  0  0  0
   10.4371    8.3100   -7.9060 C   0  0  0  0  0  0  0  0  0  0  0  0
    9.9073    8.5727   -9.1875 C   0  0  0  0  0  0  0  0  0  0  0  0
    9.6203    7.5137  -10.0822 C   0  0  0  0  0  0  0  0  0  0  0  0
    8.9558    7.8621  -11.4205 C   0  0  0  0  0  0  0  0  0  0  0  0
    8.3437    6.7359  -12.3004 C   0  0  0  0  0  0  0  0  0  0  0  0
    5.6301    2.8900  -12.9156 C   0  0  0  0  0  0  0  0  0  0  0  0
    4.0655   -1.1142  -13.9583 H   0  0  0  0  0  0  0  0  0  0  0  0
    5.8262   -1.0482  -14.0599 H   0  0  0  0  0  0  0  0  0  0  0  0
    4.8176   -0.2229  -15.2756 H   0  0  0  0  0  0  0  0  0  0  0  0
    7.0635    0.6308  -15.0558 H   0  0  0  0  0  0  0  0  0  0  0  0
    8.6009    2.5107  -15.3936 H   0  0  0  0  0  0  0  0  0  0  0  0
    8.2559    4.6491  -14.2183 H   0  0  0  0  0  0  0  0  0  0  0  0
    5.9008    6.0389  -13.0054 H   0  0  0  0  0  0  0  0  0  0  0  0
    5.5138    5.1116  -11.5808 H   0  0  0  0  0  0  0  0  0  0  0  0
    7.6876    4.5260   -9.8660 H   0  0  0  0  0  0  0  0  0  0  0  0
    8.1807    3.7736  -11.3530 H   0  0  0  0  0  0  0  0  0  0  0  0
   10.0863    4.1001  -10.0664 H   0  0  0  0  0  0  0  0  0  0  0  0
   10.2302    5.0804  -11.4792 H   0  0  0  0  0  0  0  0  0  0  0  0
   10.6939    4.9594   -8.1127 H   0  0  0  0  0  0  0  0  0  0  0  0
   12.1033    7.4428   -3.8001 H   0  0  0  0  0  0  0  0  0  0  0  0
   11.9707    9.1383   -3.9737 H   0  0  0  0  0  0  0  0  0  0  0  0
    9.6917    9.5920   -9.4675 H   0  0  0  0  0  0  0  0  0  0  0  0
    8.1843    8.6014  -11.2025 H   0  0  0  0  0  0  0  0  0  0  0  0
    9.6884    8.4034  -12.0179 H   0  0  0  0  0  0  0  0  0  0  0  0
    9.1080    6.2160  -12.8769 H   0  0  0  0  0  0  0  0  0  0  0  0
    7.7284    7.2524  -13.0402 H   0  0  0  0  0  0  0  0  0  0  0  0
    4.8118    2.9813  -12.2197 H   0  0  0  0  0  0  0  0  0  0  0  0
    7.0642    6.3880  -10.8511 H   0  0  0  0  0  0  0  0  0  0  0  0
  2  1  1  0
  3  2  1  0
  4  3  1  0
  5  4  2  0
  6  5  1  0
  7  6  2  0
  8  7  1  0
  9  8  1  0
 10  9  1  0
 11 10  1  0
 12 11  1  0
 13 12  1  0
 14 13  2  0
 15 14  1  0
 16 15  2  0
 17 16  1  0
 18 16  1  0
 19 14  1  0
 19 18  1  0
 20 19  2  0
 21 12  2  0
 21 20  1  0
 22 21  1  0
 23  9  1  0
 23 22  1  0
 24  3  2  0
 24  7  1  0
 25  1  1  0
 26  1  1  0
 27  1  1  0
 28  4  1  0
 29  5  1  0
 30  6  1  0
 31  8  1  0
 32  8  1  0
 33 10  1  0
 34 10  1  0
 35 11  1  0
 36 11  1  0
 37 13  1  0
 38 17  1  0
 39 17  1  0
 40 20  1  0
 41 22  1  0
 42 22  1  0
 43 23  1  0
 44 23  1  0
 45 24  1  0
  9 46  1  1
M  CHG  1   9   1
M  END
>  <b_m_subgroup_collapsed>  (1017) 
0

>  <r_i_docking_score>  (1017) 
-6.9510192286864898

>  <s_m_subgroup_title>  (1017) 
glide-dock_SP_D22_pv

>  <s_m_subgroupid>  (1017) 
glide-dock_SP_D22_pv

>  <Molecule ChEMBL ID>  (1017) 
CHEMBL2326480

>  <Standard Type>  (1017) 
Ki

>  <Standard Value>  (1017) 
34.0

>  <label>  (1017) 
1

$$$$
CHEMBL166325
     RDKit          3D

 49 50  0  0  1  0  0  0  0  0999 V2000
   11.6468    4.5614  -14.0467 C   0  0  0  0  0  0  0  0  0  0  0  0
   10.6290    5.3674  -13.2306 C   0  0  0  0  0  0  0  0  0  0  0  0
    9.4650    4.5094  -12.7055 C   0  0  0  0  0  0  0  0  0  0  0  0
    8.3321    5.2881  -12.1041 N   0  0  0  0  0  0  0  0  0  0  0  0
    7.0802    4.4851  -11.9393 C   0  0  0  0  0  0  0  0  0  0  0  0
    6.5883    3.7389  -13.1961 C   0  0  0  0  0  0  0  0  0  0  0  0
    5.2450    3.0457  -12.9602 C   0  0  0  0  0  0  0  0  0  0  0  0
    8.6406    6.0095  -10.8258 C   0  0  2  0  0  0  0  0  0  0  0  0
    9.2193    7.4389  -11.0103 C   0  0  0  0  0  0  0  0  0  0  0  0
    9.6925    8.0414   -9.6934 C   0  0  0  0  0  0  0  0  0  0  0  0
    9.7826    7.3424   -8.5453 C   0  0  0  0  0  0  0  0  0  0  0  0
   10.3089    7.9142   -7.3567 C   0  0  0  0  0  0  0  0  0  0  0  0
   10.7871    8.1647   -6.2638 C   0  0  0  0  0  0  0  0  0  0  0  0
   11.3534    8.2689   -4.9365 C   0  0  0  0  0  0  0  0  0  0  0  0
   11.5531    9.5282   -4.3440 C   0  0  0  0  0  0  0  0  0  0  0  0
   12.0855    9.6074   -3.0447 C   0  0  0  0  0  0  0  0  0  0  0  0
   12.4193    8.4382   -2.3353 C   0  0  0  0  0  0  0  0  0  0  0  0
   12.2148    7.1773   -2.9274 C   0  0  0  0  0  0  0  0  0  0  0  0
   11.6864    7.0941   -4.2297 C   0  0  0  0  0  0  0  0  0  0  0  0
    9.4124    5.8737   -8.4429 C   0  0  0  0  0  0  0  0  0  0  0  0
    9.4498    5.1864   -9.8082 C   0  0  0  0  0  0  0  0  0  0  0  0
   12.4484    5.2049  -14.4090 H   0  0  0  0  0  0  0  0  0  0  0  0
   12.1044    3.7761  -13.4470 H   0  0  0  0  0  0  0  0  0  0  0  0
   11.1820    4.0930  -14.9141 H   0  0  0  0  0  0  0  0  0  0  0  0
   10.2424    6.1714  -13.8524 H   0  0  0  0  0  0  0  0  0  0  0  0
   11.1621    5.8380  -12.4126 H   0  0  0  0  0  0  0  0  0  0  0  0
    9.8223    3.7419  -12.0178 H   0  0  0  0  0  0  0  0  0  0  0  0
    9.1127    3.9730  -13.5817 H   0  0  0  0  0  0  0  0  0  0  0  0
    7.2111    3.7725  -11.1244 H   0  0  0  0  0  0  0  0  0  0  0  0
    6.2790    5.1576  -11.6262 H   0  0  0  0  0  0  0  0  0  0  0  0
    6.5025    4.4263  -14.0381 H   0  0  0  0  0  0  0  0  0  0  0  0
    7.2892    2.9585  -13.4875 H   0  0  0  0  0  0  0  0  0  0  0  0
    4.9773    2.4243  -13.8143 H   0  0  0  0  0  0  0  0  0  0  0  0
    5.2823    2.3976  -12.0837 H   0  0  0  0  0  0  0  0  0  0  0  0
    4.4491    3.7728  -12.8083 H   0  0  0  0  0  0  0  0  0  0  0  0
    7.6862    6.1729  -10.3313 H   0  0  0  0  0  0  0  0  0  0  0  0
    8.4678    8.0964  -11.4455 H   0  0  0  0  0  0  0  0  0  0  0  0
   10.0647    7.4745  -11.6885 H   0  0  0  0  0  0  0  0  0  0  0  0
    9.9972    9.0785   -9.7245 H   0  0  0  0  0  0  0  0  0  0  0  0
   11.2898   10.4322   -4.8748 H   0  0  0  0  0  0  0  0  0  0  0  0
   12.2194   10.5738   -2.5878 H   0  0  0  0  0  0  0  0  0  0  0  0
   12.8208    8.5110   -1.3349 H   0  0  0  0  0  0  0  0  0  0  0  0
   12.4603    6.2752   -2.3850 H   0  0  0  0  0  0  0  0  0  0  0  0
   11.5262    6.1239   -4.6786 H   0  0  0  0  0  0  0  0  0  0  0  0
   10.0859    5.3664   -7.7523 H   0  0  0  0  0  0  0  0  0  0  0  0
    8.4105    5.8041   -8.0152 H   0  0  0  0  0  0  0  0  0  0  0  0
   10.4851    5.1091  -10.1263 H   0  0  0  0  0  0  0  0  0  0  0  0
    9.0622    4.1731   -9.7083 H   0  0  0  0  0  0  0  0  0  0  0  0
    8.0882    6.0090  -12.7675 H   0  0  0  0  0  0  0  0  0  0  0  0
  2  1  1  0
  3  2  1  0
  4  3  1  0
  5  4  1  0
  6  5  1  0
  7  6  1  0
  8  4  1  0
  9  8  1  0
 10  9  1  0
 11 10  2  0
 12 11  1  0
 13 12  3  0
 14 13  1  0
 15 14  2  0
 16 15  1  0
 17 16  2  0
 18 17  1  0
 19 14  1  0
 19 18  2  0
 20 11  1  0
 21  8  1  0
 21 20  1  0
 22  1  1  0
 23  1  1  0
 24  1  1  0
 25  2  1  0
 26  2  1  0
 27  3  1  0
 28  3  1  0
 29  5  1  0
 30  5  1  0
 31  6  1  0
 32  6  1  0
 33  7  1  0
 34  7  1  0
 35  7  1  0
  8 36  1  1
 37  9  1  0
 38  9  1  0
 39 10  1  0
 40 15  1  0
 41 16  1  0
 42 17  1  0
 43 18  1  0
 44 19  1  0
 45 20  1  0
 46 20  1  0
 47 21  1  0
 48 21  1  0
 49  4  1  0
M  CHG  1   4   1
M  END
>  <b_m_subgroup_collapsed>  (1018) 
0

>  <r_i_docking_score>  (1018) 
-6.9500625323259397

>  <s_m_subgroup_title>  (1018) 
glide-dock_SP_D22_pv

>  <s_m_subgroupid>  (1018) 
glide-dock_SP_D22_pv

>  <Molecule ChEMBL ID>  (1018) 
CHEMBL166325

>  <Standard Type>  (1018) 
Ki

>  <Standard Value>  (1018) 
15000.0

>  <label>  (1018) 
0

$$$$
CHEMBL1081648
     RDKit          3D

 61 65  0  0  1  0  0  0  0  0999 V2000
   12.1990    9.5337   -4.6203 C   0  0  0  0  0  0  0  0  0  0  0  0
   12.4861    9.3726   -6.0029 O   0  0  0  0  0  0  0  0  0  0  0  0
   11.4680    8.9713   -6.8379 C   0  0  0  0  0  0  0  0  0  0  0  0
   10.1118    8.9478   -6.4514 C   0  0  0  0  0  0  0  0  0  0  0  0
    9.1271    8.5653   -7.3750 C   0  0  0  0  0  0  0  0  0  0  0  0
    9.4832    8.2164   -8.6891 C   0  0  0  0  0  0  0  0  0  0  0  0
   10.8345    8.2049   -9.1090 C   0  0  0  0  0  0  0  0  0  0  0  0
   11.2089    7.8162  -10.4958 C   0  0  0  0  0  0  0  0  0  0  0  0
   10.3238    7.0850  -11.3303 C   0  0  0  0  0  0  0  0  0  0  0  0
   10.6801    6.7038  -12.6385 C   0  0  0  0  0  0  0  0  0  0  0  0
   11.9589    7.0079  -13.1533 C   0  0  0  0  0  0  0  0  0  0  0  0
   12.3889    6.6425  -14.5521 C   0  0  0  0  0  0  0  0  0  0  0  0
   12.8874    7.5277  -15.2492 O   0  0  0  0  0  0  0  0  0  0  0  0
   12.2864    5.3560  -14.9797 N   0  0  0  0  0  0  0  0  0  0  0  0
   11.5301    4.2672  -14.3598 C   0  0  0  0  0  0  0  0  0  0  0  0
   10.2270    4.1779  -15.1703 C   0  0  0  0  0  0  0  0  0  0  0  0
   10.5588    3.6840  -16.5210 N   0  0  0  0  0  0  0  0  0  0  0  0
   10.0263    2.5899  -17.1332 C   0  0  0  0  0  0  0  0  0  0  0  0
   10.2998    2.2817  -18.2946 O   0  0  0  0  0  0  0  0  0  0  0  0
    9.0103    1.7429  -16.4101 C   0  0  0  0  0  0  0  0  0  0  0  0
    9.2518    1.2187  -15.1194 C   0  0  0  0  0  0  0  0  0  0  0  0
    8.2632    0.4707  -14.4512 C   0  0  0  0  0  0  0  0  0  0  0  0
    7.0439    0.1356  -15.0795 C   0  0  0  0  0  0  0  0  0  0  0  0
    5.8798   -0.6181  -14.7014 C   0  0  0  0  0  0  0  0  0  0  0  0
    5.0430   -0.6280  -15.7853 C   0  0  0  0  0  0  0  0  0  0  0  0
    5.6274    0.1020  -16.8077 N   0  0  0  0  0  0  0  0  0  0  0  0
    6.8547    0.5994  -16.4139 C   0  0  0  0  0  0  0  0  0  0  0  0
    7.8094    1.3958  -17.0681 C   0  0  0  0  0  0  0  0  0  0  0  0
   11.5438    4.5517  -17.2208 C   0  0  1  0  0  0  0  0  0  0  0  0
   10.8515    5.7854  -17.8299 C   0  0  0  0  0  0  0  0  0  0  0  0
   12.7432    4.9256  -16.3079 C   0  0  0  0  0  0  0  0  0  0  0  0
   12.8283    7.7723  -12.3498 C   0  0  0  0  0  0  0  0  0  0  0  0
   12.4634    8.1675  -11.0473 C   0  0  0  0  0  0  0  0  0  0  0  0
   11.8107    8.5816   -8.1505 C   0  0  0  0  0  0  0  0  0  0  0  0
   13.1205    9.7714   -4.0887 H   0  0  0  0  0  0  0  0  0  0  0  0
   11.4968   10.3513   -4.4471 H   0  0  0  0  0  0  0  0  0  0  0  0
   11.7966    8.6187   -4.1838 H   0  0  0  0  0  0  0  0  0  0  0  0
    9.8123    9.2317   -5.4542 H   0  0  0  0  0  0  0  0  0  0  0  0
    8.0863    8.5509   -7.0812 H   0  0  0  0  0  0  0  0  0  0  0  0
    8.6814    7.9584   -9.3665 H   0  0  0  0  0  0  0  0  0  0  0  0
    9.3453    6.7918  -10.9792 H   0  0  0  0  0  0  0  0  0  0  0  0
    9.9531    6.1726  -13.2311 H   0  0  0  0  0  0  0  0  0  0  0  0
   12.0836    3.3291  -14.4251 H   0  0  0  0  0  0  0  0  0  0  0  0
   11.3497    4.3947  -13.2943 H   0  0  0  0  0  0  0  0  0  0  0  0
    9.4875    3.6032  -14.6263 H   0  0  0  0  0  0  0  0  0  0  0  0
    9.7602    5.1595  -15.2667 H   0  0  0  0  0  0  0  0  0  0  0  0
   10.1842    1.4181  -14.6091 H   0  0  0  0  0  0  0  0  0  0  0  0
    8.4549    0.1286  -13.4477 H   0  0  0  0  0  0  0  0  0  0  0  0
    5.7196   -1.1074  -13.7521 H   0  0  0  0  0  0  0  0  0  0  0  0
    4.0798   -1.1047  -15.9152 H   0  0  0  0  0  0  0  0  0  0  0  0
    5.1952    0.2259  -17.7116 H   0  0  0  0  0  0  0  0  0  0  0  0
    7.6307    1.7288  -18.0788 H   0  0  0  0  0  0  0  0  0  0  0  0
   11.9853    4.0107  -18.0594 H   0  0  0  0  0  0  0  0  0  0  0  0
   11.5456    6.3465  -18.4573 H   0  0  0  0  0  0  0  0  0  0  0  0
   10.0045    5.4978  -18.4532 H   0  0  0  0  0  0  0  0  0  0  0  0
   10.4864    6.4670  -17.0622 H   0  0  0  0  0  0  0  0  0  0  0  0
   13.3737    5.6668  -16.7996 H   0  0  0  0  0  0  0  0  0  0  0  0
   13.3860    4.0533  -16.1831 H   0  0  0  0  0  0  0  0  0  0  0  0
   13.7924    8.0725  -12.7320 H   0  0  0  0  0  0  0  0  0  0  0  0
   13.1793    8.7321  -10.4794 H   0  0  0  0  0  0  0  0  0  0  0  0
   12.8601    8.5889   -8.4066 H   0  0  0  0  0  0  0  0  0  0  0  0
  2  1  1  0
  3  2  1  0
  4  3  1  0
  5  4  2  0
  6  5  1  0
  7  6  2  0
  8  7  1  0
  9  8  1  0
 10  9  2  0
 11 10  1  0
 12 11  1  0
 13 12  2  0
 14 12  1  0
 15 14  1  0
 16 15  1  0
 17 16  1  0
 18 17  1  0
 19 18  2  0
 20 18  1  0
 21 20  2  0
 22 21  1  0
 23 22  2  0
 24 23  1  0
 25 24  2  0
 26 25  1  0
 27 23  1  0
 27 26  1  0
 28 20  1  0
 28 27  2  0
 29 17  1  0
 30 29  1  0
 31 14  1  0
 31 29  1  0
 32 11  2  0
 33  8  2  0
 33 32  1  0
 34  3  2  0
 34  7  1  0
 35  1  1  0
 36  1  1  0
 37  1  1  0
 38  4  1  0
 39  5  1  0
 40  6  1  0
 41  9  1  0
 42 10  1  0
 43 15  1  0
 44 15  1  0
 45 16  1  0
 46 16  1  0
 47 21  1  0
 48 22  1  0
 49 24  1  0
 50 25  1  0
 51 26  1  0
 52 28  1  0
 29 53  1  6
 54 30  1  0
 55 30  1  0
 56 30  1  0
 57 31  1  0
 58 31  1  0
 59 32  1  0
 60 33  1  0
 61 34  1  0
M  END
>  <b_m_subgroup_collapsed>  (1019) 
0

>  <r_i_docking_score>  (1019) 
-6.94670025772509

>  <s_m_subgroup_title>  (1019) 
glide-dock_SP_D22_pv

>  <s_m_subgroupid>  (1019) 
glide-dock_SP_D22_pv

>  <Molecule ChEMBL ID>  (1019) 
CHEMBL1081648

>  <Standard Type>  (1019) 
Ki

>  <Standard Value>  (1019) 
10000.0

>  <label>  (1019) 
0

$$$$
CHEMBL103622
     RDKit          3D

 40 41  0  0  1  0  0  0  0  0999 V2000
    8.7233    4.1253   -8.6857 C   0  0  0  0  0  0  0  0  0  0  0  0
    9.6932    5.2928   -8.6493 C   0  0  0  0  0  0  0  0  0  0  0  0
    8.9783    6.6221   -8.3954 C   0  0  0  0  0  0  0  0  0  0  0  0
    9.9478    7.7486   -8.4675 N   0  0  0  0  0  0  0  0  0  0  0  0
    9.5224    8.7481   -9.4903 C   0  0  0  0  0  0  0  0  0  0  0  0
    9.6996    8.2048  -10.9234 C   0  0  0  0  0  0  0  0  0  0  0  0
   11.1498    7.8021  -11.2411 C   0  0  0  0  0  0  0  0  0  0  0  0
   10.3396    8.2930   -7.1238 C   0  0  2  0  0  0  0  0  0  0  0  0
   11.4581    9.3725   -7.1791 C   0  0  0  0  0  0  0  0  0  0  0  0
   11.6738   10.0350   -5.8081 C   0  0  0  0  0  0  0  0  0  0  0  0
   11.7326    9.0163   -4.7245 C   0  0  0  0  0  0  0  0  0  0  0  0
   12.2657    9.3719   -3.1083 S   0  0  0  0  0  0  0  0  0  0  0  0
   12.1544    7.6930   -2.6673 C   0  0  0  0  0  0  0  0  0  0  0  0
   11.6858    6.9318   -3.7037 C   0  0  0  0  0  0  0  0  0  0  0  0
   11.3926    7.6996   -4.8703 C   0  0  0  0  0  0  0  0  0  0  0  0
   10.8241    7.1681   -6.1523 C   0  0  0  0  0  0  0  0  0  0  0  0
    9.2669    3.1820   -8.6468 H   0  0  0  0  0  0  0  0  0  0  0  0
    8.0424    4.1435   -7.8469 H   0  0  0  0  0  0  0  0  0  0  0  0
    8.1129    4.1732   -9.5889 H   0  0  0  0  0  0  0  0  0  0  0  0
   10.2234    5.3256   -9.5995 H   0  0  0  0  0  0  0  0  0  0  0  0
   10.4447    5.1096   -7.8870 H   0  0  0  0  0  0  0  0  0  0  0  0
    8.4424    6.6144   -7.4457 H   0  0  0  0  0  0  0  0  0  0  0  0
    8.1879    6.7204   -9.1389 H   0  0  0  0  0  0  0  0  0  0  0  0
    8.4865    9.0416   -9.3147 H   0  0  0  0  0  0  0  0  0  0  0  0
   10.0954    9.6671   -9.4478 H   0  0  0  0  0  0  0  0  0  0  0  0
    9.0379    7.3580  -11.1059 H   0  0  0  0  0  0  0  0  0  0  0  0
    9.3813    8.9713  -11.6300 H   0  0  0  0  0  0  0  0  0  0  0  0
   11.2509    7.5106  -12.2872 H   0  0  0  0  0  0  0  0  0  0  0  0
   11.8472    8.6153  -11.0482 H   0  0  0  0  0  0  0  0  0  0  0  0
   11.4785    6.9610  -10.6358 H   0  0  0  0  0  0  0  0  0  0  0  0
    9.4475    8.7567   -6.6977 H   0  0  0  0  0  0  0  0  0  0  0  0
   12.3883    8.9001   -7.4985 H   0  0  0  0  0  0  0  0  0  0  0  0
   11.2860   10.1718   -7.8866 H   0  0  0  0  0  0  0  0  0  0  0  0
   10.8665   10.7371   -5.5989 H   0  0  0  0  0  0  0  0  0  0  0  0
   12.5970   10.6132   -5.8378 H   0  0  0  0  0  0  0  0  0  0  0  0
   12.4389    7.3744   -1.6768 H   0  0  0  0  0  0  0  0  0  0  0  0
   11.5202    5.8646   -3.6579 H   0  0  0  0  0  0  0  0  0  0  0  0
   11.5977    6.5762   -6.6426 H   0  0  0  0  0  0  0  0  0  0  0  0
   10.0140    6.4815   -5.9099 H   0  0  0  0  0  0  0  0  0  0  0  0
   10.7944    7.3519   -8.8465 H   0  0  0  0  0  0  0  0  0  0  0  0
  2  1  1  0
  3  2  1  0
  4  3  1  0
  5  4  1  0
  6  5  1  0
  7  6  1  0
  8  4  1  0
  9  8  1  0
 10  9  1  0
 11 10  1  0
 12 11  1  0
 13 12  1  0
 14 13  2  0
 15 11  2  0
 15 14  1  0
 16  8  1  0
 16 15  1  0
 17  1  1  0
 18  1  1  0
 19  1  1  0
 20  2  1  0
 21  2  1  0
 22  3  1  0
 23  3  1  0
 24  5  1  0
 25  5  1  0
 26  6  1  0
 27  6  1  0
 28  7  1  0
 29  7  1  0
 30  7  1  0
  8 31  1  1
 32  9  1  0
 33  9  1  0
 34 10  1  0
 35 10  1  0
 36 13  1  0
 37 14  1  0
 38 16  1  0
 39 16  1  0
 40  4  1  0
M  CHG  1   4   1
M  END
>  <b_m_subgroup_collapsed>  (1020) 
0

>  <r_i_docking_score>  (1020) 
-6.9461066682730603

>  <s_m_subgroup_title>  (1020) 
glide-dock_SP_D22_pv

>  <s_m_subgroupid>  (1020) 
glide-dock_SP_D22_pv

>  <Molecule ChEMBL ID>  (1020) 
CHEMBL103622

>  <Standard Type>  (1020) 
Ki

>  <Standard Value>  (1020) 
20.0

>  <label>  (1020) 
1

$$$$
CHEMBL2413154
     RDKit          3D

 55 57  0  0  1  0  0  0  0  0999 V2000
   11.9125   10.6361   -6.2488 C   0  0  0  0  0  0  0  0  0  0  0  0
   10.9897   10.2886   -5.2362 O   0  0  0  0  0  0  0  0  0  0  0  0
   11.3830    9.1809   -4.5327 C   0  0  0  0  0  0  0  0  0  0  0  0
   11.9684    9.3754   -3.2655 C   0  0  0  0  0  0  0  0  0  0  0  0
   12.4119    8.2811   -2.5027 C   0  0  0  0  0  0  0  0  0  0  0  0
   12.2704    6.9791   -3.0098 C   0  0  0  0  0  0  0  0  0  0  0  0
   11.6860    6.7793   -4.2734 C   0  0  0  0  0  0  0  0  0  0  0  0
   11.2200    7.8665   -5.0467 C   0  0  0  0  0  0  0  0  0  0  0  0
   10.5814    7.6079   -6.2769 N   0  0  0  0  0  0  0  0  0  0  0  0
    9.3104    8.2200   -6.6469 C   0  0  0  0  0  0  0  0  0  0  0  0
    9.3900    8.8459   -8.0490 C   0  0  0  0  0  0  0  0  0  0  0  0
   10.0147    7.9292   -9.0427 N   0  0  0  0  0  0  0  0  0  0  0  0
   10.1962    8.5542  -10.3731 C   0  0  0  0  0  0  0  0  0  0  0  0
    8.9482    8.4189  -11.2543 C   0  0  0  0  0  0  0  0  0  0  0  0
    8.6008    6.9359  -11.4876 C   0  0  0  0  0  0  0  0  0  0  0  0
    7.5267    6.7625  -12.5661 C   0  0  0  0  0  0  0  0  0  0  0  0
    7.2565    5.3596  -12.8936 N   0  0  0  0  0  0  0  0  0  0  0  0
    5.9774    4.9585  -12.5795 N   0  0  0  0  0  0  0  0  0  0  0  0
    5.5714    3.7750  -12.8886 C   0  0  0  0  0  0  0  0  0  0  0  0
    6.4823    2.8432  -13.5850 C   0  0  0  0  0  0  0  0  0  0  0  0
    6.0860    1.7078  -13.8472 O   0  0  0  0  0  0  0  0  0  0  0  0
    7.7370    3.3108  -13.8628 N   0  0  0  0  0  0  0  0  0  0  0  0
    8.7005    2.4191  -14.5337 C   0  0  0  0  0  0  0  0  0  0  0  0
    8.1643    4.5710  -13.5483 C   0  0  0  0  0  0  0  0  0  0  0  0
    9.2869    4.9831  -13.8543 O   0  0  0  0  0  0  0  0  0  0  0  0
   11.2792    7.3060   -8.5762 C   0  0  0  0  0  0  0  0  0  0  0  0
   11.1254    6.6359   -7.2054 C   0  0  0  0  0  0  0  0  0  0  0  0
   11.5710   11.5155   -6.7853 H   0  0  0  0  0  0  0  0  0  0  0  0
   12.8861   10.8857   -5.8466 H   0  0  0  0  0  0  0  0  0  0  0  0
   12.0536    9.8323   -6.9706 H   0  0  0  0  0  0  0  0  0  0  0  0
   12.0798   10.3756   -2.8727 H   0  0  0  0  0  0  0  0  0  0  0  0
   12.8579    8.4429   -1.5323 H   0  0  0  0  0  0  0  0  0  0  0  0
   12.6033    6.1299   -2.4290 H   0  0  0  0  0  0  0  0  0  0  0  0
   11.5654    5.7720   -4.6384 H   0  0  0  0  0  0  0  0  0  0  0  0
    8.5414    7.4464   -6.6315 H   0  0  0  0  0  0  0  0  0  0  0  0
    9.0069    8.9714   -5.9261 H   0  0  0  0  0  0  0  0  0  0  0  0
    8.3945    9.1301   -8.3837 H   0  0  0  0  0  0  0  0  0  0  0  0
    9.9646    9.7712   -7.9919 H   0  0  0  0  0  0  0  0  0  0  0  0
   10.5125    9.5845  -10.2460 H   0  0  0  0  0  0  0  0  0  0  0  0
   11.0195    8.0744  -10.9054 H   0  0  0  0  0  0  0  0  0  0  0  0
    8.0923    8.9725  -10.8510 H   0  0  0  0  0  0  0  0  0  0  0  0
    9.1652    8.8878  -12.2138 H   0  0  0  0  0  0  0  0  0  0  0  0
    9.5100    6.4048  -11.7711 H   0  0  0  0  0  0  0  0  0  0  0  0
    8.2529    6.4717  -10.5637 H   0  0  0  0  0  0  0  0  0  0  0  0
    6.6079    7.2623  -12.2571 H   0  0  0  0  0  0  0  0  0  0  0  0
    7.8409    7.2961  -13.4494 H   0  0  0  0  0  0  0  0  0  0  0  0
    4.5574    3.4553  -12.6469 H   0  0  0  0  0  0  0  0  0  0  0  0
    9.5967    2.2961  -13.9203 H   0  0  0  0  0  0  0  0  0  0  0  0
    8.3279    1.4126  -14.7372 H   0  0  0  0  0  0  0  0  0  0  0  0
    9.0066    2.8415  -15.4938 H   0  0  0  0  0  0  0  0  0  0  0  0
   11.5848    6.5729   -9.3170 H   0  0  0  0  0  0  0  0  0  0  0  0
   12.0641    8.0623   -8.5334 H   0  0  0  0  0  0  0  0  0  0  0  0
   12.0855    6.2468   -6.8685 H   0  0  0  0  0  0  0  0  0  0  0  0
   10.4434    5.7871   -7.2675 H   0  0  0  0  0  0  0  0  0  0  0  0
    9.3598    7.1680   -9.1651 H   0  0  0  0  0  0  0  0  0  0  0  0
  2  1  1  0
  3  2  1  0
  4  3  2  0
  5  4  1  0
  6  5  2  0
  7  6  1  0
  8  3  1  0
  8  7  2  0
  9  8  1  0
 10  9  1  0
 11 10  1  0
 12 11  1  0
 13 12  1  0
 14 13  1  0
 15 14  1  0
 16 15  1  0
 17 16  1  0
 18 17  1  0
 19 18  2  0
 20 19  1  0
 21 20  2  0
 22 20  1  0
 23 22  1  0
 24 17  1  0
 24 22  1  0
 25 24  2  0
 26 12  1  0
 27  9  1  0
 27 26  1  0
 28  1  1  0
 29  1  1  0
 30  1  1  0
 31  4  1  0
 32  5  1  0
 33  6  1  0
 34  7  1  0
 35 10  1  0
 36 10  1  0
 37 11  1  0
 38 11  1  0
 39 13  1  0
 40 13  1  0
 41 14  1  0
 42 14  1  0
 43 15  1  0
 44 15  1  0
 45 16  1  0
 46 16  1  0
 47 19  1  0
 48 23  1  0
 49 23  1  0
 50 23  1  0
 51 26  1  0
 52 26  1  0
 53 27  1  0
 54 27  1  0
 55 12  1  0
M  CHG  1  12   1
M  END
>  <b_m_subgroup_collapsed>  (1021) 
0

>  <r_i_docking_score>  (1021) 
-6.9451753925876103

>  <s_m_subgroup_title>  (1021) 
glide-dock_SP_D22_pv

>  <s_m_subgroupid>  (1021) 
glide-dock_SP_D22_pv

>  <Molecule ChEMBL ID>  (1021) 
CHEMBL2413154

>  <Standard Type>  (1021) 
Ki

>  <Standard Value>  (1021) 
10000.0

>  <label>  (1021) 
0

$$$$
CHEMBL4516621
     RDKit          3D

 26 28  0  0  1  0  0  0  0  0999 V2000
   11.3068   10.4193   -5.9777 C   0  0  0  0  0  0  0  0  0  0  0  0
   11.5915    9.2156   -5.2223 N   0  0  0  0  0  0  0  0  0  0  0  0
   12.1627    9.1519   -4.0103 C   0  0  0  0  0  0  0  0  0  0  0  0
   12.2585    7.9285   -3.5047 N   0  0  0  0  0  0  0  0  0  0  0  0
   11.6861    7.1203   -4.4834 C   0  0  0  0  0  0  0  0  0  0  0  0
   11.2861    7.8965   -5.5486 C   0  0  0  0  0  0  0  0  0  0  0  0
   10.5572    7.5221   -6.7506 C   0  0  0  0  0  0  0  0  0  0  0  0
    9.3327    6.9184   -6.7110 C   0  0  0  0  0  0  0  0  0  0  0  0
    8.8445    6.7698   -7.9858 N   0  0  0  0  0  0  0  0  0  0  0  0
    9.7473    7.2164   -8.9109 C   0  0  0  0  0  0  0  0  0  0  0  0
    9.6861    7.2701  -10.3113 C   0  0  0  0  0  0  0  0  0  0  0  0
   10.7928    7.7464  -11.0256 C   0  0  0  0  0  0  0  0  0  0  0  0
   11.9376    8.1715  -10.3300 C   0  0  0  0  0  0  0  0  0  0  0  0
   13.0103    8.5712  -11.0484 F   0  0  0  0  0  0  0  0  0  0  0  0
   11.9716    8.1574   -8.9142 C   0  0  0  0  0  0  0  0  0  0  0  0
   13.0820    8.5726   -8.2626 F   0  0  0  0  0  0  0  0  0  0  0  0
   10.8712    7.6753   -8.1607 C   0  0  0  0  0  0  0  0  0  0  0  0
   11.0158   10.1731   -6.9972 H   0  0  0  0  0  0  0  0  0  0  0  0
   10.4906   10.9647   -5.5004 H   0  0  0  0  0  0  0  0  0  0  0  0
   12.1949   11.0480   -6.0168 H   0  0  0  0  0  0  0  0  0  0  0  0
   12.5031   10.0247   -3.4729 H   0  0  0  0  0  0  0  0  0  0  0  0
   11.5924    6.0536   -4.3422 H   0  0  0  0  0  0  0  0  0  0  0  0
    8.7450    6.6219   -5.8583 H   0  0  0  0  0  0  0  0  0  0  0  0
    7.8754    6.5283   -8.1782 H   0  0  0  0  0  0  0  0  0  0  0  0
    8.7932    6.9400  -10.8250 H   0  0  0  0  0  0  0  0  0  0  0  0
   10.7722    7.7713  -12.1050 H   0  0  0  0  0  0  0  0  0  0  0  0
  2  1  1  0
  3  2  1  0
  4  3  2  0
  5  4  1  0
  6  2  1  0
  6  5  2  0
  7  6  1  0
  8  7  2  0
  9  8  1  0
 10  9  1  0
 11 10  2  0
 12 11  1  0
 13 12  2  0
 14 13  1  0
 15 13  1  0
 16 15  1  0
 17  7  1  0
 17 10  1  0
 17 15  2  0
 18  1  1  0
 19  1  1  0
 20  1  1  0
 21  3  1  0
 22  5  1  0
 23  8  1  0
 24  9  1  0
 25 11  1  0
 26 12  1  0
M  END
>  <b_m_subgroup_collapsed>  (1022) 
0

>  <r_i_docking_score>  (1022) 
-6.9427353757877199

>  <s_m_subgroup_title>  (1022) 
glide-dock_SP_D22_pv

>  <s_m_subgroupid>  (1022) 
glide-dock_SP_D22_pv

>  <Molecule ChEMBL ID>  (1022) 
CHEMBL4516621

>  <Standard Type>  (1022) 
Ki

>  <Standard Value>  (1022) 
10000.0

>  <label>  (1022) 
0

$$$$
CHEMBL5723020
     RDKit          3D

 39 41  0  0  1  0  0  0  0  0999 V2000
    5.5444    2.5732  -13.0887 C   0  0  0  0  0  0  0  0  0  0  0  0
    6.2925    3.8328  -12.8403 C   0  0  0  0  0  0  0  0  0  0  0  0
    5.7226    4.8778  -12.2470 N   0  0  0  0  0  0  0  0  0  0  0  0
    6.7707    5.7222  -12.1023 N   0  0  0  0  0  0  0  0  0  0  0  0
    7.8628    5.1535  -12.6282 C   0  0  0  0  0  0  0  0  0  0  0  0
    9.4640    5.8700  -12.6469 S   0  0  0  0  0  0  0  0  0  0  0  0
    9.5000    6.6322  -11.0073 C   0  0  0  0  0  0  0  0  0  0  0  0
    9.4405    5.5830   -9.8823 C   0  0  0  0  0  0  0  0  0  0  0  0
   10.0858    6.0820   -8.6795 N   0  0  0  0  0  0  0  0  0  0  0  0
    9.2968    7.1137   -8.0250 C   0  0  0  0  0  0  0  0  0  0  0  0
   10.1126    7.7940   -6.9478 C   0  0  0  0  0  0  0  0  0  0  0  0
   10.3147    9.1229   -6.9236 C   0  0  0  0  0  0  0  0  0  0  0  0
   11.0606    9.7647   -5.8223 C   0  0  0  0  0  0  0  0  0  0  0  0
   11.2868   10.9709   -5.8250 O   0  0  0  0  0  0  0  0  0  0  0  0
   11.4940    8.8679   -4.7137 C   0  0  0  0  0  0  0  0  0  0  0  0
   12.0647    9.3717   -3.5239 C   0  0  0  0  0  0  0  0  0  0  0  0
   12.4604    8.4909   -2.4991 C   0  0  0  0  0  0  0  0  0  0  0  0
   13.0056    8.9721   -1.3605 F   0  0  0  0  0  0  0  0  0  0  0  0
   12.2755    7.1049   -2.6472 C   0  0  0  0  0  0  0  0  0  0  0  0
   11.6874    6.6036   -3.8179 C   0  0  0  0  0  0  0  0  0  0  0  0
   11.2861    7.4740   -4.8426 C   0  0  0  0  0  0  0  0  0  0  0  0
   10.6257    6.9703   -5.9617 N   0  0  0  0  0  0  0  0  0  0  0  0
    7.6091    3.9645  -13.1566 N   0  0  0  0  0  0  0  0  0  0  0  0
    5.6876    1.8810  -12.2608 H   0  0  0  0  0  0  0  0  0  0  0  0
    4.4850    2.7832  -13.1683 H   0  0  0  0  0  0  0  0  0  0  0  0
    5.8827    2.0999  -14.0096 H   0  0  0  0  0  0  0  0  0  0  0  0
    6.7015    6.6045  -11.5946 H   0  0  0  0  0  0  0  0  0  0  0  0
    8.6939    7.3599  -10.9235 H   0  0  0  0  0  0  0  0  0  0  0  0
   10.4335    7.1934  -10.9461 H   0  0  0  0  0  0  0  0  0  0  0  0
    9.9911    4.6930  -10.1905 H   0  0  0  0  0  0  0  0  0  0  0  0
    8.4146    5.2707   -9.6809 H   0  0  0  0  0  0  0  0  0  0  0  0
   10.2325    5.3164   -8.0386 H   0  0  0  0  0  0  0  0  0  0  0  0
    8.3968    6.6787   -7.5882 H   0  0  0  0  0  0  0  0  0  0  0  0
    8.9706    7.8665   -8.7419 H   0  0  0  0  0  0  0  0  0  0  0  0
    9.9029    9.7506   -7.6970 H   0  0  0  0  0  0  0  0  0  0  0  0
   12.1726   10.4326   -3.3663 H   0  0  0  0  0  0  0  0  0  0  0  0
   12.5691    6.4288   -1.8574 H   0  0  0  0  0  0  0  0  0  0  0  0
   11.5300    5.5515   -3.9358 H   0  0  0  0  0  0  0  0  0  0  0  0
   10.4276    5.9812   -5.9935 H   0  0  0  0  0  0  0  0  0  0  0  0
  2  1  1  0
  3  2  2  0
  4  3  1  0
  5  4  1  0
  6  5  1  0
  7  6  1  0
  8  7  1  0
  9  8  1  0
 10  9  1  0
 11 10  1  0
 12 11  2  0
 13 12  1  0
 14 13  2  0
 15 13  1  0
 16 15  2  0
 17 16  1  0
 18 17  1  0
 19 17  2  0
 20 19  1  0
 21 15  1  0
 21 20  2  0
 22 11  1  0
 22 21  1  0
 23  2  1  0
 23  5  2  0
 24  1  1  0
 25  1  1  0
 26  1  1  0
 27  4  1  0
 28  7  1  0
 29  7  1  0
 30  8  1  0
 31  8  1  0
 32  9  1  0
 33 10  1  0
 34 10  1  0
 35 12  1  0
 36 16  1  0
 37 19  1  0
 38 20  1  0
 39 22  1  0
M  END
>  <b_m_subgroup_collapsed>  (1023) 
0

>  <r_i_docking_score>  (1023) 
-6.93976639840385

>  <s_m_subgroup_title>  (1023) 
glide-dock_SP_D22_pv

>  <s_m_subgroupid>  (1023) 
glide-dock_SP_D22_pv

>  <Molecule ChEMBL ID>  (1023) 
CHEMBL5723020

>  <Standard Type>  (1023) 
Ki

>  <Standard Value>  (1023) 
10000.0

>  <label>  (1023) 
0

$$$$
CHEMBL518931
     RDKit          3D

 60 62  0  0  1  0  0  0  0  0999 V2000
    5.4985   -0.9703  -14.3374 C   0  0  0  0  0  0  0  0  0  0  0  0
    5.0665    0.0697  -13.4683 O   0  0  0  0  0  0  0  0  0  0  0  0
    5.7605    1.2601  -13.4958 C   0  0  0  0  0  0  0  0  0  0  0  0
    5.3119    2.2909  -12.6464 C   0  0  0  0  0  0  0  0  0  0  0  0
    5.9529    3.5431  -12.6186 C   0  0  0  0  0  0  0  0  0  0  0  0
    7.0643    3.7771  -13.4467 C   0  0  0  0  0  0  0  0  0  0  0  0
    7.5358    2.7595  -14.3002 C   0  0  0  0  0  0  0  0  0  0  0  0
    8.7092    3.0265  -15.2220 C   0  0  0  0  0  0  0  0  0  0  0  0
   10.0053    2.3080  -14.8194 C   0  0  0  0  0  0  0  0  0  0  0  0
   11.1086    2.6500  -15.8067 C   0  0  0  0  0  0  0  0  0  0  0  0
   11.2953    1.8332  -16.9412 C   0  0  0  0  0  0  0  0  0  0  0  0
   12.2476    2.1837  -17.9170 C   0  0  0  0  0  0  0  0  0  0  0  0
   13.0125    3.3528  -17.7631 C   0  0  0  0  0  0  0  0  0  0  0  0
   12.8366    4.1696  -16.6282 C   0  0  0  0  0  0  0  0  0  0  0  0
   11.8851    3.8215  -15.6399 C   0  0  0  0  0  0  0  0  0  0  0  0
   11.7019    4.5634  -14.4960 O   0  0  0  0  0  0  0  0  0  0  0  0
   11.6675    5.9772  -14.6382 C   0  0  0  0  0  0  0  0  0  0  0  0
   11.4045    6.5947  -13.2582 C   0  0  0  0  0  0  0  0  0  0  0  0
   10.1223    6.0699  -12.5755 C   0  0  0  0  0  0  0  0  0  0  0  0
   10.0844    6.4037  -11.1539 N   0  0  0  0  0  0  0  0  0  0  0  0
    9.1033    5.5472  -10.4829 C   0  0  0  0  0  0  0  0  0  0  0  0
    9.1768    5.7829   -8.9634 C   0  0  0  0  0  0  0  0  0  0  0  0
    8.8860    7.1999   -8.6491 N   0  0  0  0  0  0  0  0  0  0  0  0
    8.8836    7.4838   -7.1978 C   0  0  0  0  0  0  0  0  0  0  0  0
    9.7688    8.1084   -9.4194 C   0  0  0  0  0  0  0  0  0  0  0  0
    9.6895    7.7959  -10.9271 C   0  0  0  0  0  0  0  0  0  0  0  0
    6.8853    1.5070  -14.3262 C   0  0  0  0  0  0  0  0  0  0  0  0
    4.8268   -1.8259  -14.2467 H   0  0  0  0  0  0  0  0  0  0  0  0
    5.4782   -0.6551  -15.3812 H   0  0  0  0  0  0  0  0  0  0  0  0
    6.5014   -1.3121  -14.0798 H   0  0  0  0  0  0  0  0  0  0  0  0
    4.4859    2.1157  -11.9832 H   0  0  0  0  0  0  0  0  0  0  0  0
    5.5982    4.3183  -11.9548 H   0  0  0  0  0  0  0  0  0  0  0  0
    7.5493    4.7420  -13.4241 H   0  0  0  0  0  0  0  0  0  0  0  0
    8.8878    4.1037  -15.2640 H   0  0  0  0  0  0  0  0  0  0  0  0
    8.4221    2.7271  -16.2308 H   0  0  0  0  0  0  0  0  0  0  0  0
    9.8521    1.2274  -14.8042 H   0  0  0  0  0  0  0  0  0  0  0  0
   10.3059    2.5875  -13.8084 H   0  0  0  0  0  0  0  0  0  0  0  0
   10.6978    0.9430  -17.0770 H   0  0  0  0  0  0  0  0  0  0  0  0
   12.3897    1.5554  -18.7852 H   0  0  0  0  0  0  0  0  0  0  0  0
   13.7458    3.6224  -18.5091 H   0  0  0  0  0  0  0  0  0  0  0  0
   13.4578    5.0460  -16.5199 H   0  0  0  0  0  0  0  0  0  0  0  0
   12.6171    6.3597  -15.0140 H   0  0  0  0  0  0  0  0  0  0  0  0
   10.8903    6.2570  -15.3488 H   0  0  0  0  0  0  0  0  0  0  0  0
   12.2752    6.3785  -12.6398 H   0  0  0  0  0  0  0  0  0  0  0  0
   11.3658    7.6794  -13.3540 H   0  0  0  0  0  0  0  0  0  0  0  0
    9.2188    6.4283  -13.0688 H   0  0  0  0  0  0  0  0  0  0  0  0
   10.1123    4.9836  -12.6712 H   0  0  0  0  0  0  0  0  0  0  0  0
    8.0964    5.7405  -10.8575 H   0  0  0  0  0  0  0  0  0  0  0  0
    9.3221    4.4992  -10.6868 H   0  0  0  0  0  0  0  0  0  0  0  0
    8.4471    5.1437   -8.4613 H   0  0  0  0  0  0  0  0  0  0  0  0
   10.1632    5.5065   -8.5851 H   0  0  0  0  0  0  0  0  0  0  0  0
    9.8670    7.3168   -6.7560 H   0  0  0  0  0  0  0  0  0  0  0  0
    8.5900    8.5188   -7.0118 H   0  0  0  0  0  0  0  0  0  0  0  0
    8.1623    6.8464   -6.6867 H   0  0  0  0  0  0  0  0  0  0  0  0
    9.4650    9.1403   -9.2462 H   0  0  0  0  0  0  0  0  0  0  0  0
   10.7974    8.0151   -9.0688 H   0  0  0  0  0  0  0  0  0  0  0  0
   10.3586    8.4695  -11.4585 H   0  0  0  0  0  0  0  0  0  0  0  0
    8.6829    7.9802  -11.3084 H   0  0  0  0  0  0  0  0  0  0  0  0
    7.2645    0.7501  -14.9994 H   0  0  0  0  0  0  0  0  0  0  0  0
    7.9364    7.3725   -8.9748 H   0  0  0  0  0  0  0  0  0  0  0  0
  2  1  1  0
  3  2  1  0
  4  3  1  0
  5  4  2  0
  6  5  1  0
  7  6  2  0
  8  7  1  0
  9  8  1  0
 10  9  1  0
 11 10  2  0
 12 11  1  0
 13 12  2  0
 14 13  1  0
 15 10  1  0
 15 14  2  0
 16 15  1  0
 17 16  1  0
 18 17  1  0
 19 18  1  0
 20 19  1  0
 21 20  1  0
 22 21  1  0
 23 22  1  0
 24 23  1  0
 25 23  1  0
 26 20  1  0
 26 25  1  0
 27  3  2  0
 27  7  1  0
 28  1  1  0
 29  1  1  0
 30  1  1  0
 31  4  1  0
 32  5  1  0
 33  6  1  0
 34  8  1  0
 35  8  1  0
 36  9  1  0
 37  9  1  0
 38 11  1  0
 39 12  1  0
 40 13  1  0
 41 14  1  0
 42 17  1  0
 43 17  1  0
 44 18  1  0
 45 18  1  0
 46 19  1  0
 47 19  1  0
 48 21  1  0
 49 21  1  0
 50 22  1  0
 51 22  1  0
 52 24  1  0
 53 24  1  0
 54 24  1  0
 55 25  1  0
 56 25  1  0
 57 26  1  0
 58 26  1  0
 59 27  1  0
 60 23  1  0
M  CHG  1  23   1
M  END
>  <b_m_subgroup_collapsed>  (1024) 
0

>  <r_i_docking_score>  (1024) 
-6.9363264575127399

>  <s_m_subgroup_title>  (1024) 
glide-dock_SP_D22_pv

>  <s_m_subgroupid>  (1024) 
glide-dock_SP_D22_pv

>  <Molecule ChEMBL ID>  (1024) 
CHEMBL518931

>  <Standard Type>  (1024) 
Ki

>  <Standard Value>  (1024) 
565000.0

>  <label>  (1024) 
0

$$$$
CHEMBL15270
     RDKit          3D

 55 58  0  0  1  0  0  0  0  0999 V2000
    5.9800    3.5060  -13.5280 C   0  0  0  0  0  0  0  0  0  0  0  0
    7.4666    3.7670  -13.6091 C   0  0  0  0  0  0  0  0  0  0  0  0
    8.2055    2.8641  -14.2473 N   0  0  0  0  0  0  0  0  0  0  0  0
    9.5336    3.0859  -14.3099 C   0  0  0  0  0  0  0  0  0  0  0  0
   10.5004    1.8735  -15.0705 Cl  0  0  0  0  0  0  0  0  0  0  0  0
   10.1136    4.2526  -13.7538 C   0  0  0  0  0  0  0  0  0  0  0  0
   11.8589    4.5718  -13.8470 S   0  0  0  0  0  0  0  0  0  0  0  0
   12.0307    5.5007  -15.3362 C   0  0  0  0  0  0  0  0  0  0  0  0
   11.6235    4.9565  -16.5710 C   0  0  0  0  0  0  0  0  0  0  0  0
   11.8472    5.6714  -17.7626 C   0  0  0  0  0  0  0  0  0  0  0  0
   12.4856    6.9255  -17.7227 C   0  0  0  0  0  0  0  0  0  0  0  0
   12.7862    7.7727  -19.1936 Cl  0  0  0  0  0  0  0  0  0  0  0  0
   12.8867    7.4751  -16.4889 C   0  0  0  0  0  0  0  0  0  0  0  0
   12.6543    6.7639  -15.2942 C   0  0  0  0  0  0  0  0  0  0  0  0
    9.2347    5.1174  -13.0639 C   0  0  0  0  0  0  0  0  0  0  0  0
    9.7217    6.2465  -12.3847 N   0  0  0  0  0  0  0  0  0  0  0  0
    8.8800    6.9422  -11.4086 C   0  0  1  0  0  0  0  0  0  0  0  0
    8.8484    6.2137  -10.0477 C   0  0  0  0  0  0  0  0  0  0  0  0
   10.1049    6.4363   -9.2059 C   0  0  0  0  0  0  0  0  0  0  0  0
   10.4458    7.8788   -9.0600 N   0  0  1  0  0  0  0  0  0  0  0  0
   11.6688    8.1098   -8.2484 C   0  0  0  0  0  0  0  0  0  0  0  0
   11.4731    8.1203   -6.7406 C   0  0  0  0  0  0  0  0  0  0  0  0
   11.6844    9.3146   -6.0146 C   0  0  0  0  0  0  0  0  0  0  0  0
   11.7922    9.2783   -4.6101 C   0  0  0  0  0  0  0  0  0  0  0  0
   11.6860    8.0595   -3.9204 C   0  0  0  0  0  0  0  0  0  0  0  0
   11.3922    6.8831   -4.6316 C   0  0  0  0  0  0  0  0  0  0  0  0
   11.2861    6.9121   -6.0339 C   0  0  0  0  0  0  0  0  0  0  0  0
   10.5842    8.5292  -10.3884 C   0  0  0  0  0  0  0  0  0  0  0  0
    9.2972    8.4075  -11.2153 C   0  0  0  0  0  0  0  0  0  0  0  0
    7.9099    4.8667  -13.0139 N   0  0  0  0  0  0  0  0  0  0  0  0
    5.6852    2.7418  -14.2462 H   0  0  0  0  0  0  0  0  0  0  0  0
    5.7122    3.1618  -12.5288 H   0  0  0  0  0  0  0  0  0  0  0  0
    5.4161    4.4146  -13.7445 H   0  0  0  0  0  0  0  0  0  0  0  0
   11.1615    3.9840  -16.6208 H   0  0  0  0  0  0  0  0  0  0  0  0
   11.5449    5.2504  -18.7103 H   0  0  0  0  0  0  0  0  0  0  0  0
   13.3779    8.4365  -16.4610 H   0  0  0  0  0  0  0  0  0  0  0  0
   12.9842    7.1749  -14.3519 H   0  0  0  0  0  0  0  0  0  0  0  0
   10.7150    6.4176  -12.4161 H   0  0  0  0  0  0  0  0  0  0  0  0
    7.8645    6.9727  -11.8067 H   0  0  0  0  0  0  0  0  0  0  0  0
    8.0218    6.5723   -9.4473 H   0  0  0  0  0  0  0  0  0  0  0  0
    8.6625    5.1472  -10.1841 H   0  0  0  0  0  0  0  0  0  0  0  0
   10.9294    5.9034   -9.6651 H   0  0  0  0  0  0  0  0  0  0  0  0
    9.9303    5.9794   -8.2359 H   0  0  0  0  0  0  0  0  0  0  0  0
   12.1125    9.0698   -8.5145 H   0  0  0  0  0  0  0  0  0  0  0  0
   12.4306    7.3733   -8.5018 H   0  0  0  0  0  0  0  0  0  0  0  0
   11.8431   10.2506   -6.5294 H   0  0  0  0  0  0  0  0  0  0  0  0
   11.9960   10.1727   -4.0490 H   0  0  0  0  0  0  0  0  0  0  0  0
   11.7898    8.0325   -2.8452 H   0  0  0  0  0  0  0  0  0  0  0  0
   11.2884    5.9464   -4.1031 H   0  0  0  0  0  0  0  0  0  0  0  0
   11.1698    5.9725   -6.5486 H   0  0  0  0  0  0  0  0  0  0  0  0
   10.8329    9.5803  -10.2463 H   0  0  0  0  0  0  0  0  0  0  0  0
   11.4224    8.0865  -10.9310 H   0  0  0  0  0  0  0  0  0  0  0  0
    8.4952    8.9438  -10.7040 H   0  0  0  0  0  0  0  0  0  0  0  0
    9.4104    8.8975  -12.1831 H   0  0  0  0  0  0  0  0  0  0  0  0
    9.6703    8.3247   -8.5871 H   0  0  0  0  0  0  0  0  0  0  0  0
  2  1  1  0
  3  2  2  0
  4  3  1  0
  5  4  1  0
  6  4  2  0
  7  6  1  0
  8  7  1  0
  9  8  1  0
 10  9  2  0
 11 10  1  0
 12 11  1  0
 13 11  2  0
 14  8  2  0
 14 13  1  0
 15  6  1  0
 16 15  1  0
 17 16  1  0
 18 17  1  0
 19 18  1  0
 20 19  1  0
 21 20  1  0
 22 21  1  0
 23 22  2  0
 24 23  1  0
 25 24  2  0
 26 25  1  0
 27 22  1  0
 27 26  2  0
 28 20  1  0
 29 17  1  0
 29 28  1  0
 30  2  1  0
 30 15  2  0
 31  1  1  0
 32  1  1  0
 33  1  1  0
 34  9  1  0
 35 10  1  0
 36 13  1  0
 37 14  1  0
 38 16  1  0
 17 39  1  6
 40 18  1  0
 41 18  1  0
 42 19  1  0
 43 19  1  0
 44 21  1  0
 45 21  1  0
 46 23  1  0
 47 24  1  0
 48 25  1  0
 49 26  1  0
 50 27  1  0
 51 28  1  0
 52 28  1  0
 53 29  1  0
 54 29  1  0
 20 55  1  1
M  CHG  1  20   1
M  END
>  <b_m_subgroup_collapsed>  (1025) 
0

>  <r_i_docking_score>  (1025) 
-6.9330861644944797

>  <s_m_subgroup_title>  (1025) 
glide-dock_SP_D22_pv

>  <s_m_subgroupid>  (1025) 
glide-dock_SP_D22_pv

>  <Molecule ChEMBL ID>  (1025) 
CHEMBL15270

>  <Standard Type>  (1025) 
Ki

>  <Standard Value>  (1025) 
62.0

>  <label>  (1025) 
1

$$$$
CHEMBL564930
     RDKit          3D

 57 60  0  0  1  0  0  0  0  0999 V2000
   11.3886    9.3327   -7.3049 C   0  0  0  0  0  0  0  0  0  0  0  0
   10.3169    8.6252   -8.1953 C   0  0  0  0  0  0  0  0  0  0  0  0
    8.9363    8.8242   -7.5227 C   0  0  0  0  0  0  0  0  0  0  0  0
   10.3478    9.1302   -9.6446 C   0  0  1  0  0  0  0  0  0  0  0  0
   11.6621    8.6623  -10.2428 C   0  0  0  0  0  0  0  0  0  0  0  0
   11.8949    7.3678   -9.5052 C   0  0  0  0  0  0  0  0  0  0  0  0
   10.7020    7.1738   -8.5280 C   0  0  1  0  0  0  0  0  0  0  0  0
   11.1022    6.3646   -7.2801 C   0  0  0  0  0  0  0  0  0  0  0  0
    9.5427    6.4299   -9.2660 C   0  0  0  0  0  0  0  0  0  0  0  0
    8.8861    7.1748  -10.3943 N   0  0  2  0  0  0  0  0  0  0  0  0
    8.9412    6.4588  -11.6923 C   0  0  0  0  0  0  0  0  0  0  0  0
    8.1049    5.1557  -11.6701 C   0  0  0  0  0  0  0  0  0  0  0  0
    8.1911    4.3669  -12.9020 N   0  0  0  0  0  0  0  0  0  0  0  0
    7.0057    3.6962  -13.4005 C   0  0  0  0  0  0  0  0  0  0  0  0
    7.5777    2.6794  -14.3825 C   0  0  0  0  0  0  0  0  0  0  0  0
    8.9939    3.0186  -14.4370 N   0  0  0  0  0  0  0  0  0  0  0  0
    9.8919    2.4107  -15.3722 C   0  0  0  0  0  0  0  0  0  0  0  0
   11.0656    3.0738  -15.8112 C   0  0  0  0  0  0  0  0  0  0  0  0
   11.9250    2.4719  -16.7494 C   0  0  0  0  0  0  0  0  0  0  0  0
   11.6247    1.1992  -17.2661 C   0  0  0  0  0  0  0  0  0  0  0  0
   10.4595    0.5321  -16.8462 C   0  0  0  0  0  0  0  0  0  0  0  0
   10.0858   -1.0241  -17.4878 Cl  0  0  0  0  0  0  0  0  0  0  0  0
    9.5969    1.1339  -15.9085 C   0  0  0  0  0  0  0  0  0  0  0  0
    9.3178    3.8960  -13.4671 C   0  0  0  0  0  0  0  0  0  0  0  0
   10.4585    4.2124  -13.1296 O   0  0  0  0  0  0  0  0  0  0  0  0
    9.1602    8.6407  -10.4929 C   0  0  0  0  0  0  0  0  0  0  0  0
   12.4119    9.1483   -7.6266 H   0  0  0  0  0  0  0  0  0  0  0  0
   11.2859   10.4142   -7.2729 H   0  0  0  0  0  0  0  0  0  0  0  0
   11.3300    8.9877   -6.2724 H   0  0  0  0  0  0  0  0  0  0  0  0
    8.1962    8.0721   -7.7742 H   0  0  0  0  0  0  0  0  0  0  0  0
    9.0025    8.8309   -6.4350 H   0  0  0  0  0  0  0  0  0  0  0  0
    8.5043    9.7672   -7.8469 H   0  0  0  0  0  0  0  0  0  0  0  0
   10.3488   10.1887   -9.6428 H   0  0  0  0  0  0  0  0  0  0  0  0
   11.6198    8.5185  -11.3219 H   0  0  0  0  0  0  0  0  0  0  0  0
   12.4651    9.3673  -10.0331 H   0  0  0  0  0  0  0  0  0  0  0  0
   11.9605    6.5725  -10.2352 H   0  0  0  0  0  0  0  0  0  0  0  0
   12.8493    7.4146   -8.9819 H   0  0  0  0  0  0  0  0  0  0  0  0
   10.3120    6.3764   -6.5282 H   0  0  0  0  0  0  0  0  0  0  0  0
   11.2851    5.3274   -7.5379 H   0  0  0  0  0  0  0  0  0  0  0  0
   12.0139    6.7370   -6.8142 H   0  0  0  0  0  0  0  0  0  0  0  0
    8.7588    6.1475   -8.5623 H   0  0  0  0  0  0  0  0  0  0  0  0
    9.9386    5.4778   -9.6204 H   0  0  0  0  0  0  0  0  0  0  0  0
    9.9882    6.2934  -11.9380 H   0  0  0  0  0  0  0  0  0  0  0  0
    8.5339    7.0940  -12.4777 H   0  0  0  0  0  0  0  0  0  0  0  0
    7.0602    5.4072  -11.4784 H   0  0  0  0  0  0  0  0  0  0  0  0
    8.4047    4.5004  -10.8524 H   0  0  0  0  0  0  0  0  0  0  0  0
    6.4457    3.2149  -12.5968 H   0  0  0  0  0  0  0  0  0  0  0  0
    6.3521    4.4125  -13.8987 H   0  0  0  0  0  0  0  0  0  0  0  0
    7.1075    2.7458  -15.3642 H   0  0  0  0  0  0  0  0  0  0  0  0
    7.4453    1.6650  -14.0027 H   0  0  0  0  0  0  0  0  0  0  0  0
   11.3214    4.0578  -15.4484 H   0  0  0  0  0  0  0  0  0  0  0  0
   12.8191    2.9863  -17.0699 H   0  0  0  0  0  0  0  0  0  0  0  0
   12.2868    0.7350  -17.9824 H   0  0  0  0  0  0  0  0  0  0  0  0
    8.7116    0.5954  -15.6038 H   0  0  0  0  0  0  0  0  0  0  0  0
    9.2987    8.9470  -11.5305 H   0  0  0  0  0  0  0  0  0  0  0  0
    8.2706    9.1822  -10.1718 H   0  0  0  0  0  0  0  0  0  0  0  0
    7.8803    7.2025  -10.1906 H   0  0  0  0  0  0  0  0  0  0  0  0
  2  1  1  0
  3  2  1  0
  4  2  1  0
  5  4  1  0
  6  5  1  0
  7  2  1  0
  7  6  1  0
  7  8  1  1
  9  7  1  0
 10  9  1  0
 11 10  1  0
 12 11  1  0
 13 12  1  0
 14 13  1  0
 15 14  1  0
 16 15  1  0
 17 16  1  0
 18 17  2  0
 19 18  1  0
 20 19  2  0
 21 20  1  0
 22 21  1  0
 23 17  1  0
 23 21  2  0
 24 13  1  0
 24 16  1  0
 25 24  2  0
 26  4  1  0
 26 10  1  0
 27  1  1  0
 28  1  1  0
 29  1  1  0
 30  3  1  0
 31  3  1  0
 32  3  1  0
  4 33  1  1
 34  5  1  0
 35  5  1  0
 36  6  1  0
 37  6  1  0
 38  8  1  0
 39  8  1  0
 40  8  1  0
 41  9  1  0
 42  9  1  0
 43 11  1  0
 44 11  1  0
 45 12  1  0
 46 12  1  0
 47 14  1  0
 48 14  1  0
 49 15  1  0
 50 15  1  0
 51 18  1  0
 52 19  1  0
 53 20  1  0
 54 23  1  0
 55 26  1  0
 56 26  1  0
 10 57  1  1
M  CHG  1  10   1
M  END
>  <b_m_subgroup_collapsed>  (1026) 
0

>  <r_i_docking_score>  (1026) 
-6.9212170467703604

>  <s_m_subgroup_title>  (1026) 
glide-dock_SP_D22_pv

>  <s_m_subgroupid>  (1026) 
glide-dock_SP_D22_pv

>  <Molecule ChEMBL ID>  (1026) 
CHEMBL564930

>  <Standard Type>  (1026) 
Ki

>  <Standard Value>  (1026) 
31.62

>  <label>  (1026) 
1

$$$$
CHEMBL539057
     RDKit          3D

 44 47  0  0  1  0  0  0  0  0999 V2000
    8.8016    7.8354   -6.8614 C   0  0  0  0  0  0  0  0  0  0  0  0
    8.8860    7.4098   -8.2714 N   0  0  2  0  0  0  0  0  0  0  0  0
    9.5753    6.1049   -8.4151 C   0  0  0  0  0  0  0  0  0  0  0  0
    9.5302    5.6232   -9.8679 C   0  0  0  0  0  0  0  0  0  0  0  0
   10.1680    6.6702  -10.8060 C   0  0  1  0  0  0  0  0  0  0  0  0
   10.2696    6.2515  -12.2783 C   0  0  0  0  0  0  0  0  0  0  0  0
   11.3712    6.6269  -12.9674 C   0  0  0  0  0  0  0  0  0  0  0  0
   11.8256    6.1488  -14.2786 C   0  0  0  0  0  0  0  0  0  0  0  0
   12.4875    7.0421  -15.1466 C   0  0  0  0  0  0  0  0  0  0  0  0
   12.9427    6.6066  -16.4058 C   0  0  0  0  0  0  0  0  0  0  0  0
   12.7423    5.2705  -16.8026 C   0  0  0  0  0  0  0  0  0  0  0  0
   12.0825    4.3735  -15.9413 C   0  0  0  0  0  0  0  0  0  0  0  0
   11.6180    4.8116  -14.6849 C   0  0  0  0  0  0  0  0  0  0  0  0
   11.0071    3.9190  -13.8480 O   0  0  0  0  0  0  0  0  0  0  0  0
    9.6869    4.1559  -13.5843 C   0  0  0  0  0  0  0  0  0  0  0  0
    8.7341    3.2473  -14.0862 C   0  0  0  0  0  0  0  0  0  0  0  0
    7.3632    3.4496  -13.8471 C   0  0  0  0  0  0  0  0  0  0  0  0
    6.9435    4.5733  -13.1146 C   0  0  0  0  0  0  0  0  0  0  0  0
    7.8943    5.4885  -12.6255 C   0  0  0  0  0  0  0  0  0  0  0  0
    9.2809    5.2811  -12.8224 C   0  0  0  0  0  0  0  0  0  0  0  0
    9.4933    8.0393  -10.6265 C   0  0  0  0  0  0  0  0  0  0  0  0
    9.4602    8.4638   -9.1463 C   0  0  0  0  0  0  0  0  0  0  0  0
    9.7753    8.1361   -6.4730 H   0  0  0  0  0  0  0  0  0  0  0  0
    8.1073    8.6679   -6.7593 H   0  0  0  0  0  0  0  0  0  0  0  0
    8.4296    7.0181   -6.2470 H   0  0  0  0  0  0  0  0  0  0  0  0
    9.0899    5.3642   -7.7784 H   0  0  0  0  0  0  0  0  0  0  0  0
   10.6084    6.1898   -8.0749 H   0  0  0  0  0  0  0  0  0  0  0  0
    8.4885    5.4338  -10.1207 H   0  0  0  0  0  0  0  0  0  0  0  0
   10.0512    4.6692   -9.9566 H   0  0  0  0  0  0  0  0  0  0  0  0
   11.1929    6.8106  -10.4572 H   0  0  0  0  0  0  0  0  0  0  0  0
   12.0751    7.2828  -12.4756 H   0  0  0  0  0  0  0  0  0  0  0  0
   12.6488    8.0680  -14.8495 H   0  0  0  0  0  0  0  0  0  0  0  0
   13.4477    7.2976  -17.0651 H   0  0  0  0  0  0  0  0  0  0  0  0
   13.0965    4.9336  -17.7659 H   0  0  0  0  0  0  0  0  0  0  0  0
   11.9354    3.3462  -16.2405 H   0  0  0  0  0  0  0  0  0  0  0  0
    9.0600    2.3885  -14.6542 H   0  0  0  0  0  0  0  0  0  0  0  0
    6.6362    2.7477  -14.2291 H   0  0  0  0  0  0  0  0  0  0  0  0
    5.8919    4.7410  -12.9335 H   0  0  0  0  0  0  0  0  0  0  0  0
    7.5394    6.3483  -12.0774 H   0  0  0  0  0  0  0  0  0  0  0  0
   10.0251    8.7942  -11.2062 H   0  0  0  0  0  0  0  0  0  0  0  0
    8.4859    8.0186  -11.0304 H   0  0  0  0  0  0  0  0  0  0  0  0
    8.8663    9.3718   -9.0446 H   0  0  0  0  0  0  0  0  0  0  0  0
   10.4702    8.7031   -8.8097 H   0  0  0  0  0  0  0  0  0  0  0  0
    7.9210    7.2779   -8.5718 H   0  0  0  0  0  0  0  0  0  0  0  0
  2  1  1  0
  3  2  1  0
  4  3  1  0
  5  4  1  0
  6  5  1  0
  7  6  2  0
  8  7  1  0
  9  8  2  0
 10  9  1  0
 11 10  2  0
 12 11  1  0
 13  8  1  0
 13 12  2  0
 14 13  1  0
 15 14  1  0
 16 15  2  0
 17 16  1  0
 18 17  2  0
 19 18  1  0
 20  6  1  0
 20 15  1  0
 20 19  2  0
 21  5  1  0
 22  2  1  0
 22 21  1  0
 23  1  1  0
 24  1  1  0
 25  1  1  0
 26  3  1  0
 27  3  1  0
 28  4  1  0
 29  4  1  0
  5 30  1  1
 31  7  1  0
 32  9  1  0
 33 10  1  0
 34 11  1  0
 35 12  1  0
 36 16  1  0
 37 17  1  0
 38 18  1  0
 39 19  1  0
 40 21  1  0
 41 21  1  0
 42 22  1  0
 43 22  1  0
  2 44  1  6
M  CHG  1   2   1
M  END
>  <b_m_subgroup_collapsed>  (1027) 
0

>  <r_i_docking_score>  (1027) 
-6.9206291406059801

>  <s_m_subgroup_title>  (1027) 
glide-dock_SP_D22_pv

>  <s_m_subgroupid>  (1027) 
glide-dock_SP_D22_pv

>  <Molecule ChEMBL ID>  (1027) 
CHEMBL539057

>  <Standard Type>  (1027) 
Ki

>  <Standard Value>  (1027) 
82.0

>  <label>  (1027) 
1

$$$$
CHEMBL398615
     RDKit          3D

 58 61  0  0  1  0  0  0  0  0999 V2000
   12.4868    6.6727  -13.8600 C   0  0  0  0  0  0  0  0  0  0  0  0
   12.6524    6.0017  -15.5631 S   0  0  0  0  0  0  0  0  0  0  0  0
   14.0478    5.5842  -15.7538 O   0  0  0  0  0  0  0  0  0  0  0  0
   12.0636    6.9719  -16.4943 O   0  0  0  0  0  0  0  0  0  0  0  0
   11.6346    4.5277  -15.5760 C   0  0  0  0  0  0  0  0  0  0  0  0
   12.0981    3.3817  -16.2351 C   0  0  0  0  0  0  0  0  0  0  0  0
   11.2934    2.2347  -16.2531 C   0  0  0  0  0  0  0  0  0  0  0  0
   10.0299    2.2288  -15.6290 C   0  0  0  0  0  0  0  0  0  0  0  0
    9.5317    3.3823  -14.9614 C   0  0  0  0  0  0  0  0  0  0  0  0
   10.3685    4.5323  -14.9601 C   0  0  0  0  0  0  0  0  0  0  0  0
    8.2514    3.3852  -14.3371 N   0  0  0  0  0  0  0  0  0  0  0  0
    7.6840    4.6930  -13.9422 C   0  0  0  0  0  0  0  0  0  0  0  0
    7.7538    5.0276  -12.4286 C   0  0  0  0  0  0  0  0  0  0  0  0
    8.9471    5.9198  -12.0487 C   0  0  0  0  0  0  0  0  0  0  0  0
    8.8860    6.4929  -10.6762 N   0  0  1  0  0  0  0  0  0  0  0  0
    8.9663    5.4497   -9.6144 C   0  0  0  0  0  0  0  0  0  0  0  0
    9.0289    6.0451   -8.1956 C   0  0  0  0  0  0  0  0  0  0  0  0
   10.1824    7.0502   -8.0656 C   0  0  2  0  0  0  0  0  0  0  0  0
   10.2834    7.6132   -6.6439 C   0  0  0  0  0  0  0  0  0  0  0  0
   11.0614    6.9632   -5.7779 N   0  0  0  0  0  0  0  0  0  0  0  0
    9.6872    8.6361   -6.3256 O   0  0  0  0  0  0  0  0  0  0  0  0
    9.9566    8.1528   -9.1124 C   0  0  0  0  0  0  0  0  0  0  0  0
    9.9264    7.5490  -10.5232 C   0  0  0  0  0  0  0  0  0  0  0  0
    7.3681    2.2733  -14.2428 C   0  0  0  0  0  0  0  0  0  0  0  0
    6.1736    2.3473  -13.4686 C   0  0  0  0  0  0  0  0  0  0  0  0
    5.3335    1.2375  -13.2955 C   0  0  0  0  0  0  0  0  0  0  0  0
    5.6189    0.0248  -13.9352 C   0  0  0  0  0  0  0  0  0  0  0  0
    6.7813   -0.0784  -14.7073 C   0  0  0  0  0  0  0  0  0  0  0  0
    7.6604    1.0178  -14.8425 C   0  0  0  0  0  0  0  0  0  0  0  0
    9.1287    0.7258  -15.7590 S   0  0  0  0  0  0  0  0  0  0  0  0
   13.2038    7.4827  -13.7393 H   0  0  0  0  0  0  0  0  0  0  0  0
   11.4825    7.0563  -13.7014 H   0  0  0  0  0  0  0  0  0  0  0  0
   12.7128    5.8861  -13.1418 H   0  0  0  0  0  0  0  0  0  0  0  0
   13.0657    3.3760  -16.7180 H   0  0  0  0  0  0  0  0  0  0  0  0
   11.6492    1.3463  -16.7565 H   0  0  0  0  0  0  0  0  0  0  0  0
   10.0798    5.4504  -14.4844 H   0  0  0  0  0  0  0  0  0  0  0  0
    8.0860    5.5120  -14.5346 H   0  0  0  0  0  0  0  0  0  0  0  0
    6.6388    4.7037  -14.2467 H   0  0  0  0  0  0  0  0  0  0  0  0
    6.8422    5.5661  -12.1665 H   0  0  0  0  0  0  0  0  0  0  0  0
    7.7461    4.1147  -11.8359 H   0  0  0  0  0  0  0  0  0  0  0  0
    9.8755    5.3617  -12.1694 H   0  0  0  0  0  0  0  0  0  0  0  0
    8.9865    6.7498  -12.7538 H   0  0  0  0  0  0  0  0  0  0  0  0
    8.0934    4.7991   -9.6768 H   0  0  0  0  0  0  0  0  0  0  0  0
    9.8421    4.8226   -9.7859 H   0  0  0  0  0  0  0  0  0  0  0  0
    9.1486    5.2438   -7.4676 H   0  0  0  0  0  0  0  0  0  0  0  0
    8.0861    6.5341   -7.9554 H   0  0  0  0  0  0  0  0  0  0  0  0
   11.1241    6.5455   -8.2886 H   0  0  0  0  0  0  0  0  0  0  0  0
   11.5148    6.1026   -6.0448 H   0  0  0  0  0  0  0  0  0  0  0  0
   11.1547    7.3210   -4.8397 H   0  0  0  0  0  0  0  0  0  0  0  0
   10.7472    8.9043   -9.0507 H   0  0  0  0  0  0  0  0  0  0  0  0
    9.0179    8.6776   -8.9199 H   0  0  0  0  0  0  0  0  0  0  0  0
   10.9069    7.1330  -10.7628 H   0  0  0  0  0  0  0  0  0  0  0  0
    9.7421    8.3484  -11.2440 H   0  0  0  0  0  0  0  0  0  0  0  0
    5.8787    3.2401  -12.9434 H   0  0  0  0  0  0  0  0  0  0  0  0
    4.4836    1.3313  -12.6504 H   0  0  0  0  0  0  0  0  0  0  0  0
    4.9653   -0.8275  -13.8307 H   0  0  0  0  0  0  0  0  0  0  0  0
    7.0031   -1.0262  -15.1804 H   0  0  0  0  0  0  0  0  0  0  0  0
    7.9799    6.9546  -10.5664 H   0  0  0  0  0  0  0  0  0  0  0  0
  2  1  1  0
  3  2  2  0
  4  2  2  0
  5  2  1  0
  6  5  1  0
  7  6  2  0
  8  7  1  0
  9  8  2  0
 10  5  2  0
 10  9  1  0
 11  9  1  0
 12 11  1  0
 13 12  1  0
 14 13  1  0
 15 14  1  0
 16 15  1  0
 17 16  1  0
 18 17  1  0
 19 18  1  0
 20 19  1  0
 21 19  2  0
 22 18  1  0
 23 15  1  0
 23 22  1  0
 24 11  1  0
 25 24  2  0
 26 25  1  0
 27 26  2  0
 28 27  1  0
 29 24  1  0
 29 28  2  0
 30  8  1  0
 30 29  1  0
 31  1  1  0
 32  1  1  0
 33  1  1  0
 34  6  1  0
 35  7  1  0
 36 10  1  0
 37 12  1  0
 38 12  1  0
 39 13  1  0
 40 13  1  0
 41 14  1  0
 42 14  1  0
 43 16  1  0
 44 16  1  0
 45 17  1  0
 46 17  1  0
 18 47  1  6
 48 20  1  0
 49 20  1  0
 50 22  1  0
 51 22  1  0
 52 23  1  0
 53 23  1  0
 54 25  1  0
 55 26  1  0
 56 27  1  0
 57 28  1  0
 15 58  1  6
M  CHG  1  15   1
M  END
>  <b_m_subgroup_collapsed>  (1028) 
0

>  <r_i_docking_score>  (1028) 
-6.92010633007928

>  <s_m_subgroup_title>  (1028) 
glide-dock_SP_D22_pv

>  <s_m_subgroupid>  (1028) 
glide-dock_SP_D22_pv

>  <Molecule ChEMBL ID>  (1028) 
CHEMBL398615

>  <Standard Type>  (1028) 
Ki

>  <Standard Value>  (1028) 
0.07

>  <label>  (1028) 
1

$$$$
CHEMBL307800
     RDKit          3D

 64 68  0  0  1  0  0  0  0  0999 V2000
    9.2857    3.3922  -16.0126 O   0  0  0  0  0  0  0  0  0  0  0  0
    9.1443    2.5669  -15.1101 C   0  0  0  0  0  0  0  0  0  0  0  0
    8.8648    2.9124  -13.8468 N   0  0  0  0  0  0  0  0  0  0  0  0
    8.5273    4.2460  -13.3664 C   0  0  0  0  0  0  0  0  0  0  0  0
    9.7856    5.0855  -13.0989 C   0  0  0  0  0  0  0  0  0  0  0  0
    9.5427    6.3323  -12.2270 C   0  0  0  0  0  0  0  0  0  0  0  0
    9.2618    5.9720  -10.7488 C   0  0  0  0  0  0  0  0  0  0  0  0
    9.2920    7.1088   -9.7866 N   0  0  0  0  0  0  0  0  0  0  0  0
    8.8853    6.6340   -8.4355 C   0  0  0  0  0  0  0  0  0  0  0  0
    8.8871    7.7649   -7.3940 C   0  0  0  0  0  0  0  0  0  0  0  0
   10.1684    8.4557   -7.4147 N   0  0  0  0  0  0  0  0  0  0  0  0
   10.8190    8.7021   -6.1936 C   0  0  0  0  0  0  0  0  0  0  0  0
   10.8818    9.9983   -5.6609 C   0  0  0  0  0  0  0  0  0  0  0  0
   11.2825   10.1723   -4.3281 C   0  0  0  0  0  0  0  0  0  0  0  0
   11.6879    9.1079   -3.5276 C   0  0  0  0  0  0  0  0  0  0  0  0
   11.7457    7.8317   -4.0843 C   0  0  0  0  0  0  0  0  0  0  0  0
   12.3005    6.5723   -3.0522 Cl  0  0  0  0  0  0  0  0  0  0  0  0
   11.3497    7.6385   -5.4323 C   0  0  0  0  0  0  0  0  0  0  0  0
   11.6851    6.1723   -6.2481 Cl  0  0  0  0  0  0  0  0  0  0  0  0
   10.6438    8.9558   -8.6901 C   0  0  0  0  0  0  0  0  0  0  0  0
   10.6039    7.8278   -9.7440 C   0  0  0  0  0  0  0  0  0  0  0  0
    9.2417    1.0547  -15.3799 C   0  0  0  0  0  0  0  0  0  0  0  0
    9.9420    0.7319  -16.6959 C   0  0  0  0  0  0  0  0  0  0  0  0
   11.2888    0.9697  -17.0263 C   0  0  0  0  0  0  0  0  0  0  0  0
   11.7504    0.5632  -18.2968 C   0  0  0  0  0  0  0  0  0  0  0  0
   10.8742   -0.0648  -19.2132 C   0  0  0  0  0  0  0  0  0  0  0  0
    9.5242   -0.2979  -18.8705 C   0  0  0  0  0  0  0  0  0  0  0  0
    9.0749    0.1094  -17.6017 C   0  0  0  0  0  0  0  0  0  0  0  0
    7.7734   -0.0381  -16.9648 C   0  0  0  0  0  0  0  0  0  0  0  0
    6.5824   -0.6189  -17.4385 C   0  0  0  0  0  0  0  0  0  0  0  0
    5.4802   -0.7058  -16.5604 C   0  0  0  0  0  0  0  0  0  0  0  0
    5.5797   -0.2294  -15.2323 C   0  0  0  0  0  0  0  0  0  0  0  0
    6.7717    0.3739  -14.7725 C   0  0  0  0  0  0  0  0  0  0  0  0
    7.8604    0.4697  -15.6621 C   0  0  0  0  0  0  0  0  0  0  0  0
    8.8334    2.1665  -13.1649 H   0  0  0  0  0  0  0  0  0  0  0  0
    7.8688    4.7548  -14.0721 H   0  0  0  0  0  0  0  0  0  0  0  0
    7.9514    4.1116  -12.4519 H   0  0  0  0  0  0  0  0  0  0  0  0
   10.5482    4.4643  -12.6294 H   0  0  0  0  0  0  0  0  0  0  0  0
   10.2071    5.3930  -14.0562 H   0  0  0  0  0  0  0  0  0  0  0  0
   10.4429    6.9359  -12.3135 H   0  0  0  0  0  0  0  0  0  0  0  0
    8.7293    6.9324  -12.6380 H   0  0  0  0  0  0  0  0  0  0  0  0
    8.2764    5.5077  -10.6854 H   0  0  0  0  0  0  0  0  0  0  0  0
    9.9717    5.2160  -10.4122 H   0  0  0  0  0  0  0  0  0  0  0  0
    7.9003    6.1710   -8.4847 H   0  0  0  0  0  0  0  0  0  0  0  0
    9.5703    5.8474   -8.1147 H   0  0  0  0  0  0  0  0  0  0  0  0
    8.0963    8.4845   -7.6124 H   0  0  0  0  0  0  0  0  0  0  0  0
    8.6722    7.3617   -6.4040 H   0  0  0  0  0  0  0  0  0  0  0  0
   10.5258   10.8432   -6.2310 H   0  0  0  0  0  0  0  0  0  0  0  0
   11.2856   11.1391   -3.8818 H   0  0  0  0  0  0  0  0  0  0  0  0
   11.9821    9.2778   -2.5019 H   0  0  0  0  0  0  0  0  0  0  0  0
    9.9898    9.7655   -9.0091 H   0  0  0  0  0  0  0  0  0  0  0  0
   11.6519    9.3630   -8.5978 H   0  0  0  0  0  0  0  0  0  0  0  0
   11.3836    7.0960   -9.5254 H   0  0  0  0  0  0  0  0  0  0  0  0
   10.8409    8.2710  -10.7091 H   0  0  0  0  0  0  0  0  0  0  0  0
    9.7237    0.5286  -14.5545 H   0  0  0  0  0  0  0  0  0  0  0  0
   11.9577    1.4441  -16.3227 H   0  0  0  0  0  0  0  0  0  0  0  0
   12.7821    0.7324  -18.5691 H   0  0  0  0  0  0  0  0  0  0  0  0
   11.2413   -0.3711  -20.1812 H   0  0  0  0  0  0  0  0  0  0  0  0
    8.8549   -0.7864  -19.5633 H   0  0  0  0  0  0  0  0  0  0  0  0
    6.5178   -1.0133  -18.4413 H   0  0  0  0  0  0  0  0  0  0  0  0
    4.5608   -1.1613  -16.9007 H   0  0  0  0  0  0  0  0  0  0  0  0
    4.7310   -0.3175  -14.5703 H   0  0  0  0  0  0  0  0  0  0  0  0
    6.8457    0.7450  -13.7612 H   0  0  0  0  0  0  0  0  0  0  0  0
    8.5746    7.7653  -10.0733 H   0  0  0  0  0  0  0  0  0  0  0  0
  2  1  2  0
  3  2  1  0
  4  3  1  0
  5  4  1  0
  6  5  1  0
  7  6  1  0
  8  7  1  0
  9  8  1  0
 10  9  1  0
 11 10  1  0
 12 11  1  0
 13 12  2  0
 14 13  1  0
 15 14  2  0
 16 15  1  0
 17 16  1  0
 18 12  1  0
 18 16  2  0
 19 18  1  0
 20 11  1  0
 21  8  1  0
 21 20  1  0
 22  2  1  0
 23 22  1  0
 24 23  2  0
 25 24  1  0
 26 25  2  0
 27 26  1  0
 28 23  1  0
 28 27  2  0
 29 28  1  0
 30 29  2  0
 31 30  1  0
 32 31  2  0
 33 32  1  0
 34 22  1  0
 34 29  1  0
 34 33  2  0
 35  3  1  0
 36  4  1  0
 37  4  1  0
 38  5  1  0
 39  5  1  0
 40  6  1  0
 41  6  1  0
 42  7  1  0
 43  7  1  0
 44  9  1  0
 45  9  1  0
 46 10  1  0
 47 10  1  0
 48 13  1  0
 49 14  1  0
 50 15  1  0
 51 20  1  0
 52 20  1  0
 53 21  1  0
 54 21  1  0
 55 22  1  0
 56 24  1  0
 57 25  1  0
 58 26  1  0
 59 27  1  0
 60 30  1  0
 61 31  1  0
 62 32  1  0
 63 33  1  0
 64  8  1  0
M  CHG  1   8   1
M  END
>  <b_m_subgroup_collapsed>  (1029) 
0

>  <r_i_docking_score>  (1029) 
-6.9173330022388102

>  <s_m_subgroup_title>  (1029) 
glide-dock_SP_D22_pv

>  <s_m_subgroupid>  (1029) 
glide-dock_SP_D22_pv

>  <Molecule ChEMBL ID>  (1029) 
CHEMBL307800

>  <Standard Type>  (1029) 
Ki

>  <Standard Value>  (1029) 
10.0

>  <label>  (1029) 
1

$$$$
CHEMBL141510
     RDKit          3D

 46 47  0  0  1  0  0  0  0  0999 V2000
    8.7301    4.9267  -12.4501 C   0  0  0  0  0  0  0  0  0  0  0  0
    9.5081    5.3040  -11.1852 C   0  0  0  0  0  0  0  0  0  0  0  0
    8.7096    6.2462  -10.2675 C   0  0  0  0  0  0  0  0  0  0  0  0
    9.3223    6.5036   -8.8725 C   0  0  0  0  0  0  0  0  0  0  0  0
   10.2277    7.6922   -8.7704 N   0  0  2  0  0  0  0  0  0  0  0  0
   11.4909    7.5497   -9.5470 C   0  0  0  0  0  0  0  0  0  0  0  0
   11.4611    8.2999  -10.8854 C   0  0  0  0  0  0  0  0  0  0  0  0
   12.5884    7.8281  -11.8189 C   0  0  0  0  0  0  0  0  0  0  0  0
   10.4224    8.1286   -7.3490 C   0  0  2  0  0  0  0  0  0  0  0  0
   11.2697    9.4061   -7.1722 C   0  0  0  0  0  0  0  0  0  0  0  0
   11.1053    9.9480   -5.7484 C   0  0  0  0  0  0  0  0  0  0  0  0
   11.4096    8.8884   -4.7080 C   0  0  0  0  0  0  0  0  0  0  0  0
   11.7371    9.2764   -3.3932 C   0  0  0  0  0  0  0  0  0  0  0  0
   11.6861   10.5723   -3.0468 F   0  0  0  0  0  0  0  0  0  0  0  0
   12.0862    8.3254   -2.4194 C   0  0  0  0  0  0  0  0  0  0  0  0
   12.0684    6.9632   -2.7493 C   0  0  0  0  0  0  0  0  0  0  0  0
   11.6861    6.5725   -4.0445 C   0  0  0  0  0  0  0  0  0  0  0  0
   11.3534    7.5139   -5.0331 C   0  0  0  0  0  0  0  0  0  0  0  0
   10.9756    7.0194   -6.4245 C   0  0  0  0  0  0  0  0  0  0  0  0
    9.3170    4.2600  -13.0826 H   0  0  0  0  0  0  0  0  0  0  0  0
    7.7992    4.4136  -12.2030 H   0  0  0  0  0  0  0  0  0  0  0  0
    8.4804    5.8112  -13.0374 H   0  0  0  0  0  0  0  0  0  0  0  0
   10.4451    5.7662  -11.4906 H   0  0  0  0  0  0  0  0  0  0  0  0
    9.7650    4.3914  -10.6447 H   0  0  0  0  0  0  0  0  0  0  0  0
    7.7385    5.7737  -10.1054 H   0  0  0  0  0  0  0  0  0  0  0  0
    8.4861    7.1850  -10.7741 H   0  0  0  0  0  0  0  0  0  0  0  0
    9.8213    5.6024   -8.5131 H   0  0  0  0  0  0  0  0  0  0  0  0
    8.4854    6.6705   -8.1923 H   0  0  0  0  0  0  0  0  0  0  0  0
   12.3696    7.8695   -8.9915 H   0  0  0  0  0  0  0  0  0  0  0  0
   11.6752    6.5041   -9.7342 H   0  0  0  0  0  0  0  0  0  0  0  0
   10.5074    8.1530  -11.3912 H   0  0  0  0  0  0  0  0  0  0  0  0
   11.5480    9.3706  -10.6937 H   0  0  0  0  0  0  0  0  0  0  0  0
   12.4819    8.1724  -12.8445 H   0  0  0  0  0  0  0  0  0  0  0  0
   13.5586    8.1723  -11.4579 H   0  0  0  0  0  0  0  0  0  0  0  0
   12.6045    6.7440  -11.8951 H   0  0  0  0  0  0  0  0  0  0  0  0
    9.4233    8.3799   -6.9859 H   0  0  0  0  0  0  0  0  0  0  0  0
   12.3284    9.1914   -7.3176 H   0  0  0  0  0  0  0  0  0  0  0  0
   11.0299   10.1703   -7.9003 H   0  0  0  0  0  0  0  0  0  0  0  0
   10.0862   10.2855   -5.5699 H   0  0  0  0  0  0  0  0  0  0  0  0
   11.7550   10.8115   -5.6069 H   0  0  0  0  0  0  0  0  0  0  0  0
   12.3404    8.6436   -1.4188 H   0  0  0  0  0  0  0  0  0  0  0  0
   12.3197    6.2163   -2.0092 H   0  0  0  0  0  0  0  0  0  0  0  0
   11.6560    5.5274   -4.2906 H   0  0  0  0  0  0  0  0  0  0  0  0
   11.8648    6.5664   -6.8653 H   0  0  0  0  0  0  0  0  0  0  0  0
   10.2440    6.2190   -6.3072 H   0  0  0  0  0  0  0  0  0  0  0  0
    9.7194    8.4488   -9.2074 H   0  0  0  0  0  0  0  0  0  0  0  0
  2  1  1  0
  3  2  1  0
  4  3  1  0
  5  4  1  0
  6  5  1  0
  7  6  1  0
  8  7  1  0
  9  5  1  0
 10  9  1  0
 11 10  1  0
 12 11  1  0
 13 12  2  0
 14 13  1  0
 15 13  1  0
 16 15  2  0
 17 16  1  0
 18 12  1  0
 18 17  2  0
 19  9  1  0
 19 18  1  0
 20  1  1  0
 21  1  1  0
 22  1  1  0
 23  2  1  0
 24  2  1  0
 25  3  1  0
 26  3  1  0
 27  4  1  0
 28  4  1  0
 29  6  1  0
 30  6  1  0
 31  7  1  0
 32  7  1  0
 33  8  1  0
 34  8  1  0
 35  8  1  0
  9 36  1  1
 37 10  1  0
 38 10  1  0
 39 11  1  0
 40 11  1  0
 41 15  1  0
 42 16  1  0
 43 17  1  0
 44 19  1  0
 45 19  1  0
  5 46  1  6
M  CHG  1   5   1
M  END
>  <b_m_subgroup_collapsed>  (1030) 
0

>  <r_i_docking_score>  (1030) 
-6.9147007490200298

>  <s_m_subgroup_title>  (1030) 
glide-dock_SP_D22_pv

>  <s_m_subgroupid>  (1030) 
glide-dock_SP_D22_pv

>  <Molecule ChEMBL ID>  (1030) 
CHEMBL141510

>  <Standard Type>  (1030) 
Ki

>  <Standard Value>  (1030) 
45.6

>  <label>  (1030) 
1

$$$$
CHEMBL316983
     RDKit          3D

 43 44  0  0  1  0  0  0  0  0999 V2000
    8.2401    8.9567  -12.1118 C   0  0  0  0  0  0  0  0  0  0  0  0
    8.9614    7.8592  -11.3166 C   0  0  0  0  0  0  0  0  0  0  0  0
    9.2858    8.2299   -9.8417 C   0  0  0  0  0  0  0  0  0  0  0  0
    9.6610    7.0763   -8.9633 N   0  0  0  0  0  0  0  0  0  0  0  0
    8.6742    5.9482   -8.9721 C   0  0  0  0  0  0  0  0  0  0  0  0
    9.2850    4.6312   -9.4827 C   0  0  0  0  0  0  0  0  0  0  0  0
    9.3937    4.5455  -11.0117 C   0  0  0  0  0  0  0  0  0  0  0  0
   10.0243    7.4349   -7.5464 C   0  0  1  0  0  0  0  0  0  0  0  0
   10.9793    6.3838   -6.9465 C   0  0  0  0  0  0  0  0  0  0  0  0
   11.2025    6.5658   -5.4389 C   0  0  0  0  0  0  0  0  0  0  0  0
   11.3530    7.9554   -5.0536 N   0  0  0  0  0  0  0  0  0  0  0  0
   11.7255    8.4491   -3.8035 C   0  0  0  0  0  0  0  0  0  0  0  0
   12.0861    7.6358   -2.6461 C   0  0  0  0  0  0  0  0  0  0  0  0
   12.2016    6.4155   -2.6535 O   0  0  0  0  0  0  0  0  0  0  0  0
   11.6739    9.8037   -3.8667 C   0  0  0  0  0  0  0  0  0  0  0  0
   11.2861   10.1724   -5.1830 C   0  0  0  0  0  0  0  0  0  0  0  0
   11.0845    9.0282   -5.8986 C   0  0  0  0  0  0  0  0  0  0  0  0
   10.6602    8.8246   -7.3249 C   0  0  0  0  0  0  0  0  0  0  0  0
    7.8463    8.5523  -13.0455 H   0  0  0  0  0  0  0  0  0  0  0  0
    8.8942    9.7730  -12.3793 H   0  0  0  0  0  0  0  0  0  0  0  0
    7.3971    9.3726  -11.5597 H   0  0  0  0  0  0  0  0  0  0  0  0
    8.3021    6.9986  -11.3784 H   0  0  0  0  0  0  0  0  0  0  0  0
    9.8746    7.5751  -11.8391 H   0  0  0  0  0  0  0  0  0  0  0  0
   10.1086    8.9426   -9.8776 H   0  0  0  0  0  0  0  0  0  0  0  0
    8.4621    8.7645   -9.3810 H   0  0  0  0  0  0  0  0  0  0  0  0
    8.3005    5.7554   -7.9660 H   0  0  0  0  0  0  0  0  0  0  0  0
    7.7616    6.1726   -9.5185 H   0  0  0  0  0  0  0  0  0  0  0  0
   10.2662    4.4487   -9.0471 H   0  0  0  0  0  0  0  0  0  0  0  0
    8.6552    3.8221   -9.1117 H   0  0  0  0  0  0  0  0  0  0  0  0
    9.7732    3.5743  -11.3280 H   0  0  0  0  0  0  0  0  0  0  0  0
   10.0806    5.2917  -11.4067 H   0  0  0  0  0  0  0  0  0  0  0  0
    8.4216    4.6788  -11.4879 H   0  0  0  0  0  0  0  0  0  0  0  0
    9.1042    7.4491   -6.9584 H   0  0  0  0  0  0  0  0  0  0  0  0
   10.6260    5.3727   -7.1213 H   0  0  0  0  0  0  0  0  0  0  0  0
   11.9442    6.4623   -7.4469 H   0  0  0  0  0  0  0  0  0  0  0  0
   10.3508    6.1721   -4.8850 H   0  0  0  0  0  0  0  0  0  0  0  0
   12.0845    6.0017   -5.1355 H   0  0  0  0  0  0  0  0  0  0  0  0
   12.2563    8.2182   -1.7392 H   0  0  0  0  0  0  0  0  0  0  0  0
   11.9006   10.4723   -3.0473 H   0  0  0  0  0  0  0  0  0  0  0  0
   11.1633   11.1748   -5.5609 H   0  0  0  0  0  0  0  0  0  0  0  0
   11.5297    8.9541   -7.9708 H   0  0  0  0  0  0  0  0  0  0  0  0
    9.9477    9.6064   -7.5859 H   0  0  0  0  0  0  0  0  0  0  0  0
   10.5013    6.7059   -9.3814 H   0  0  0  0  0  0  0  0  0  0  0  0
  2  1  1  0
  3  2  1  0
  4  3  1  0
  5  4  1  0
  6  5  1  0
  7  6  1  0
  8  4  1  0
  9  8  1  0
 10  9  1  0
 11 10  1  0
 12 11  1  0
 13 12  1  0
 14 13  2  0
 15 12  2  0
 16 15  1  0
 17 11  1  0
 17 16  2  0
 18  8  1  0
 18 17  1  0
 19  1  1  0
 20  1  1  0
 21  1  1  0
 22  2  1  0
 23  2  1  0
 24  3  1  0
 25  3  1  0
 26  5  1  0
 27  5  1  0
 28  6  1  0
 29  6  1  0
 30  7  1  0
 31  7  1  0
 32  7  1  0
  8 33  1  1
 34  9  1  0
 35  9  1  0
 36 10  1  0
 37 10  1  0
 38 13  1  0
 39 15  1  0
 40 16  1  0
 41 18  1  0
 42 18  1  0
 43  4  1  0
M  CHG  1   4   1
M  END
>  <b_m_subgroup_collapsed>  (1031) 
0

>  <r_i_docking_score>  (1031) 
-6.9130473183148897

>  <s_m_subgroup_title>  (1031) 
glide-dock_SP_D22_pv

>  <s_m_subgroupid>  (1031) 
glide-dock_SP_D22_pv

>  <Molecule ChEMBL ID>  (1031) 
CHEMBL316983

>  <Standard Type>  (1031) 
Ki

>  <Standard Value>  (1031) 
41.0

>  <label>  (1031) 
1

$$$$
CHEMBL5415557
     RDKit          3D

 56 59  0  0  1  0  0  0  0  0999 V2000
   11.2711    3.0444  -13.8470 F   0  0  0  0  0  0  0  0  0  0  0  0
   10.1958    3.8106  -13.5492 C   0  0  0  0  0  0  0  0  0  0  0  0
    9.5851    4.5892  -14.5462 C   0  0  0  0  0  0  0  0  0  0  0  0
    8.5071    5.3634  -14.3120 N   0  0  0  0  0  0  0  0  0  0  0  0
    7.9898    5.3867  -13.0742 C   0  0  0  0  0  0  0  0  0  0  0  0
    8.5329    4.6655  -11.9976 C   0  0  0  0  0  0  0  0  0  0  0  0
    7.8435    4.7495  -10.6495 C   0  0  0  0  0  0  0  0  0  0  0  0
    8.4860    5.6257   -9.6568 N   0  0  0  0  0  0  0  0  0  0  0  0
    9.7927    5.1885   -9.1535 C   0  0  0  0  0  0  0  0  0  0  0  0
   10.3093    6.1079   -8.0323 C   0  0  0  0  0  0  0  0  0  0  0  0
   10.4419    7.6421   -8.3382 C   0  0  1  0  0  0  0  0  0  0  0  0
   10.6623    7.8740   -9.8397 C   0  0  0  0  0  0  0  0  0  0  0  0
    9.5743    8.1755  -10.6911 C   0  0  0  0  0  0  0  0  0  0  0  0
    9.6849    7.8829  -12.0496 C   0  0  0  0  0  0  0  0  0  0  0  0
   10.8995    7.3723  -12.5360 C   0  0  0  0  0  0  0  0  0  0  0  0
   11.9888    7.3723  -11.6625 C   0  0  0  0  0  0  0  0  0  0  0  0
   11.8728    7.5340  -10.3294 N   0  0  0  0  0  0  0  0  0  0  0  0
    9.1583    8.3735   -7.9128 C   0  0  0  0  0  0  0  0  0  0  0  0
    8.9908    8.4381   -6.4201 C   0  0  0  0  0  0  0  0  0  0  0  0
   10.0887    9.1248   -5.8469 O   0  0  0  0  0  0  0  0  0  0  0  0
   11.3268    8.4501   -6.0057 C   0  0  0  0  0  0  0  0  0  0  0  0
   12.3868    9.3722   -5.3676 C   0  0  0  0  0  0  0  0  0  0  0  0
   12.8022    8.7120   -4.0534 C   0  0  0  0  0  0  0  0  0  0  0  0
   11.7111    7.7206   -3.7254 C   0  0  0  0  0  0  0  0  0  0  0  0
   11.3421    7.1849   -5.1054 C   0  0  0  0  0  0  0  0  0  0  0  0
   11.5971    8.2697   -7.5230 C   0  0  0  0  0  0  0  0  0  0  0  0
    9.6577    3.8487  -12.2474 C   0  0  0  0  0  0  0  0  0  0  0  0
    9.9694    4.5919  -15.5552 H   0  0  0  0  0  0  0  0  0  0  0  0
    7.1217    6.0157  -12.9410 H   0  0  0  0  0  0  0  0  0  0  0  0
    7.6386    3.7723  -10.2265 H   0  0  0  0  0  0  0  0  0  0  0  0
    6.8860    5.2150  -10.8521 H   0  0  0  0  0  0  0  0  0  0  0  0
    7.8463    5.7121   -8.8779 H   0  0  0  0  0  0  0  0  0  0  0  0
   10.4859    5.1811   -9.9853 H   0  0  0  0  0  0  0  0  0  0  0  0
    9.7201    4.1624   -8.7896 H   0  0  0  0  0  0  0  0  0  0  0  0
   11.2880    5.7211   -7.7698 H   0  0  0  0  0  0  0  0  0  0  0  0
    9.7130    5.9215   -7.1436 H   0  0  0  0  0  0  0  0  0  0  0  0
    8.6079    8.5071  -10.3429 H   0  0  0  0  0  0  0  0  0  0  0  0
    8.8188    8.0177  -12.6745 H   0  0  0  0  0  0  0  0  0  0  0  0
   11.0393    7.1024  -13.5697 H   0  0  0  0  0  0  0  0  0  0  0  0
   12.9390    7.0745  -12.0529 H   0  0  0  0  0  0  0  0  0  0  0  0
    9.1641    9.3984   -8.2849 H   0  0  0  0  0  0  0  0  0  0  0  0
    8.2749    7.8929   -8.3162 H   0  0  0  0  0  0  0  0  0  0  0  0
    8.0861    8.9749   -6.2406 H   0  0  0  0  0  0  0  0  0  0  0  0
    8.8180    7.4620   -5.9868 H   0  0  0  0  0  0  0  0  0  0  0  0
   13.2671    9.4872   -6.0007 H   0  0  0  0  0  0  0  0  0  0  0  0
   11.9812   10.3700   -5.1994 H   0  0  0  0  0  0  0  0  0  0  0  0
   13.6859    8.1156   -4.2469 H   0  0  0  0  0  0  0  0  0  0  0  0
   13.0049    9.4214   -3.2499 H   0  0  0  0  0  0  0  0  0  0  0  0
   12.0344    6.9394   -3.0363 H   0  0  0  0  0  0  0  0  0  0  0  0
   10.8880    8.2706   -3.2710 H   0  0  0  0  0  0  0  0  0  0  0  0
   10.4254    6.6051   -5.0536 H   0  0  0  0  0  0  0  0  0  0  0  0
   12.1017    6.4857   -5.4472 H   0  0  0  0  0  0  0  0  0  0  0  0
   12.5099    7.7046   -7.6864 H   0  0  0  0  0  0  0  0  0  0  0  0
   11.7903    9.2615   -7.9361 H   0  0  0  0  0  0  0  0  0  0  0  0
   10.0861    3.2503  -11.4581 H   0  0  0  0  0  0  0  0  0  0  0  0
    8.5774    6.5476  -10.0674 H   0  0  0  0  0  0  0  0  0  0  0  0
  2  1  1  0
  3  2  1  0
  4  3  2  0
  5  4  1  0
  6  5  2  0
  7  6  1  0
  8  7  1  0
  9  8  1  0
 10  9  1  0
 11 10  1  6
 12 11  1  0
 13 12  2  0
 14 13  1  0
 15 14  2  0
 16 15  1  0
 17 12  1  0
 17 16  2  0
 18 11  1  0
 19 18  1  0
 20 19  1  0
 21 20  1  0
 22 21  1  0
 23 22  1  0
 24 23  1  0
 25 21  1  0
 25 24  1  0
 26 11  1  0
 26 21  1  0
 27  2  2  0
 27  6  1  0
 28  3  1  0
 29  5  1  0
 30  7  1  0
 31  7  1  0
 32  8  1  0
 33  9  1  0
 34  9  1  0
 35 10  1  0
 36 10  1  0
 37 13  1  0
 38 14  1  0
 39 15  1  0
 40 16  1  0
 41 18  1  0
 42 18  1  0
 43 19  1  0
 44 19  1  0
 45 22  1  0
 46 22  1  0
 47 23  1  0
 48 23  1  0
 49 24  1  0
 50 24  1  0
 51 25  1  0
 52 25  1  0
 53 26  1  0
 54 26  1  0
 55 27  1  0
 56  8  1  0
M  CHG  1   8   1
M  END
>  <b_m_subgroup_collapsed>  (1032) 
0

>  <r_i_docking_score>  (1032) 
-6.91246769430792

>  <s_m_subgroup_title>  (1032) 
glide-dock_SP_D22_pv

>  <s_m_subgroupid>  (1032) 
glide-dock_SP_D22_pv

>  <Molecule ChEMBL ID>  (1032) 
CHEMBL5415557

>  <Standard Type>  (1032) 
Ki

>  <Standard Value>  (1032) 
100000.0

>  <label>  (1032) 
0

$$$$
CHEMBL109532
     RDKit          3D

 61 63  0  0  1  0  0  0  0  0999 V2000
   12.2474    8.8160  -10.5496 C   0  0  0  0  0  0  0  0  0  0  0  0
   11.8553    7.9943   -9.3238 C   0  0  0  0  0  0  0  0  0  0  0  0
   10.4237    8.0888   -8.9298 N   0  0  1  0  0  0  0  0  0  0  0  0
    9.4768    7.9449  -10.0754 C   0  0  0  0  0  0  0  0  0  0  0  0
    9.5121    6.6427  -10.8300 C   0  0  0  0  0  0  0  0  0  0  0  0
    8.8848    5.4436  -10.6241 C   0  0  0  0  0  0  0  0  0  0  0  0
    9.2213    4.5729  -11.7002 C   0  0  0  0  0  0  0  0  0  0  0  0
   10.0565    5.2320  -12.5556 C   0  0  0  0  0  0  0  0  0  0  0  0
   10.7160    4.7893  -13.7937 C   0  0  0  0  0  0  0  0  0  0  0  0
   10.4072    3.4921  -14.2676 C   0  0  0  0  0  0  0  0  0  0  0  0
   10.9714    2.9940  -15.4524 C   0  0  0  0  0  0  0  0  0  0  0  0
   10.4955    1.3703  -16.0511 S   0  0  0  0  0  0  0  0  0  0  0  0
   11.4903    0.9453  -17.0474 O   0  0  0  0  0  0  0  0  0  0  0  0
   10.2248    0.5197  -14.8814 O   0  0  0  0  0  0  0  0  0  0  0  0
    8.9060    1.6493  -16.9417 C   0  0  0  0  0  0  0  0  0  0  0  0
    7.7583    2.0032  -15.9864 C   0  0  0  0  0  0  0  0  0  0  0  0
   11.8641    3.7852  -16.1914 C   0  0  0  0  0  0  0  0  0  0  0  0
   12.2048    5.0678  -15.7228 C   0  0  0  0  0  0  0  0  0  0  0  0
   11.6454    5.5857  -14.5237 C   0  0  0  0  0  0  0  0  0  0  0  0
   11.9731    6.8371  -14.0356 O   0  0  0  0  0  0  0  0  0  0  0  0
   12.8841    7.6396  -14.7723 C   0  0  0  0  0  0  0  0  0  0  0  0
   10.1964    6.5001  -12.0261 N   0  0  0  0  0  0  0  0  0  0  0  0
   10.1181    7.2830   -7.6964 C   0  0  2  0  0  0  0  0  0  0  0  0
    8.6238    7.1239   -7.3725 C   0  0  0  0  0  0  0  0  0  0  0  0
   10.7740    7.8738   -6.4494 C   0  0  0  0  0  0  0  0  0  0  0  0
   10.7796    9.2696   -6.2273 C   0  0  0  0  0  0  0  0  0  0  0  0
   11.2964    9.7981   -5.0300 C   0  0  0  0  0  0  0  0  0  0  0  0
   11.8126    8.9401   -4.0406 C   0  0  0  0  0  0  0  0  0  0  0  0
   11.8015    7.5473   -4.2478 C   0  0  0  0  0  0  0  0  0  0  0  0
   11.2859    7.0178   -5.4489 C   0  0  0  0  0  0  0  0  0  0  0  0
   13.2984    8.6401  -10.7768 H   0  0  0  0  0  0  0  0  0  0  0  0
   11.7106    8.5409  -11.4469 H   0  0  0  0  0  0  0  0  0  0  0  0
   12.0859    9.8767  -10.3822 H   0  0  0  0  0  0  0  0  0  0  0  0
   12.4965    8.2789   -8.4877 H   0  0  0  0  0  0  0  0  0  0  0  0
   12.0860    6.9717   -9.5619 H   0  0  0  0  0  0  0  0  0  0  0  0
    8.4861    8.1344   -9.7032 H   0  0  0  0  0  0  0  0  0  0  0  0
    9.6225    8.7705  -10.7709 H   0  0  0  0  0  0  0  0  0  0  0  0
    8.2247    5.2067   -9.8044 H   0  0  0  0  0  0  0  0  0  0  0  0
    8.8842    3.5580  -11.8382 H   0  0  0  0  0  0  0  0  0  0  0  0
    9.7196    2.8584  -13.7283 H   0  0  0  0  0  0  0  0  0  0  0  0
    9.0649    2.4330  -17.6825 H   0  0  0  0  0  0  0  0  0  0  0  0
    8.6736    0.7278  -17.4767 H   0  0  0  0  0  0  0  0  0  0  0  0
    6.8220    2.1230  -16.5326 H   0  0  0  0  0  0  0  0  0  0  0  0
    7.6094    1.2182  -15.2436 H   0  0  0  0  0  0  0  0  0  0  0  0
    7.9496    2.9345  -15.4550 H   0  0  0  0  0  0  0  0  0  0  0  0
   12.2961    3.4099  -17.1072 H   0  0  0  0  0  0  0  0  0  0  0  0
   12.9054    5.6363  -16.3146 H   0  0  0  0  0  0  0  0  0  0  0  0
   13.0648    8.5686  -14.2309 H   0  0  0  0  0  0  0  0  0  0  0  0
   13.8437    7.1381  -14.8982 H   0  0  0  0  0  0  0  0  0  0  0  0
   12.4828    7.9005  -15.7533 H   0  0  0  0  0  0  0  0  0  0  0  0
   10.7499    7.2153  -12.4789 H   0  0  0  0  0  0  0  0  0  0  0  0
   10.5197    6.2798   -7.8553 H   0  0  0  0  0  0  0  0  0  0  0  0
    8.4866    6.5570   -6.4514 H   0  0  0  0  0  0  0  0  0  0  0  0
    8.1341    8.0882   -7.2329 H   0  0  0  0  0  0  0  0  0  0  0  0
    8.0865    6.5721   -8.1388 H   0  0  0  0  0  0  0  0  0  0  0  0
   10.3661    9.9454   -6.9586 H   0  0  0  0  0  0  0  0  0  0  0  0
   11.2860   10.8666   -4.8694 H   0  0  0  0  0  0  0  0  0  0  0  0
   12.2056    9.3473   -3.1193 H   0  0  0  0  0  0  0  0  0  0  0  0
   12.1858    6.8836   -3.4864 H   0  0  0  0  0  0  0  0  0  0  0  0
   11.2684    5.9465   -5.5865 H   0  0  0  0  0  0  0  0  0  0  0  0
   10.2866    9.0428   -8.6348 H   0  0  0  0  0  0  0  0  0  0  0  0
  2  1  1  0
  3  2  1  0
  4  3  1  0
  5  4  1  0
  6  5  2  0
  7  6  1  0
  8  7  2  0
  9  8  1  0
 10  9  1  0
 11 10  2  0
 12 11  1  0
 13 12  2  0
 14 12  2  0
 15 12  1  0
 16 15  1  0
 17 11  1  0
 18 17  2  0
 19  9  2  0
 19 18  1  0
 20 19  1  0
 21 20  1  0
 22  5  1  0
 22  8  1  0
 23  3  1  0
 24 23  1  0
 25 23  1  0
 26 25  2  0
 27 26  1  0
 28 27  2  0
 29 28  1  0
 30 25  1  0
 30 29  2  0
 31  1  1  0
 32  1  1  0
 33  1  1  0
 34  2  1  0
 35  2  1  0
 36  4  1  0
 37  4  1  0
 38  6  1  0
 39  7  1  0
 40 10  1  0
 41 15  1  0
 42 15  1  0
 43 16  1  0
 44 16  1  0
 45 16  1  0
 46 17  1  0
 47 18  1  0
 48 21  1  0
 49 21  1  0
 50 21  1  0
 51 22  1  0
 23 52  1  6
 53 24  1  0
 54 24  1  0
 55 24  1  0
 56 26  1  0
 57 27  1  0
 58 28  1  0
 59 29  1  0
 60 30  1  0
  3 61  1  1
M  CHG  1   3   1
M  END
>  <b_m_subgroup_collapsed>  (1033) 
0

>  <r_i_docking_score>  (1033) 
-6.9115862621326096

>  <s_m_subgroup_title>  (1033) 
glide-dock_SP_D22_pv

>  <s_m_subgroupid>  (1033) 
glide-dock_SP_D22_pv

>  <Molecule ChEMBL ID>  (1033) 
CHEMBL109532

>  <Standard Type>  (1033) 
Ki

>  <Standard Value>  (1033) 
7.943

>  <label>  (1033) 
1

$$$$
CHEMBL102490
     RDKit          3D

 39 40  0  0  1  0  0  0  0  0999 V2000
   10.5958    1.1058  -14.7566 C   0  0  0  0  0  0  0  0  0  0  0  0
    9.3353    0.9632  -16.0749 S   0  0  0  0  0  0  0  0  0  0  0  0
    9.7020   -0.2567  -16.8105 O   0  0  0  0  0  0  0  0  0  0  0  0
    9.3828    2.2332  -16.8169 O   0  0  0  0  0  0  0  0  0  0  0  0
    7.9726    0.7819  -15.2075 N   0  0  0  0  0  0  0  0  0  0  0  0
    7.3133    1.6947  -14.4628 C   0  0  0  0  0  0  0  0  0  0  0  0
    7.7926    3.0123  -14.2495 C   0  0  0  0  0  0  0  0  0  0  0  0
    7.1137    3.9481  -13.4467 C   0  0  0  0  0  0  0  0  0  0  0  0
    7.6849    5.1986  -13.3328 O   0  0  0  0  0  0  0  0  0  0  0  0
    7.5051    5.9190  -12.1199 C   0  0  0  0  0  0  0  0  0  0  0  0
    8.5360    5.4430  -11.0832 C   0  0  0  0  0  0  0  0  0  0  0  0
    8.0860    5.7723   -9.7189 N   0  0  0  0  0  0  0  0  0  0  0  0
    9.0895    5.6323   -8.6476 C   0  0  0  0  0  0  0  0  0  0  0  0
    9.8864    6.8780   -8.4359 C   0  0  0  0  0  0  0  0  0  0  0  0
   10.9080    7.3728   -9.2063 C   0  0  0  0  0  0  0  0  0  0  0  0
   11.4831    8.5652   -8.6794 C   0  0  0  0  0  0  0  0  0  0  0  0
   10.8872    8.9720   -7.5153 C   0  0  0  0  0  0  0  0  0  0  0  0
    9.5960    7.9000   -7.0491 S   0  0  0  0  0  0  0  0  0  0  0  0
    5.8943    3.5660  -12.8418 C   0  0  0  0  0  0  0  0  0  0  0  0
    5.3904    2.2708  -13.0468 C   0  0  0  0  0  0  0  0  0  0  0  0
    6.0864    1.3448  -13.8466 C   0  0  0  0  0  0  0  0  0  0  0  0
    5.3955   -0.2276  -14.0549 Cl  0  0  0  0  0  0  0  0  0  0  0  0
   11.5452    1.3694  -15.2185 H   0  0  0  0  0  0  0  0  0  0  0  0
   10.3087    1.8722  -14.0404 H   0  0  0  0  0  0  0  0  0  0  0  0
   10.6727    0.1488  -14.2467 H   0  0  0  0  0  0  0  0  0  0  0  0
    8.7119    3.3434  -14.7074 H   0  0  0  0  0  0  0  0  0  0  0  0
    6.4888    5.8597  -11.7366 H   0  0  0  0  0  0  0  0  0  0  0  0
    7.6674    6.9775  -12.3256 H   0  0  0  0  0  0  0  0  0  0  0  0
    9.5040    5.8944  -11.2984 H   0  0  0  0  0  0  0  0  0  0  0  0
    8.6690    4.3619  -11.1393 H   0  0  0  0  0  0  0  0  0  0  0  0
    7.3298    5.1302   -9.5093 H   0  0  0  0  0  0  0  0  0  0  0  0
    9.7445    4.7829   -8.8474 H   0  0  0  0  0  0  0  0  0  0  0  0
    8.5514    5.3933   -7.7298 H   0  0  0  0  0  0  0  0  0  0  0  0
   11.2751    6.9200  -10.1148 H   0  0  0  0  0  0  0  0  0  0  0  0
   12.3061    9.0695   -9.1654 H   0  0  0  0  0  0  0  0  0  0  0  0
   11.1246    9.8313   -6.9058 H   0  0  0  0  0  0  0  0  0  0  0  0
    5.3094    4.2409  -12.2382 H   0  0  0  0  0  0  0  0  0  0  0  0
    4.4548    1.9858  -12.5938 H   0  0  0  0  0  0  0  0  0  0  0  0
    7.6647    6.7054   -9.7097 H   0  0  0  0  0  0  0  0  0  0  0  0
  2  1  1  0
  3  2  2  0
  4  2  2  0
  5  2  1  0
  6  5  1  0
  7  6  1  0
  8  7  2  0
  9  8  1  0
 10  9  1  0
 11 10  1  0
 12 11  1  0
 13 12  1  0
 14 13  1  0
 15 14  2  0
 16 15  1  0
 17 16  2  0
 18 14  1  0
 18 17  1  0
 19  8  1  0
 20 19  2  0
 21  6  2  0
 21 20  1  0
 22 21  1  0
 23  1  1  0
 24  1  1  0
 25  1  1  0
 26  7  1  0
 27 10  1  0
 28 10  1  0
 29 11  1  0
 30 11  1  0
 31 12  1  0
 32 13  1  0
 33 13  1  0
 34 15  1  0
 35 16  1  0
 36 17  1  0
 37 19  1  0
 38 20  1  0
 39 12  1  0
M  CHG  2   5  -1  12   1
M  END
>  <b_m_subgroup_collapsed>  (1034) 
0

>  <r_i_docking_score>  (1034) 
-6.9104643606383096

>  <s_m_subgroup_title>  (1034) 
glide-dock_SP_D22_pv

>  <s_m_subgroupid>  (1034) 
glide-dock_SP_D22_pv

>  <Molecule ChEMBL ID>  (1034) 
CHEMBL102490

>  <Standard Type>  (1034) 
Ki

>  <Standard Value>  (1034) 
9.0

>  <label>  (1034) 
1

$$$$
CHEMBL562464
     RDKit          3D

 58 62  0  0  1  0  0  0  0  0999 V2000
   10.5120    7.9925   -9.3041 O   0  0  0  0  0  0  0  0  0  0  0  0
    9.7975    7.3536   -8.5304 C   0  0  0  0  0  0  0  0  0  0  0  0
    8.8925    6.4322   -8.8977 N   0  0  0  0  0  0  0  0  0  0  0  0
    8.5105    6.0591  -10.2467 C   0  0  0  0  0  0  0  0  0  0  0  0
    9.5817    5.1428  -10.8182 C   0  0  0  0  0  0  0  0  0  0  0  0
    9.3142    4.7204  -12.2067 N   0  0  2  0  0  0  0  0  0  0  0  0
   10.0144    3.4926  -12.6262 C   0  0  0  0  0  0  0  0  0  0  0  0
   10.2063    3.2741  -14.1508 C   0  0  2  0  0  0  0  0  0  0  0  0
   11.0270    4.4339  -14.7458 C   0  0  0  0  0  0  0  0  0  0  0  0
   10.8059    5.7472  -13.9829 C   0  0  0  0  0  0  0  0  0  0  0  0
    9.4624    5.7978  -13.2054 C   0  0  1  0  0  0  0  0  0  0  0  0
    8.2166    5.7612  -14.0844 C   0  0  0  0  0  0  0  0  0  0  0  0
    7.2914    4.5661  -13.8366 C   0  0  0  0  0  0  0  0  0  0  0  0
    6.1253    4.7804  -13.0862 C   0  0  0  0  0  0  0  0  0  0  0  0
    5.2863    3.7024  -12.7977 C   0  0  0  0  0  0  0  0  0  0  0  0
    5.5875    2.3995  -13.2227 C   0  0  0  0  0  0  0  0  0  0  0  0
    6.7568    2.1758  -13.9638 C   0  0  0  0  0  0  0  0  0  0  0  0
    7.6261    3.2490  -14.2468 C   0  0  0  0  0  0  0  0  0  0  0  0
    8.9271    2.9605  -14.9701 C   0  0  0  0  0  0  0  0  0  0  0  0
    8.3481    5.7149   -7.7778 C   0  0  0  0  0  0  0  0  0  0  0  0
    8.6900    6.6595   -6.6471 C   0  0  0  0  0  0  0  0  0  0  0  0
    9.7920    7.4280   -7.1859 N   0  0  0  0  0  0  0  0  0  0  0  0
   10.7512    8.0548   -6.3455 C   0  0  0  0  0  0  0  0  0  0  0  0
   11.2710    9.3220   -6.6780 C   0  0  0  0  0  0  0  0  0  0  0  0
   12.1453    9.9789   -5.7987 C   0  0  0  0  0  0  0  0  0  0  0  0
   12.5156    9.3724   -4.5822 C   0  0  0  0  0  0  0  0  0  0  0  0
   12.0219    8.1009   -4.2486 C   0  0  0  0  0  0  0  0  0  0  0  0
   12.4781    7.3536   -2.7635 Cl  0  0  0  0  0  0  0  0  0  0  0  0
   11.1537    7.4391   -5.1348 C   0  0  0  0  0  0  0  0  0  0  0  0
    7.5341    5.5781  -10.2528 H   0  0  0  0  0  0  0  0  0  0  0  0
    8.4234    6.9726  -10.8333 H   0  0  0  0  0  0  0  0  0  0  0  0
   10.4861    5.7265  -10.8062 H   0  0  0  0  0  0  0  0  0  0  0  0
    9.7123    4.2715  -10.1741 H   0  0  0  0  0  0  0  0  0  0  0  0
   10.9538    3.7724  -12.2469 H   0  0  0  0  0  0  0  0  0  0  0  0
    9.6860    2.6057  -12.1080 H   0  0  0  0  0  0  0  0  0  0  0  0
   10.8385    2.3909  -14.2588 H   0  0  0  0  0  0  0  0  0  0  0  0
   12.0896    4.1892  -14.7052 H   0  0  0  0  0  0  0  0  0  0  0  0
   10.8085    4.5703  -15.8052 H   0  0  0  0  0  0  0  0  0  0  0  0
   10.8983    6.5721  -14.6861 H   0  0  0  0  0  0  0  0  0  0  0  0
   11.6218    5.8861  -13.2715 H   0  0  0  0  0  0  0  0  0  0  0  0
    9.4630    6.7615  -12.6962 H   0  0  0  0  0  0  0  0  0  0  0  0
    8.4857    5.7722  -15.1367 H   0  0  0  0  0  0  0  0  0  0  0  0
    7.6862    6.6839  -13.8468 H   0  0  0  0  0  0  0  0  0  0  0  0
    5.8640    5.7684  -12.7317 H   0  0  0  0  0  0  0  0  0  0  0  0
    4.4074    3.9097  -12.2469 H   0  0  0  0  0  0  0  0  0  0  0  0
    4.9222    1.5809  -12.9893 H   0  0  0  0  0  0  0  0  0  0  0  0
    6.9956    1.1718  -14.2842 H   0  0  0  0  0  0  0  0  0  0  0  0
    8.9135    3.4816  -15.9273 H   0  0  0  0  0  0  0  0  0  0  0  0
    8.9442    1.9025  -15.2360 H   0  0  0  0  0  0  0  0  0  0  0  0
    7.2861    5.5104   -7.8469 H   0  0  0  0  0  0  0  0  0  0  0  0
    8.8827    4.7692   -7.7134 H   0  0  0  0  0  0  0  0  0  0  0  0
    8.8869    6.1720   -5.7021 H   0  0  0  0  0  0  0  0  0  0  0  0
    7.8659    7.3577   -6.5010 H   0  0  0  0  0  0  0  0  0  0  0  0
   10.9848    9.8024   -7.5995 H   0  0  0  0  0  0  0  0  0  0  0  0
   12.5317   10.9524   -6.0616 H   0  0  0  0  0  0  0  0  0  0  0  0
   13.1919    9.8752   -3.9075 H   0  0  0  0  0  0  0  0  0  0  0  0
   10.7993    6.4573   -4.8594 H   0  0  0  0  0  0  0  0  0  0  0  0
    8.3299    4.4825  -12.2359 H   0  0  0  0  0  0  0  0  0  0  0  0
  2  1  2  0
  3  2  1  0
  4  3  1  0
  5  4  1  0
  6  5  1  0
  7  6  1  0
  8  7  1  0
  9  8  1  0
 10  9  1  0
 11  6  1  0
 11 10  1  0
 12 11  1  0
 13 12  1  0
 14 13  2  0
 15 14  1  0
 16 15  2  0
 17 16  1  0
 18 13  1  0
 18 17  2  0
 19  8  1  0
 19 18  1  0
 20  3  1  0
 21 20  1  0
 22  2  1  0
 22 21  1  0
 23 22  1  0
 24 23  2  0
 25 24  1  0
 26 25  2  0
 27 26  1  0
 28 27  1  0
 29 23  1  0
 29 27  2  0
 30  4  1  0
 31  4  1  0
 32  5  1  0
 33  5  1  0
 34  7  1  0
 35  7  1  0
  8 36  1  1
 37  9  1  0
 38  9  1  0
 39 10  1  0
 40 10  1  0
 11 41  1  1
 42 12  1  0
 43 12  1  0
 44 14  1  0
 45 15  1  0
 46 16  1  0
 47 17  1  0
 48 19  1  0
 49 19  1  0
 50 20  1  0
 51 20  1  0
 52 21  1  0
 53 21  1  0
 54 24  1  0
 55 25  1  0
 56 26  1  0
 57 29  1  0
  6 58  1  1
M  CHG  1   6   1
M  END
>  <b_m_subgroup_collapsed>  (1035) 
0

>  <r_i_docking_score>  (1035) 
-6.9104231840321697

>  <s_m_subgroup_title>  (1035) 
glide-dock_SP_D22_pv

>  <s_m_subgroupid>  (1035) 
glide-dock_SP_D22_pv

>  <Molecule ChEMBL ID>  (1035) 
CHEMBL562464

>  <Standard Type>  (1035) 
Ki

>  <Standard Value>  (1035) 
25.12

>  <label>  (1035) 
1

$$$$
CHEMBL593395
     RDKit          3D

 40 43  0  0  1  0  0  0  0  0999 V2000
   13.6084    5.5234  -15.9860 C   0  0  0  0  0  0  0  0  0  0  0  0
   12.3382    4.9424  -15.7338 O   0  0  0  0  0  0  0  0  0  0  0  0
   11.6183    5.4063  -14.6567 C   0  0  0  0  0  0  0  0  0  0  0  0
   12.0836    6.3885  -13.7505 C   0  0  0  0  0  0  0  0  0  0  0  0
   11.2848    6.7945  -12.6654 C   0  0  0  0  0  0  0  0  0  0  0  0
    9.9965    6.2413  -12.4618 C   0  0  0  0  0  0  0  0  0  0  0  0
    9.5275    5.2674  -13.3839 C   0  0  0  0  0  0  0  0  0  0  0  0
   10.3392    4.8556  -14.4590 C   0  0  0  0  0  0  0  0  0  0  0  0
    8.1669    4.6142  -13.2183 C   0  0  0  0  0  0  0  0  0  0  0  0
    7.2583    5.3697  -12.2430 C   0  0  0  0  0  0  0  0  0  0  0  0
    7.9924    5.7725  -11.0260 N   0  0  1  0  0  0  0  0  0  0  0  0
    8.4670    4.6425  -10.1954 C   0  0  0  0  0  0  0  0  0  0  0  0
    8.8670    5.1347   -8.8062 C   0  0  0  0  0  0  0  0  0  0  0  0
    9.7381    6.3709   -8.8625 C   0  0  0  0  0  0  0  0  0  0  0  0
   10.4227    6.7771   -7.7007 C   0  0  0  0  0  0  0  0  0  0  0  0
   11.1394    7.9877   -7.6910 C   0  0  0  0  0  0  0  0  0  0  0  0
   11.1439    8.8078   -8.8338 C   0  0  0  0  0  0  0  0  0  0  0  0
   10.4564    8.4063   -9.9915 C   0  0  0  0  0  0  0  0  0  0  0  0
    9.7866    7.1665  -10.0359 C   0  0  0  0  0  0  0  0  0  0  0  0
    9.0772    6.7412  -11.3267 C   0  0  1  0  0  0  0  0  0  0  0  0
   14.0507    5.0504  -16.8634 H   0  0  0  0  0  0  0  0  0  0  0  0
   14.2894    5.3723  -15.1488 H   0  0  0  0  0  0  0  0  0  0  0  0
   13.5203    6.5916  -16.1895 H   0  0  0  0  0  0  0  0  0  0  0  0
   13.0543    6.8475  -13.8610 H   0  0  0  0  0  0  0  0  0  0  0  0
   11.6946    7.5442  -12.0063 H   0  0  0  0  0  0  0  0  0  0  0  0
    9.9749    4.1084  -15.1488 H   0  0  0  0  0  0  0  0  0  0  0  0
    7.6730    4.5443  -14.1862 H   0  0  0  0  0  0  0  0  0  0  0  0
    8.3246    3.5926  -12.8775 H   0  0  0  0  0  0  0  0  0  0  0  0
    6.8722    6.2729  -12.7170 H   0  0  0  0  0  0  0  0  0  0  0  0
    6.3870    4.7701  -11.9730 H   0  0  0  0  0  0  0  0  0  0  0  0
    7.6844    3.8914  -10.1034 H   0  0  0  0  0  0  0  0  0  0  0  0
    9.3272    4.1723  -10.6743 H   0  0  0  0  0  0  0  0  0  0  0  0
    7.9757    5.3825   -8.2335 H   0  0  0  0  0  0  0  0  0  0  0  0
    9.3747    4.3379   -8.2674 H   0  0  0  0  0  0  0  0  0  0  0  0
   10.3792    6.1726   -6.8068 H   0  0  0  0  0  0  0  0  0  0  0  0
   11.6657    8.2970   -6.7997 H   0  0  0  0  0  0  0  0  0  0  0  0
   11.6710    9.7498   -8.8311 H   0  0  0  0  0  0  0  0  0  0  0  0
   10.4579    9.0390  -10.8661 H   0  0  0  0  0  0  0  0  0  0  0  0
    8.5883    7.6365  -11.7152 H   0  0  0  0  0  0  0  0  0  0  0  0
    7.3319    6.3194  -10.4734 H   0  0  0  0  0  0  0  0  0  0  0  0
  2  1  1  0
  3  2  1  0
  4  3  1  0
  5  4  2  0
  6  5  1  0
  7  6  2  0
  8  3  2  0
  8  7  1  0
  9  7  1  0
 10  9  1  0
 11 10  1  0
 12 11  1  0
 13 12  1  0
 14 13  1  0
 15 14  2  0
 16 15  1  0
 17 16  2  0
 18 17  1  0
 19 14  1  0
 19 18  2  0
 20  6  1  0
 20 11  1  0
 20 19  1  0
 21  1  1  0
 22  1  1  0
 23  1  1  0
 24  4  1  0
 25  5  1  0
 26  8  1  0
 27  9  1  0
 28  9  1  0
 29 10  1  0
 30 10  1  0
 31 12  1  0
 32 12  1  0
 33 13  1  0
 34 13  1  0
 35 15  1  0
 36 16  1  0
 37 17  1  0
 38 18  1  0
 20 39  1  6
 11 40  1  1
M  CHG  1  11   1
M  END
>  <b_m_subgroup_collapsed>  (1036) 
0

>  <r_i_docking_score>  (1036) 
-6.9053953126755898

>  <s_m_subgroup_title>  (1036) 
glide-dock_SP_D22_pv

>  <s_m_subgroupid>  (1036) 
glide-dock_SP_D22_pv

>  <Molecule ChEMBL ID>  (1036) 
CHEMBL593395

>  <Standard Type>  (1036) 
Ki

>  <Standard Value>  (1036) 
10000.0

>  <label>  (1036) 
0

$$$$
CHEMBL3623630
     RDKit          3D

120125  0  0  1  0  0  0  0  0999 V2000
    3.4460   -1.6411  -18.4028 C   0  0  0  0  0  0  0  0  0  0  0  0
    3.6652   -1.4296  -17.0138 O   0  0  0  0  0  0  0  0  0  0  0  0
    4.8483   -0.8430  -16.6111 C   0  0  0  0  0  0  0  0  0  0  0  0
    5.8584   -0.4592  -17.5287 C   0  0  0  0  0  0  0  0  0  0  0  0
    7.0813    0.0649  -17.0768 C   0  0  0  0  0  0  0  0  0  0  0  0
    7.3202    0.2321  -15.6991 C   0  0  0  0  0  0  0  0  0  0  0  0
    8.6405    0.7958  -15.2063 C   0  0  0  0  0  0  0  0  0  0  0  0
    9.0811    2.0232  -16.0236 C   0  0  0  0  0  0  0  0  0  0  0  0
   10.1208    2.9379  -15.3345 C   0  0  1  0  0  0  0  0  0  0  0  0
   10.9140    3.5653  -16.3469 O   0  0  0  0  0  0  0  0  0  0  0  0
   10.4036    4.4734  -17.2110 C   0  0  0  0  0  0  0  0  0  0  0  0
    9.2861    4.9718  -17.1420 O   0  0  0  0  0  0  0  0  0  0  0  0
   11.4216    4.7970  -18.3165 C   0  0  2  0  0  0  0  0  0  0  0  0
   11.4089    6.2735  -18.7886 C   0  0  0  0  0  0  0  0  0  0  0  0
   10.2066    6.5979  -19.7000 C   0  0  0  0  0  0  0  0  0  0  0  0
   10.0542    5.5577  -20.8241 C   0  0  0  0  0  0  0  0  0  0  0  0
   10.0775    4.1209  -20.2674 C   0  0  0  0  0  0  0  0  0  0  0  0
   11.3264    3.9220  -19.5053 N   0  0  0  0  0  0  0  0  0  0  0  0
   12.3535    3.1981  -20.0432 C   0  0  0  0  0  0  0  0  0  0  0  0
   12.2353    2.6382  -21.1344 O   0  0  0  0  0  0  0  0  0  0  0  0
   13.7097    3.0548  -19.2903 C   0  0  2  0  0  0  0  0  0  0  0  0
   14.4268    4.4026  -19.2145 C   0  0  0  0  0  0  0  0  0  0  0  0
   14.7292    5.1615  -20.3654 C   0  0  0  0  0  0  0  0  0  0  0  0
   15.1979    6.4979  -20.2466 C   0  0  0  0  0  0  0  0  0  0  0  0
   15.5312    7.2903  -21.3236 O   0  0  0  0  0  0  0  0  0  0  0  0
   15.4324    6.7327  -22.6271 C   0  0  0  0  0  0  0  0  0  0  0  0
   15.2669    7.0858  -18.9636 C   0  0  0  0  0  0  0  0  0  0  0  0
   15.6131    8.4095  -18.8509 O   0  0  0  0  0  0  0  0  0  0  0  0
   14.4974    9.2777  -18.7115 C   0  0  0  0  0  0  0  0  0  0  0  0
   14.9505    6.3332  -17.8104 C   0  0  0  0  0  0  0  0  0  0  0  0
   14.8860    6.9715  -16.5973 O   0  0  0  0  0  0  0  0  0  0  0  0
   14.0195    6.4195  -15.6072 C   0  0  0  0  0  0  0  0  0  0  0  0
   14.6487    4.9662  -17.9434 C   0  0  0  0  0  0  0  0  0  0  0  0
   14.6438    1.8762  -19.7190 C   0  0  0  0  0  0  0  0  0  0  0  0
   13.9734    0.4901  -19.5465 C   0  0  0  0  0  0  0  0  0  0  0  0
   14.9620   -0.6569  -19.8075 C   0  0  0  0  0  0  0  0  0  0  0  0
   15.6039   -0.5453  -21.1964 C   0  0  0  0  0  0  0  0  0  0  0  0
   16.2853    0.8202  -21.3724 C   0  0  0  0  0  0  0  0  0  0  0  0
   15.3026    1.9814  -21.1183 C   0  0  0  0  0  0  0  0  0  0  0  0
    9.5750    3.9048  -14.2675 C   0  0  0  0  0  0  0  0  0  0  0  0
    8.2592    3.7841  -13.7592 C   0  0  0  0  0  0  0  0  0  0  0  0
    7.8053    4.6322  -12.7341 C   0  0  0  0  0  0  0  0  0  0  0  0
    8.6535    5.6161  -12.2008 C   0  0  0  0  0  0  0  0  0  0  0  0
    9.9665    5.7708  -12.7024 C   0  0  0  0  0  0  0  0  0  0  0  0
   10.8379    6.7315  -12.2361 O   0  0  0  0  0  0  0  0  0  0  0  0
   10.8376    6.9725  -10.8306 C   0  0  0  0  0  0  0  0  0  0  0  0
   10.0317    8.2272  -10.4302 C   0  0  0  0  0  0  0  0  0  0  0  0
    9.9964    8.5350   -8.9968 N   0  0  0  0  0  0  0  0  0  0  0  0
    9.3782    7.4842   -8.1937 C   0  0  0  0  0  0  0  0  0  0  0  0
    9.2789    7.8775   -6.7122 C   0  0  0  0  0  0  0  0  0  0  0  0
   10.5774    8.2027   -6.2201 O   0  0  0  0  0  0  0  0  0  0  0  0
   11.1842    9.2708   -6.9422 C   0  0  0  0  0  0  0  0  0  0  0  0
   11.2894    8.9124   -8.4375 C   0  0  0  0  0  0  0  0  0  0  0  0
   10.4111    4.9134  -13.7336 C   0  0  0  0  0  0  0  0  0  0  0  0
    6.3163   -0.1331  -14.7797 C   0  0  0  0  0  0  0  0  0  0  0  0
    5.0799   -0.6522  -15.2228 C   0  0  0  0  0  0  0  0  0  0  0  0
    4.1923   -1.0282  -14.2450 O   0  0  0  0  0  0  0  0  0  0  0  0
    2.8860   -0.4739  -14.2964 C   0  0  0  0  0  0  0  0  0  0  0  0
    2.4862   -2.1284  -18.5599 H   0  0  0  0  0  0  0  0  0  0  0  0
    3.4236   -0.6966  -18.9484 H   0  0  0  0  0  0  0  0  0  0  0  0
    4.2092   -2.2897  -18.8344 H   0  0  0  0  0  0  0  0  0  0  0  0
    5.7318   -0.5829  -18.5919 H   0  0  0  0  0  0  0  0  0  0  0  0
    7.8369    0.3218  -17.8041 H   0  0  0  0  0  0  0  0  0  0  0  0
    9.4006    0.0159  -15.2642 H   0  0  0  0  0  0  0  0  0  0  0  0
    8.5534    1.0480  -14.1510 H   0  0  0  0  0  0  0  0  0  0  0  0
    8.2138    2.6178  -16.3104 H   0  0  0  0  0  0  0  0  0  0  0  0
    9.4985    1.6501  -16.9593 H   0  0  0  0  0  0  0  0  0  0  0  0
   10.8193    2.2865  -14.8073 H   0  0  0  0  0  0  0  0  0  0  0  0
   12.3590    4.6342  -17.8165 H   0  0  0  0  0  0  0  0  0  0  0  0
   11.4223    6.9514  -17.9358 H   0  0  0  0  0  0  0  0  0  0  0  0
   12.3228    6.4752  -19.3456 H   0  0  0  0  0  0  0  0  0  0  0  0
   10.3260    7.5935  -20.1308 H   0  0  0  0  0  0  0  0  0  0  0  0
    9.2883    6.6358  -19.1148 H   0  0  0  0  0  0  0  0  0  0  0  0
   10.8669    5.6777  -21.5447 H   0  0  0  0  0  0  0  0  0  0  0  0
    9.1263    5.7341  -21.3731 H   0  0  0  0  0  0  0  0  0  0  0  0
    9.9528    3.4089  -21.0836 H   0  0  0  0  0  0  0  0  0  0  0  0
    9.2103    3.9567  -19.6307 H   0  0  0  0  0  0  0  0  0  0  0  0
   13.4121    2.7988  -18.2728 H   0  0  0  0  0  0  0  0  0  0  0  0
   14.5597    4.7167  -21.3320 H   0  0  0  0  0  0  0  0  0  0  0  0
   15.7491    7.4716  -23.3620 H   0  0  0  0  0  0  0  0  0  0  0  0
   16.0730    5.8573  -22.7380 H   0  0  0  0  0  0  0  0  0  0  0  0
   14.4015    6.4607  -22.8553 H   0  0  0  0  0  0  0  0  0  0  0  0
   14.8322   10.3141  -18.7553 H   0  0  0  0  0  0  0  0  0  0  0  0
   13.7712    9.1273  -19.5126 H   0  0  0  0  0  0  0  0  0  0  0  0
   13.9934    9.1281  -17.7553 H   0  0  0  0  0  0  0  0  0  0  0  0
   13.8544    7.1426  -14.8112 H   0  0  0  0  0  0  0  0  0  0  0  0
   13.0370    6.1723  -16.0156 H   0  0  0  0  0  0  0  0  0  0  0  0
   14.4512    5.5245  -15.1540 H   0  0  0  0  0  0  0  0  0  0  0  0
   14.4339    4.3690  -17.0683 H   0  0  0  0  0  0  0  0  0  0  0  0
   15.4651    1.8927  -19.0064 H   0  0  0  0  0  0  0  0  0  0  0  0
   13.5663    0.3934  -18.5406 H   0  0  0  0  0  0  0  0  0  0  0  0
   13.1310    0.3861  -20.2291 H   0  0  0  0  0  0  0  0  0  0  0  0
   15.7438   -0.6573  -19.0472 H   0  0  0  0  0  0  0  0  0  0  0  0
   14.4402   -1.6124  -19.7148 H   0  0  0  0  0  0  0  0  0  0  0  0
   16.3302   -1.3464  -21.3314 H   0  0  0  0  0  0  0  0  0  0  0  0
   14.8441   -0.6828  -21.9639 H   0  0  0  0  0  0  0  0  0  0  0  0
   17.1280    0.8966  -20.6849 H   0  0  0  0  0  0  0  0  0  0  0  0
   16.7000    0.8976  -22.3761 H   0  0  0  0  0  0  0  0  0  0  0  0
   14.5447    1.9786  -21.9008 H   0  0  0  0  0  0  0  0  0  0  0  0
   15.8492    2.9156  -21.2153 H   0  0  0  0  0  0  0  0  0  0  0  0
    7.5734    3.0415  -14.1340 H   0  0  0  0  0  0  0  0  0  0  0  0
    6.8006    4.5276  -12.3494 H   0  0  0  0  0  0  0  0  0  0  0  0
    8.2716    6.2475  -11.4129 H   0  0  0  0  0  0  0  0  0  0  0  0
   10.4859    6.0887  -10.2958 H   0  0  0  0  0  0  0  0  0  0  0  0
   11.8790    7.0991  -10.5397 H   0  0  0  0  0  0  0  0  0  0  0  0
   10.4482    9.0774  -10.9664 H   0  0  0  0  0  0  0  0  0  0  0  0
    9.0047    8.1404  -10.7875 H   0  0  0  0  0  0  0  0  0  0  0  0
    8.3881    7.2529   -8.5862 H   0  0  0  0  0  0  0  0  0  0  0  0
    9.9617    6.5664   -8.2568 H   0  0  0  0  0  0  0  0  0  0  0  0
    8.5975    8.7187   -6.5782 H   0  0  0  0  0  0  0  0  0  0  0  0
    8.8860    7.0437   -6.1360 H   0  0  0  0  0  0  0  0  0  0  0  0
   10.5929   10.1734   -6.7992 H   0  0  0  0  0  0  0  0  0  0  0  0
   12.1745    9.4680   -6.5271 H   0  0  0  0  0  0  0  0  0  0  0  0
   12.0039    8.0955   -8.5497 H   0  0  0  0  0  0  0  0  0  0  0  0
   11.6845    9.7628   -8.9928 H   0  0  0  0  0  0  0  0  0  0  0  0
   11.4194    5.0217  -14.1060 H   0  0  0  0  0  0  0  0  0  0  0  0
    6.4932   -0.0242  -13.7204 H   0  0  0  0  0  0  0  0  0  0  0  0
    2.2690   -1.0269  -13.5913 H   0  0  0  0  0  0  0  0  0  0  0  0
    2.9003    0.5724  -13.9906 H   0  0  0  0  0  0  0  0  0  0  0  0
    2.4023   -0.5396  -15.2669 H   0  0  0  0  0  0  0  0  0  0  0  0
  2  1  1  0
  3  2  1  0
  4  3  1  0
  5  4  2  0
  6  5  1  0
  7  6  1  0
  8  7  1  0
  9  8  1  0
 10  9  1  0
 11 10  1  0
 12 11  2  0
 13 11  1  0
 14 13  1  0
 15 14  1  0
 16 15  1  0
 17 16  1  0
 18 13  1  0
 18 17  1  0
 19 18  1  0
 20 19  2  0
 21 19  1  0
 22 21  1  0
 23 22  1  0
 24 23  2  0
 25 24  1  0
 26 25  1  0
 27 24  1  0
 28 27  1  0
 29 28  1  0
 30 27  2  0
 31 30  1  0
 32 31  1  0
 33 22  2  0
 33 30  1  0
 34 21  1  0
 35 34  1  0
 36 35  1  0
 37 36  1  0
 38 37  1  0
 39 34  1  0
 39 38  1  0
 40  9  1  0
 41 40  2  0
 42 41  1  0
 43 42  2  0
 44 43  1  0
 45 44  1  0
 46 45  1  0
 47 46  1  0
 48 47  1  0
 49 48  1  0
 50 49  1  0
 51 50  1  0
 52 51  1  0
 53 48  1  0
 53 52  1  0
 54 40  1  0
 54 44  2  0
 55  6  2  0
 56  3  2  0
 56 55  1  0
 57 56  1  0
 58 57  1  0
 59  1  1  0
 60  1  1  0
 61  1  1  0
 62  4  1  0
 63  5  1  0
 64  7  1  0
 65  7  1  0
 66  8  1  0
 67  8  1  0
  9 68  1  1
 13 69  1  1
 70 14  1  0
 71 14  1  0
 72 15  1  0
 73 15  1  0
 74 16  1  0
 75 16  1  0
 76 17  1  0
 77 17  1  0
 21 78  1  1
 79 23  1  0
 80 26  1  0
 81 26  1  0
 82 26  1  0
 83 29  1  0
 84 29  1  0
 85 29  1  0
 86 32  1  0
 87 32  1  0
 88 32  1  0
 89 33  1  0
 90 34  1  0
 91 35  1  0
 92 35  1  0
 93 36  1  0
 94 36  1  0
 95 37  1  0
 96 37  1  0
 97 38  1  0
 98 38  1  0
 99 39  1  0
100 39  1  0
101 41  1  0
102 42  1  0
103 43  1  0
104 46  1  0
105 46  1  0
106 47  1  0
107 47  1  0
108 49  1  0
109 49  1  0
110 50  1  0
111 50  1  0
112 52  1  0
113 52  1  0
114 53  1  0
115 53  1  0
116 54  1  0
117 55  1  0
118 58  1  0
119 58  1  0
120 58  1  0
M  END
>  <b_m_subgroup_collapsed>  (1037) 
0

>  <r_i_docking_score>  (1037) 
-6.9038322230363596

>  <s_m_subgroup_title>  (1037) 
glide-dock_SP_D22_pv

>  <s_m_subgroupid>  (1037) 
glide-dock_SP_D22_pv

>  <Molecule ChEMBL ID>  (1037) 
CHEMBL3623630

>  <Standard Type>  (1037) 
Ki

>  <Standard Value>  (1037) 
10000.0

>  <label>  (1037) 
0

$$$$
CHEMBL3763200
     RDKit          3D

 56 59  0  0  1  0  0  0  0  0999 V2000
    9.5659   -0.2030  -15.3721 C   0  0  0  0  0  0  0  0  0  0  0  0
    8.8635    0.5780  -16.3790 N   0  0  0  0  0  0  0  0  0  0  0  0
    9.3643    1.2752  -17.4229 C   0  0  0  0  0  0  0  0  0  0  0  0
   11.0873    1.5185  -17.7353 S   0  0  0  0  0  0  0  0  0  0  0  0
   11.5653    2.5645  -16.3143 C   0  0  0  0  0  0  0  0  0  0  0  0
   10.5994    3.7259  -15.9981 C   0  0  0  0  0  0  0  0  0  0  0  0
   10.7899    4.2346  -14.5558 C   0  0  0  0  0  0  0  0  0  0  0  0
    9.6132    4.8390  -13.9235 N   0  0  0  0  0  0  0  0  0  0  0  0
    8.5579    3.8525  -13.6765 C   0  0  0  0  0  0  0  0  0  0  0  0
    7.3737    4.4303  -12.8833 C   0  0  0  0  0  0  0  0  0  0  0  0
    7.8506    4.9625  -11.6572 O   0  0  0  0  0  0  0  0  0  0  0  0
    8.8142    5.9951  -11.8416 C   0  0  1  0  0  0  0  0  0  0  0  0
    9.2911    6.5638  -10.5174 C   0  0  0  0  0  0  0  0  0  0  0  0
    9.8683    7.8497  -10.4799 C   0  0  0  0  0  0  0  0  0  0  0  0
   10.3334    8.3831   -9.2633 C   0  0  0  0  0  0  0  0  0  0  0  0
   10.2321    7.6323   -8.0739 C   0  0  0  0  0  0  0  0  0  0  0  0
   10.7197    8.2187   -6.7603 C   0  0  0  0  0  0  0  0  0  0  0  0
   11.0349    7.2633   -5.8843 F   0  0  0  0  0  0  0  0  0  0  0  0
   11.7965    8.9820   -6.9562 F   0  0  0  0  0  0  0  0  0  0  0  0
    9.7499    8.9683   -6.2469 F   0  0  0  0  0  0  0  0  0  0  0  0
    9.6526    6.3463   -8.1110 C   0  0  0  0  0  0  0  0  0  0  0  0
    9.1913    5.8100   -9.3280 C   0  0  0  0  0  0  0  0  0  0  0  0
   10.0014    5.4228  -12.6411 C   0  0  0  0  0  0  0  0  0  0  0  0
    8.4220    1.8203  -18.1974 N   0  0  0  0  0  0  0  0  0  0  0  0
    7.2277    1.4929  -17.6104 N   0  0  0  0  0  0  0  0  0  0  0  0
    7.5326    0.7756  -16.5232 C   0  0  0  0  0  0  0  0  0  0  0  0
    6.4909    0.3408  -15.5975 C   0  0  0  0  0  0  0  0  0  0  0  0
    5.4053   -0.4468  -16.0374 C   0  0  0  0  0  0  0  0  0  0  0  0
    4.3735   -0.7438  -15.1233 C   0  0  0  0  0  0  0  0  0  0  0  0
    4.3646   -0.2973  -13.8491 N   0  0  0  0  0  0  0  0  0  0  0  0
    5.4152    0.4426  -13.4318 C   0  0  0  0  0  0  0  0  0  0  0  0
    6.4988    0.7791  -14.2593 C   0  0  0  0  0  0  0  0  0  0  0  0
   10.5507    0.1986  -15.1657 H   0  0  0  0  0  0  0  0  0  0  0  0
    9.0091   -0.2272  -14.4397 H   0  0  0  0  0  0  0  0  0  0  0  0
    9.6929   -1.2175  -15.7371 H   0  0  0  0  0  0  0  0  0  0  0  0
   11.6758    1.9236  -15.4431 H   0  0  0  0  0  0  0  0  0  0  0  0
   12.5616    2.9614  -16.5067 H   0  0  0  0  0  0  0  0  0  0  0  0
   10.7452    4.5402  -16.7089 H   0  0  0  0  0  0  0  0  0  0  0  0
    9.5715    3.4178  -16.1365 H   0  0  0  0  0  0  0  0  0  0  0  0
   11.1317    3.4145  -13.9234 H   0  0  0  0  0  0  0  0  0  0  0  0
   11.6113    4.9535  -14.5648 H   0  0  0  0  0  0  0  0  0  0  0  0
    8.1668    3.4634  -14.6142 H   0  0  0  0  0  0  0  0  0  0  0  0
    8.9679    3.0014  -13.1302 H   0  0  0  0  0  0  0  0  0  0  0  0
    6.8598    5.2086  -13.4471 H   0  0  0  0  0  0  0  0  0  0  0  0
    6.6413    3.6519  -12.6734 H   0  0  0  0  0  0  0  0  0  0  0  0
    8.3459    6.8057  -12.4041 H   0  0  0  0  0  0  0  0  0  0  0  0
    9.9498    8.4333  -11.3862 H   0  0  0  0  0  0  0  0  0  0  0  0
   10.7653    9.3731   -9.2441 H   0  0  0  0  0  0  0  0  0  0  0  0
    9.5503    5.7713   -7.2024 H   0  0  0  0  0  0  0  0  0  0  0  0
    8.7482    4.8254   -9.3418 H   0  0  0  0  0  0  0  0  0  0  0  0
   10.4853    4.6596  -12.0308 H   0  0  0  0  0  0  0  0  0  0  0  0
   10.7393    6.2086  -12.8051 H   0  0  0  0  0  0  0  0  0  0  0  0
    5.3522   -0.7993  -17.0563 H   0  0  0  0  0  0  0  0  0  0  0  0
    3.5252   -1.3385  -15.4291 H   0  0  0  0  0  0  0  0  0  0  0  0
    5.3877    0.7802  -12.4049 H   0  0  0  0  0  0  0  0  0  0  0  0
    7.3041    1.3882  -13.8770 H   0  0  0  0  0  0  0  0  0  0  0  0
  2  1  1  0
  3  2  1  0
  4  3  1  0
  5  4  1  0
  6  5  1  0
  7  6  1  0
  8  7  1  0
  9  8  1  0
 10  9  1  0
 11 10  1  0
 12 11  1  0
 13 12  1  0
 14 13  1  0
 15 14  2  0
 16 15  1  0
 17 16  1  0
 18 17  1  0
 19 17  1  0
 20 17  1  0
 21 16  2  0
 22 13  2  0
 22 21  1  0
 23  8  1  0
 23 12  1  0
 24  3  2  0
 25 24  1  0
 26  2  1  0
 26 25  2  0
 27 26  1  0
 28 27  2  0
 29 28  1  0
 30 29  2  0
 31 30  1  0
 32 27  1  0
 32 31  2  0
 33  1  1  0
 34  1  1  0
 35  1  1  0
 36  5  1  0
 37  5  1  0
 38  6  1  0
 39  6  1  0
 40  7  1  0
 41  7  1  0
 42  9  1  0
 43  9  1  0
 44 10  1  0
 45 10  1  0
 12 46  1  6
 47 14  1  0
 48 15  1  0
 49 21  1  0
 50 22  1  0
 51 23  1  0
 52 23  1  0
 53 28  1  0
 54 29  1  0
 55 31  1  0
 56 32  1  0
M  END
>  <b_m_subgroup_collapsed>  (1038) 
0

>  <r_i_docking_score>  (1038) 
-6.90323022152685

>  <s_m_subgroup_title>  (1038) 
glide-dock_SP_D22_pv

>  <s_m_subgroupid>  (1038) 
glide-dock_SP_D22_pv

>  <Molecule ChEMBL ID>  (1038) 
CHEMBL3763200

>  <Standard Type>  (1038) 
Ki

>  <Standard Value>  (1038) 
11749.0

>  <label>  (1038) 
0

$$$$
CHEMBL218318
     RDKit          3D

 61 64  0  0  1  0  0  0  0  0999 V2000
   11.9330   10.8133   -6.2467 C   0  0  0  0  0  0  0  0  0  0  0  0
   11.0021   10.4646   -5.2354 O   0  0  0  0  0  0  0  0  0  0  0  0
   11.3495    9.3248   -4.5552 C   0  0  0  0  0  0  0  0  0  0  0  0
   11.7812    9.4625   -3.2212 C   0  0  0  0  0  0  0  0  0  0  0  0
   12.1601    8.3362   -2.4694 C   0  0  0  0  0  0  0  0  0  0  0  0
   12.1118    7.0584   -3.0518 C   0  0  0  0  0  0  0  0  0  0  0  0
   11.6860    6.9129   -4.3846 C   0  0  0  0  0  0  0  0  0  0  0  0
   11.2863    8.0330   -5.1461 C   0  0  0  0  0  0  0  0  0  0  0  0
   10.8030    7.8207   -6.4491 N   0  0  0  0  0  0  0  0  0  0  0  0
   11.6096    7.1337   -7.4427 C   0  0  0  0  0  0  0  0  0  0  0  0
   10.7189    6.1873   -8.2492 C   0  0  0  0  0  0  0  0  0  0  0  0
    9.5176    6.8499   -8.8031 N   0  0  0  0  0  0  0  0  0  0  0  0
    8.6649    5.8891   -9.5508 C   0  0  0  0  0  0  0  0  0  0  0  0
    9.0520    5.8096  -11.0351 C   0  0  0  0  0  0  0  0  0  0  0  0
    8.1584    4.8376  -11.8181 C   0  0  0  0  0  0  0  0  0  0  0  0
    8.6809    4.5526  -13.2334 C   0  0  0  0  0  0  0  0  0  0  0  0
    7.9042    3.4820  -13.8467 N   0  0  0  0  0  0  0  0  0  0  0  0
    8.4030    2.4884  -14.5975 C   0  0  0  0  0  0  0  0  0  0  0  0
    9.5796    2.4266  -14.9494 O   0  0  0  0  0  0  0  0  0  0  0  0
    7.4263    1.4869  -15.0640 C   0  0  0  0  0  0  0  0  0  0  0  0
    7.3691    0.8505  -16.2781 C   0  0  0  0  0  0  0  0  0  0  0  0
    6.2092   -0.0055  -16.3777 C   0  0  0  0  0  0  0  0  0  0  0  0
    5.7177   -0.7651  -17.4632 C   0  0  0  0  0  0  0  0  0  0  0  0
    4.5242   -1.5073  -17.3681 C   0  0  0  0  0  0  0  0  0  0  0  0
    4.0545   -2.2658  -18.5164 C   0  0  0  0  0  0  0  0  0  0  0  0
    3.6862   -2.8669  -19.4334 N   0  0  0  0  0  0  0  0  0  0  0  0
    3.7942   -1.5062  -16.1653 C   0  0  0  0  0  0  0  0  0  0  0  0
    4.2609   -0.7812  -15.0575 C   0  0  0  0  0  0  0  0  0  0  0  0
    5.4520   -0.0410  -15.1624 C   0  0  0  0  0  0  0  0  0  0  0  0
    6.1943    0.9719  -13.9348 S   0  0  0  0  0  0  0  0  0  0  0  0
    8.7660    7.6231   -7.7819 C   0  0  0  0  0  0  0  0  0  0  0  0
    9.6505    8.5460   -6.9489 C   0  0  0  0  0  0  0  0  0  0  0  0
   11.6861   11.7724   -6.6869 H   0  0  0  0  0  0  0  0  0  0  0  0
   12.9336   10.8888   -5.8469 H   0  0  0  0  0  0  0  0  0  0  0  0
   11.9768   10.0817   -7.0469 H   0  0  0  0  0  0  0  0  0  0  0  0
   11.8240   10.4427   -2.7688 H   0  0  0  0  0  0  0  0  0  0  0  0
   12.4827    8.4564   -1.4460 H   0  0  0  0  0  0  0  0  0  0  0  0
   12.3952    6.1884   -2.4779 H   0  0  0  0  0  0  0  0  0  0  0  0
   11.6321    5.9225   -4.8111 H   0  0  0  0  0  0  0  0  0  0  0  0
   12.0671    7.8744   -8.0998 H   0  0  0  0  0  0  0  0  0  0  0  0
   12.4217    6.5642   -6.9990 H   0  0  0  0  0  0  0  0  0  0  0  0
   11.2852    5.7725   -9.0734 H   0  0  0  0  0  0  0  0  0  0  0  0
   10.4042    5.3723   -7.6009 H   0  0  0  0  0  0  0  0  0  0  0  0
    8.7130    4.9010   -9.0903 H   0  0  0  0  0  0  0  0  0  0  0  0
    7.6241    6.1723   -9.4791 H   0  0  0  0  0  0  0  0  0  0  0  0
    8.9962    6.7996  -11.4911 H   0  0  0  0  0  0  0  0  0  0  0  0
   10.0860    5.4818  -11.1206 H   0  0  0  0  0  0  0  0  0  0  0  0
    8.0943    3.8974  -11.2719 H   0  0  0  0  0  0  0  0  0  0  0  0
    7.1394    5.2306  -11.8647 H   0  0  0  0  0  0  0  0  0  0  0  0
    8.6127    5.4477  -13.8542 H   0  0  0  0  0  0  0  0  0  0  0  0
    9.7372    4.2782  -13.1864 H   0  0  0  0  0  0  0  0  0  0  0  0
    6.9157    3.4558  -13.6438 H   0  0  0  0  0  0  0  0  0  0  0  0
    8.0702    1.0098  -17.0838 H   0  0  0  0  0  0  0  0  0  0  0  0
    6.2709   -0.7642  -18.3906 H   0  0  0  0  0  0  0  0  0  0  0  0
    2.8863   -2.0862  -16.0841 H   0  0  0  0  0  0  0  0  0  0  0  0
    3.6951   -0.7812  -14.1395 H   0  0  0  0  0  0  0  0  0  0  0  0
    8.0860    8.2822   -8.3032 H   0  0  0  0  0  0  0  0  0  0  0  0
    8.1955    6.9550   -7.1339 H   0  0  0  0  0  0  0  0  0  0  0  0
    9.0634    8.9728   -6.1398 H   0  0  0  0  0  0  0  0  0  0  0  0
    9.9832    9.3718   -7.5739 H   0  0  0  0  0  0  0  0  0  0  0  0
    9.8347    7.5376   -9.4699 H   0  0  0  0  0  0  0  0  0  0  0  0
  2  1  1  0
  3  2  1  0
  4  3  2  0
  5  4  1  0
  6  5  2  0
  7  6  1  0
  8  3  1  0
  8  7  2  0
  9  8  1  0
 10  9  1  0
 11 10  1  0
 12 11  1  0
 13 12  1  0
 14 13  1  0
 15 14  1  0
 16 15  1  0
 17 16  1  0
 18 17  1  0
 19 18  2  0
 20 18  1  0
 21 20  2  0
 22 21  1  0
 23 22  2  0
 24 23  1  0
 25 24  1  0
 26 25  3  0
 27 24  2  0
 28 27  1  0
 29 22  1  0
 29 28  2  0
 30 20  1  0
 30 29  1  0
 31 12  1  0
 32  9  1  0
 32 31  1  0
 33  1  1  0
 34  1  1  0
 35  1  1  0
 36  4  1  0
 37  5  1  0
 38  6  1  0
 39  7  1  0
 40 10  1  0
 41 10  1  0
 42 11  1  0
 43 11  1  0
 44 13  1  0
 45 13  1  0
 46 14  1  0
 47 14  1  0
 48 15  1  0
 49 15  1  0
 50 16  1  0
 51 16  1  0
 52 17  1  0
 53 21  1  0
 54 23  1  0
 55 27  1  0
 56 28  1  0
 57 31  1  0
 58 31  1  0
 59 32  1  0
 60 32  1  0
 61 12  1  0
M  CHG  1  12   1
M  END
>  <b_m_subgroup_collapsed>  (1039) 
0

>  <r_i_docking_score>  (1039) 
-6.9021289648202497

>  <s_m_subgroup_title>  (1039) 
glide-dock_SP_D22_pv

>  <s_m_subgroupid>  (1039) 
glide-dock_SP_D22_pv

>  <Molecule ChEMBL ID>  (1039) 
CHEMBL218318

>  <Standard Type>  (1039) 
Ki

>  <Standard Value>  (1039) 
67.61

>  <label>  (1039) 
1

$$$$
CHEMBL344677
     RDKit          3D

 60 63  0  0  1  0  0  0  0  0999 V2000
   11.8162   11.3621   -6.3391 C   0  0  0  0  0  0  0  0  0  0  0  0
   11.1105   10.1830   -6.6469 O   0  0  0  0  0  0  0  0  0  0  0  0
   11.2954    9.1060   -5.8194 C   0  0  0  0  0  0  0  0  0  0  0  0
   11.9040    9.2261   -4.5391 C   0  0  0  0  0  0  0  0  0  0  0  0
   12.0979    8.1061   -3.7172 C   0  0  0  0  0  0  0  0  0  0  0  0
   11.6860    6.8477   -4.1690 C   0  0  0  0  0  0  0  0  0  0  0  0
   11.0536    6.7341   -5.4198 C   0  0  0  0  0  0  0  0  0  0  0  0
   10.8400    7.8390   -6.2649 C   0  0  0  0  0  0  0  0  0  0  0  0
   10.2072    7.6243   -7.5157 N   0  0  0  0  0  0  0  0  0  0  0  0
    8.9897    6.8236   -7.5906 C   0  0  0  0  0  0  0  0  0  0  0  0
    9.0263    5.9192   -8.8383 C   0  0  0  0  0  0  0  0  0  0  0  0
    9.2859    6.6835  -10.0938 N   0  0  0  0  0  0  0  0  0  0  0  0
    9.4158    5.7942  -11.2879 C   0  0  0  0  0  0  0  0  0  0  0  0
    8.1738    5.7655  -12.1972 C   0  0  0  0  0  0  0  0  0  0  0  0
    6.9616    5.0977  -11.5413 C   0  0  0  0  0  0  0  0  0  0  0  0
    5.7757    4.8201  -12.4804 C   0  0  0  0  0  0  0  0  0  0  0  0
    6.0481    3.7253  -13.4071 N   0  0  0  0  0  0  0  0  0  0  0  0
    5.8046    2.4279  -13.1521 C   0  0  0  0  0  0  0  0  0  0  0  0
    5.2860    2.0325  -12.1139 O   0  0  0  0  0  0  0  0  0  0  0  0
    6.1975    1.4672  -14.2419 C   0  0  0  0  0  0  0  0  0  0  0  0
    7.3537    1.6734  -14.9706 C   0  0  0  0  0  0  0  0  0  0  0  0
    7.6946    0.8214  -16.0463 C   0  0  0  0  0  0  0  0  0  0  0  0
    6.8770   -0.2277  -16.3896 C   0  0  0  0  0  0  0  0  0  0  0  0
    5.7062   -0.4802  -15.6298 C   0  0  0  0  0  0  0  0  0  0  0  0
    4.6945   -1.3985  -15.6889 C   0  0  0  0  0  0  0  0  0  0  0  0
    3.8171   -1.0276  -14.6468 C   0  0  0  0  0  0  0  0  0  0  0  0
    4.2303   -0.0015  -13.9404 N   0  0  0  0  0  0  0  0  0  0  0  0
    5.4132    0.3780  -14.5455 N   0  0  0  0  0  0  0  0  0  0  0  0
   10.4688    7.5843   -9.9706 C   0  0  0  0  0  0  0  0  0  0  0  0
   10.4724    8.4424   -8.6930 C   0  0  0  0  0  0  0  0  0  0  0  0
   11.6860   12.1117   -7.1162 H   0  0  0  0  0  0  0  0  0  0  0  0
   11.4138   11.7723   -5.4243 H   0  0  0  0  0  0  0  0  0  0  0  0
   12.8845   11.1658   -6.2469 H   0  0  0  0  0  0  0  0  0  0  0  0
   12.2378   10.1723   -4.1489 H   0  0  0  0  0  0  0  0  0  0  0  0
   12.5665    8.2129   -2.7498 H   0  0  0  0  0  0  0  0  0  0  0  0
   11.8329    5.9726   -3.5528 H   0  0  0  0  0  0  0  0  0  0  0  0
   10.7339    5.7723   -5.7525 H   0  0  0  0  0  0  0  0  0  0  0  0
    8.1408    7.5055   -7.6439 H   0  0  0  0  0  0  0  0  0  0  0  0
    8.8291    6.2225   -6.6961 H   0  0  0  0  0  0  0  0  0  0  0  0
    8.0861    5.3755   -8.9203 H   0  0  0  0  0  0  0  0  0  0  0  0
    9.8097    5.1711   -8.7033 H   0  0  0  0  0  0  0  0  0  0  0  0
    9.6858    4.7798  -10.9884 H   0  0  0  0  0  0  0  0  0  0  0  0
   10.2462    6.1335  -11.9093 H   0  0  0  0  0  0  0  0  0  0  0  0
    8.4298    5.2174  -13.1044 H   0  0  0  0  0  0  0  0  0  0  0  0
    7.9144    6.7763  -12.5154 H   0  0  0  0  0  0  0  0  0  0  0  0
    6.6206    5.7723  -10.7620 H   0  0  0  0  0  0  0  0  0  0  0  0
    7.2584    4.1720  -11.0468 H   0  0  0  0  0  0  0  0  0  0  0  0
    5.5229    5.7168  -13.0469 H   0  0  0  0  0  0  0  0  0  0  0  0
    4.8976    4.5748  -11.8804 H   0  0  0  0  0  0  0  0  0  0  0  0
    6.4397    3.9646  -14.3048 H   0  0  0  0  0  0  0  0  0  0  0  0
    8.0144    2.4995  -14.7268 H   0  0  0  0  0  0  0  0  0  0  0  0
    8.6037    0.9984  -16.6128 H   0  0  0  0  0  0  0  0  0  0  0  0
    7.1240   -0.8863  -17.2154 H   0  0  0  0  0  0  0  0  0  0  0  0
    4.5664   -2.2182  -16.3824 H   0  0  0  0  0  0  0  0  0  0  0  0
    2.8860   -1.5055  -14.3838 H   0  0  0  0  0  0  0  0  0  0  0  0
   11.3725    6.9723   -9.9707 H   0  0  0  0  0  0  0  0  0  0  0  0
   10.5301    8.2337  -10.8451 H   0  0  0  0  0  0  0  0  0  0  0  0
    9.7148    9.2250   -8.7581 H   0  0  0  0  0  0  0  0  0  0  0  0
   11.4444    8.9308   -8.6186 H   0  0  0  0  0  0  0  0  0  0  0  0
    8.4618    7.2652  -10.2332 H   0  0  0  0  0  0  0  0  0  0  0  0
  2  1  1  0
  3  2  1  0
  4  3  2  0
  5  4  1  0
  6  5  2  0
  7  6  1  0
  8  3  1  0
  8  7  2  0
  9  8  1  0
 10  9  1  0
 11 10  1  0
 12 11  1  0
 13 12  1  0
 14 13  1  0
 15 14  1  0
 16 15  1  0
 17 16  1  0
 18 17  1  0
 19 18  2  0
 20 18  1  0
 21 20  2  0
 22 21  1  0
 23 22  2  0
 24 23  1  0
 25 24  2  0
 26 25  1  0
 27 26  2  0
 28 20  1  0
 28 24  1  0
 28 27  1  0
 29 12  1  0
 30  9  1  0
 30 29  1  0
 31  1  1  0
 32  1  1  0
 33  1  1  0
 34  4  1  0
 35  5  1  0
 36  6  1  0
 37  7  1  0
 38 10  1  0
 39 10  1  0
 40 11  1  0
 41 11  1  0
 42 13  1  0
 43 13  1  0
 44 14  1  0
 45 14  1  0
 46 15  1  0
 47 15  1  0
 48 16  1  0
 49 16  1  0
 50 17  1  0
 51 21  1  0
 52 22  1  0
 53 23  1  0
 54 25  1  0
 55 26  1  0
 56 29  1  0
 57 29  1  0
 58 30  1  0
 59 30  1  0
 60 12  1  0
M  CHG  1  12   1
M  END
>  <b_m_subgroup_collapsed>  (1040) 
0

>  <r_i_docking_score>  (1040) 
-6.9021142917885401

>  <s_m_subgroup_title>  (1040) 
glide-dock_SP_D22_pv

>  <s_m_subgroupid>  (1040) 
glide-dock_SP_D22_pv

>  <Molecule ChEMBL ID>  (1040) 
CHEMBL344677

>  <Standard Type>  (1040) 
Ki

>  <Standard Value>  (1040) 
34.0

>  <label>  (1040) 
1

$$$$
CHEMBL4090862
     RDKit          3D

 45 49  0  0  1  0  0  0  0  0999 V2000
    6.1470    3.5979  -13.3407 C   0  0  0  0  0  0  0  0  0  0  0  0
    7.5804    3.5372  -13.8468 C   0  0  0  0  0  0  0  0  0  0  0  0
    8.0425    2.4668  -14.6792 C   0  0  0  0  0  0  0  0  0  0  0  0
    7.1353    1.3106  -15.0674 C   0  0  0  0  0  0  0  0  0  0  0  0
    7.3231    0.1753  -14.2458 O   0  0  0  0  0  0  0  0  0  0  0  0
    9.3465    2.4000  -15.1666 O   0  0  0  0  0  0  0  0  0  0  0  0
   10.2249    3.3822  -14.7639 C   0  0  0  0  0  0  0  0  0  0  0  0
   11.5821    3.4716  -15.1424 C   0  0  0  0  0  0  0  0  0  0  0  0
   12.4041    4.5126  -14.6428 C   0  0  0  0  0  0  0  0  0  0  0  0
   11.8930    5.4675  -13.7322 C   0  0  0  0  0  0  0  0  0  0  0  0
   10.5371    5.4062  -13.3365 C   0  0  0  0  0  0  0  0  0  0  0  0
    9.8032    4.3932  -13.9055 C   0  0  0  0  0  0  0  0  0  0  0  0
    8.5181    4.5324  -13.4616 C   0  0  0  0  0  0  0  0  0  0  0  0
    8.3996    5.6410  -12.6588 C   0  0  0  0  0  0  0  0  0  0  0  0
    9.7302    6.1161  -12.5037 N   0  0  0  0  0  0  0  0  0  0  0  0
   10.1935    7.3997  -11.4178 S   0  0  0  0  0  0  0  0  0  0  0  0
   11.6484    7.5460  -11.5774 O   0  0  0  0  0  0  0  0  0  0  0  0
    9.2874    8.5130  -11.7423 O   0  0  0  0  0  0  0  0  0  0  0  0
    9.8541    6.8474   -9.7169 C   0  0  0  0  0  0  0  0  0  0  0  0
    8.9423    5.7841   -9.5237 C   0  0  0  0  0  0  0  0  0  0  0  0
    8.4862    5.4494   -8.2467 C   0  0  0  0  0  0  0  0  0  0  0  0
    8.9310    6.1723   -7.1380 C   0  0  0  0  0  0  0  0  0  0  0  0
    9.9421    7.1276   -7.2800 C   0  0  0  0  0  0  0  0  0  0  0  0
   10.4619    7.7010   -6.1053 C   0  0  0  0  0  0  0  0  0  0  0  0
   11.5045    8.6277   -6.1814 C   0  0  0  0  0  0  0  0  0  0  0  0
   12.0195    8.9723   -7.4377 C   0  0  0  0  0  0  0  0  0  0  0  0
   11.4647    8.4483   -8.6272 C   0  0  0  0  0  0  0  0  0  0  0  0
   10.4254    7.4849   -8.5699 C   0  0  0  0  0  0  0  0  0  0  0  0
    6.0222    4.3387  -12.5513 H   0  0  0  0  0  0  0  0  0  0  0  0
    5.4726    3.8590  -14.1560 H   0  0  0  0  0  0  0  0  0  0  0  0
    5.8420    2.6362  -12.9277 H   0  0  0  0  0  0  0  0  0  0  0  0
    7.3600    1.0299  -16.0968 H   0  0  0  0  0  0  0  0  0  0  0  0
    6.0860    1.5947  -15.0475 H   0  0  0  0  0  0  0  0  0  0  0  0
    6.9045   -0.5680  -14.6552 H   0  0  0  0  0  0  0  0  0  0  0  0
   11.9984    2.7380  -15.8171 H   0  0  0  0  0  0  0  0  0  0  0  0
   13.4382    4.5718  -14.9479 H   0  0  0  0  0  0  0  0  0  0  0  0
   12.5533    6.2370  -13.3640 H   0  0  0  0  0  0  0  0  0  0  0  0
    7.5684    6.0864  -12.1282 H   0  0  0  0  0  0  0  0  0  0  0  0
    8.5225    5.2112  -10.3240 H   0  0  0  0  0  0  0  0  0  0  0  0
    7.7518    4.6692   -8.1225 H   0  0  0  0  0  0  0  0  0  0  0  0
    8.5304    5.9473   -6.1632 H   0  0  0  0  0  0  0  0  0  0  0  0
   10.0859    7.4052   -5.1377 H   0  0  0  0  0  0  0  0  0  0  0  0
   11.9282    9.0504   -5.2822 H   0  0  0  0  0  0  0  0  0  0  0  0
   12.8494    9.6596   -7.4471 H   0  0  0  0  0  0  0  0  0  0  0  0
   11.8853    8.7793   -9.5629 H   0  0  0  0  0  0  0  0  0  0  0  0
  2  1  1  0
  3  2  2  0
  4  3  1  0
  5  4  1  0
  6  3  1  0
  7  6  1  0
  8  7  1  0
  9  8  2  0
 10  9  1  0
 11 10  2  0
 12  7  2  0
 12 11  1  0
 13  2  1  0
 13 12  1  0
 14 13  2  0
 15 11  1  0
 15 14  1  0
 16 15  1  0
 17 16  2  0
 18 16  2  0
 19 16  1  0
 20 19  2  0
 21 20  1  0
 22 21  2  0
 23 22  1  0
 24 23  2  0
 25 24  1  0
 26 25  2  0
 27 26  1  0
 28 19  1  0
 28 23  1  0
 28 27  2  0
 29  1  1  0
 30  1  1  0
 31  1  1  0
 32  4  1  0
 33  4  1  0
 34  5  1  0
 35  8  1  0
 36  9  1  0
 37 10  1  0
 38 14  1  0
 39 20  1  0
 40 21  1  0
 41 22  1  0
 42 24  1  0
 43 25  1  0
 44 26  1  0
 45 27  1  0
M  END
>  <b_m_subgroup_collapsed>  (1041) 
0

>  <r_i_docking_score>  (1041) 
-6.8963131599001697

>  <s_m_subgroup_title>  (1041) 
glide-dock_SP_D22_pv

>  <s_m_subgroupid>  (1041) 
glide-dock_SP_D22_pv

>  <Molecule ChEMBL ID>  (1041) 
CHEMBL4090862

>  <Standard Type>  (1041) 
Ki

>  <Standard Value>  (1041) 
10000.0

>  <label>  (1041) 
0

$$$$
CHEMBL1221512
     RDKit          3D

 83 83  0  0  1  0  0  0  0  0999 V2000
    5.6877    2.5881  -13.3639 C   0  0  0  0  0  0  0  0  0  0  0  0
    6.8766    3.5554  -13.3617 C   0  0  0  0  0  0  0  0  0  0  0  0
    6.8620    4.5515  -12.1896 C   0  0  2  0  0  0  0  0  0  0  0  0
    5.9162    5.7314  -12.4728 C   0  0  0  0  0  0  0  0  0  0  0  0
    8.2847    5.0044  -11.7800 C   0  0  1  0  0  0  0  0  0  0  0  0
    9.0564    5.7545  -12.9031 C   0  0  0  0  0  0  0  0  0  0  0  0
   10.3123    5.1103  -13.1298 O   0  0  0  0  0  0  0  0  0  0  0  0
   10.8805    5.2699  -14.4367 C   0  0  1  0  0  0  0  0  0  0  0  0
   12.3521    4.8152  -14.3952 C   0  0  0  0  0  0  0  0  0  0  0  0
   13.0934    5.2043  -15.6658 C   0  0  0  0  0  0  0  0  0  0  0  0
   13.2858    4.2590  -16.6971 C   0  0  0  0  0  0  0  0  0  0  0  0
   13.9171    4.6368  -17.8963 C   0  0  0  0  0  0  0  0  0  0  0  0
   14.3484    5.9656  -18.0770 C   0  0  0  0  0  0  0  0  0  0  0  0
   14.1561    6.9115  -17.0528 C   0  0  0  0  0  0  0  0  0  0  0  0
   13.5349    6.5308  -15.8472 C   0  0  0  0  0  0  0  0  0  0  0  0
   10.0907    4.4359  -15.4687 C   0  0  0  0  0  0  0  0  0  0  0  0
    9.4402    3.4643  -15.0971 O   0  0  0  0  0  0  0  0  0  0  0  0
   10.1772    4.8269  -16.7527 N   0  0  0  0  0  0  0  0  0  0  0  0
    9.6119    4.2304  -17.9749 C   0  0  1  0  0  0  0  0  0  0  0  0
   10.4291    4.6979  -19.2063 C   0  0  0  0  0  0  0  0  0  0  0  0
    9.5661    5.2048  -20.3727 C   0  0  0  0  0  0  0  0  0  0  0  0
    8.8991    6.8913  -20.0556 S   0  0  0  0  0  0  0  0  0  0  0  0
   10.3866    7.9505  -20.2655 C   0  0  0  0  0  0  0  0  0  0  0  0
    7.9500    7.2207  -21.1276 O   0  0  0  0  0  0  0  0  0  0  0  0
    8.4856    6.9725  -18.6493 O   0  0  0  0  0  0  0  0  0  0  0  0
    9.3929    2.7052  -17.9403 C   0  0  0  0  0  0  0  0  0  0  0  0
    8.2971    2.1728  -18.1239 O   0  0  0  0  0  0  0  0  0  0  0  0
   10.5539    2.0631  -17.6874 O   0  0  0  0  0  0  0  0  0  0  0  0
   10.5920    0.6535  -17.5289 C   0  0  0  0  0  0  0  0  0  0  0  0
   10.4521    0.3070  -16.0390 C   0  0  0  0  0  0  0  0  0  0  0  0
   11.9208    0.1636  -18.1142 C   0  0  0  0  0  0  0  0  0  0  0  0
    8.2118    5.7723  -10.5136 N   0  0  0  0  0  0  0  0  0  0  0  0
    9.5016    5.9604   -9.8175 C   0  0  0  0  0  0  0  0  0  0  0  0
    9.3457    6.8761   -8.5923 C   0  0  1  0  0  0  0  0  0  0  0  0
    8.4860    6.2215   -7.6235 N   0  0  0  0  0  0  0  0  0  0  0  0
   10.7018    7.1884   -7.9315 C   0  0  0  0  0  0  0  0  0  0  0  0
   10.4879    8.4522   -6.6448 S   0  0  0  0  0  0  0  0  0  0  0  0
    5.7523    1.9031  -14.2090 H   0  0  0  0  0  0  0  0  0  0  0  0
    5.6632    1.9882  -12.4538 H   0  0  0  0  0  0  0  0  0  0  0  0
    4.7433    3.1240  -13.4399 H   0  0  0  0  0  0  0  0  0  0  0  0
    6.9112    4.0951  -14.3049 H   0  0  0  0  0  0  0  0  0  0  0  0
    7.7910    2.9717  -13.3258 H   0  0  0  0  0  0  0  0  0  0  0  0
    6.4543    4.0025  -11.3408 H   0  0  0  0  0  0  0  0  0  0  0  0
    6.3945    6.5245  -13.0454 H   0  0  0  0  0  0  0  0  0  0  0  0
    5.0530    5.4059  -13.0483 H   0  0  0  0  0  0  0  0  0  0  0  0
    5.5506    6.1725  -11.5451 H   0  0  0  0  0  0  0  0  0  0  0  0
    8.8404    4.0955  -11.5456 H   0  0  0  0  0  0  0  0  0  0  0  0
    8.4627    5.7725  -13.8151 H   0  0  0  0  0  0  0  0  0  0  0  0
    9.2239    6.8006  -12.6464 H   0  0  0  0  0  0  0  0  0  0  0  0
   10.8857    6.3249  -14.7065 H   0  0  0  0  0  0  0  0  0  0  0  0
   12.8499    5.2774  -13.5428 H   0  0  0  0  0  0  0  0  0  0  0  0
   12.4194    3.7388  -14.2359 H   0  0  0  0  0  0  0  0  0  0  0  0
   12.9425    3.2412  -16.5759 H   0  0  0  0  0  0  0  0  0  0  0  0
   14.0602    3.9107  -18.6838 H   0  0  0  0  0  0  0  0  0  0  0  0
   14.8273    6.2590  -18.9995 H   0  0  0  0  0  0  0  0  0  0  0  0
   14.4868    7.9306  -17.1906 H   0  0  0  0  0  0  0  0  0  0  0  0
   13.3862    7.2647  -15.0682 H   0  0  0  0  0  0  0  0  0  0  0  0
   10.7563    5.6382  -16.9154 H   0  0  0  0  0  0  0  0  0  0  0  0
    8.6178    4.6674  -18.0471 H   0  0  0  0  0  0  0  0  0  0  0  0
   11.1350    5.4802  -18.9261 H   0  0  0  0  0  0  0  0  0  0  0  0
   11.0569    3.8832  -19.5652 H   0  0  0  0  0  0  0  0  0  0  0  0
   10.1411    5.2451  -21.2981 H   0  0  0  0  0  0  0  0  0  0  0  0
    8.7200    4.5393  -20.5470 H   0  0  0  0  0  0  0  0  0  0  0  0
   10.0858    8.9978  -20.2481 H   0  0  0  0  0  0  0  0  0  0  0  0
   11.0912    7.7727  -19.4535 H   0  0  0  0  0  0  0  0  0  0  0  0
   10.8603    7.7322  -21.2231 H   0  0  0  0  0  0  0  0  0  0  0  0
    9.7816    0.1840  -18.0862 H   0  0  0  0  0  0  0  0  0  0  0  0
   10.4860   -0.7700  -15.8810 H   0  0  0  0  0  0  0  0  0  0  0  0
   11.2488    0.7590  -15.4489 H   0  0  0  0  0  0  0  0  0  0  0  0
    9.5026    0.6659  -15.6403 H   0  0  0  0  0  0  0  0  0  0  0  0
   12.0183   -0.9168  -18.0147 H   0  0  0  0  0  0  0  0  0  0  0  0
   11.9934    0.4059  -19.1743 H   0  0  0  0  0  0  0  0  0  0  0  0
   12.7687    0.6265  -17.6096 H   0  0  0  0  0  0  0  0  0  0  0  0
    7.6173    5.2580   -9.8752 H   0  0  0  0  0  0  0  0  0  0  0  0
   10.2196    6.4066  -10.5044 H   0  0  0  0  0  0  0  0  0  0  0  0
    9.9064    4.9900   -9.5243 H   0  0  0  0  0  0  0  0  0  0  0  0
    8.8803    7.8142   -8.8970 H   0  0  0  0  0  0  0  0  0  0  0  0
    8.7099    6.5745   -6.7034 H   0  0  0  0  0  0  0  0  0  0  0  0
    7.5297    6.5562   -7.7905 H   0  0  0  0  0  0  0  0  0  0  0  0
   11.4048    7.5751   -8.6716 H   0  0  0  0  0  0  0  0  0  0  0  0
   11.1504    6.2929   -7.4976 H   0  0  0  0  0  0  0  0  0  0  0  0
    9.9335    9.3725   -7.4399 H   0  0  0  0  0  0  0  0  0  0  0  0
    7.7484    6.6719  -10.6474 H   0  0  0  0  0  0  0  0  0  0  0  0
  2  1  1  0
  3  2  1  0
  4  3  1  0
  5  3  1  0
  6  5  1  0
  7  6  1  0
  8  7  1  0
  9  8  1  0
 10  9  1  0
 11 10  2  0
 12 11  1  0
 13 12  2  0
 14 13  1  0
 15 10  1  0
 15 14  2  0
 16  8  1  0
 17 16  2  0
 18 16  1  0
 19 18  1  0
 20 19  1  0
 21 20  1  0
 22 21  1  0
 23 22  1  0
 24 22  2  0
 25 22  2  0
 26 19  1  0
 27 26  2  0
 28 26  1  0
 29 28  1  0
 30 29  1  0
 31 29  1  0
 32  5  1  0
 33 32  1  0
 34 33  1  0
 35 34  1  0
 36 34  1  0
 37 36  1  0
 38  1  1  0
 39  1  1  0
 40  1  1  0
 41  2  1  0
 42  2  1  0
  3 43  1  1
 44  4  1  0
 45  4  1  0
 46  4  1  0
  5 47  1  1
 48  6  1  0
 49  6  1  0
  8 50  1  6
 51  9  1  0
 52  9  1  0
 53 11  1  0
 54 12  1  0
 55 13  1  0
 56 14  1  0
 57 15  1  0
 58 18  1  0
 19 59  1  6
 60 20  1  0
 61 20  1  0
 62 21  1  0
 63 21  1  0
 64 23  1  0
 65 23  1  0
 66 23  1  0
 67 29  1  0
 68 30  1  0
 69 30  1  0
 70 30  1  0
 71 31  1  0
 72 31  1  0
 73 31  1  0
 74 32  1  0
 75 33  1  0
 76 33  1  0
 34 77  1  6
 78 35  1  0
 79 35  1  0
 80 36  1  0
 81 36  1  0
 82 37  1  0
 83 32  1  0
M  CHG  1  32   1
M  END
>  <b_m_subgroup_collapsed>  (1042) 
0

>  <r_i_docking_score>  (1042) 
-6.89493535709751

>  <s_m_subgroup_title>  (1042) 
glide-dock_SP_D22_pv

>  <s_m_subgroupid>  (1042) 
glide-dock_SP_D22_pv

>  <Molecule ChEMBL ID>  (1042) 
CHEMBL1221512

>  <Standard Type>  (1042) 
Ki

>  <Standard Value>  (1042) 
52.0

>  <label>  (1042) 
1

$$$$
CHEMBL3289984
     RDKit          3D

 58 62  0  0  1  0  0  0  0  0999 V2000
   11.0838    3.0411  -16.7553 O   0  0  0  0  0  0  0  0  0  0  0  0
   10.5086    3.0117  -15.4026 S   0  0  0  0  0  0  0  0  0  0  0  0
   11.2858    2.5219  -14.2554 O   0  0  0  0  0  0  0  0  0  0  0  0
    9.9576    4.6058  -15.0397 N   0  0  0  0  0  0  0  0  0  0  0  0
    9.8793    5.0953  -13.6585 C   0  0  0  0  0  0  0  0  0  0  0  0
    8.4957    4.8456  -13.0350 C   0  0  0  0  0  0  0  0  0  0  0  0
    8.2852    5.6508  -11.7396 C   0  0  0  0  0  0  0  0  0  0  0  0
    9.1034    5.1281  -10.5417 C   0  0  0  0  0  0  0  0  0  0  0  0
    9.2436    6.1544   -9.5102 N   0  0  0  0  0  0  0  0  0  0  0  0
    9.5065    5.5386   -8.2090 C   0  0  0  0  0  0  0  0  0  0  0  0
    9.5772    6.6272   -7.1174 C   0  0  0  0  0  0  0  0  0  0  0  0
   10.6501    7.5680   -7.4210 N   0  0  0  0  0  0  0  0  0  0  0  0
   10.9540    8.4693   -6.3848 C   0  0  0  0  0  0  0  0  0  0  0  0
   10.8859    9.7910   -6.5149 N   0  0  0  0  0  0  0  0  0  0  0  0
   11.2648   10.3577   -5.2688 O   0  0  0  0  0  0  0  0  0  0  0  0
   11.5945    9.3503   -4.3779 C   0  0  0  0  0  0  0  0  0  0  0  0
   12.0280    9.3963   -3.0465 C   0  0  0  0  0  0  0  0  0  0  0  0
   12.2791    8.1741   -2.3908 C   0  0  0  0  0  0  0  0  0  0  0  0
   12.1080    6.9510   -3.0803 C   0  0  0  0  0  0  0  0  0  0  0  0
   11.6856    6.9317   -4.4301 C   0  0  0  0  0  0  0  0  0  0  0  0
   11.4028    8.1555   -5.0776 C   0  0  0  0  0  0  0  0  0  0  0  0
   10.4490    8.1705   -8.7393 C   0  0  0  0  0  0  0  0  0  0  0  0
   10.3376    7.0838   -9.8247 C   0  0  0  0  0  0  0  0  0  0  0  0
    9.0301    2.0221  -15.4877 C   0  0  0  0  0  0  0  0  0  0  0  0
    8.4801    1.3178  -14.4470 C   0  0  0  0  0  0  0  0  0  0  0  0
    7.2925    0.6000  -14.8519 C   0  0  0  0  0  0  0  0  0  0  0  0
    6.4106   -0.2288  -14.1177 C   0  0  0  0  0  0  0  0  0  0  0  0
    5.3045   -0.8537  -14.7280 C   0  0  0  0  0  0  0  0  0  0  0  0
    5.0459   -0.6593  -16.0955 C   0  0  0  0  0  0  0  0  0  0  0  0
    3.6921   -1.4276  -16.8372 Cl  0  0  0  0  0  0  0  0  0  0  0  0
    5.8952    0.1628  -16.8554 C   0  0  0  0  0  0  0  0  0  0  0  0
    6.9995    0.7843  -16.2425 C   0  0  0  0  0  0  0  0  0  0  0  0
    8.1817    1.8432  -16.9961 S   0  0  0  0  0  0  0  0  0  0  0  0
   10.3089    5.2932  -15.7054 H   0  0  0  0  0  0  0  0  0  0  0  0
   10.0872    6.1650  -13.6710 H   0  0  0  0  0  0  0  0  0  0  0  0
   10.6690    4.6472  -13.0557 H   0  0  0  0  0  0  0  0  0  0  0  0
    8.3485    3.7816  -12.8464 H   0  0  0  0  0  0  0  0  0  0  0  0
    7.7258    5.1394  -13.7498 H   0  0  0  0  0  0  0  0  0  0  0  0
    7.2286    5.6298  -11.4648 H   0  0  0  0  0  0  0  0  0  0  0  0
    8.5026    6.6999  -11.9424 H   0  0  0  0  0  0  0  0  0  0  0  0
   10.0856    4.7724  -10.8465 H   0  0  0  0  0  0  0  0  0  0  0  0
    8.5789    4.2616  -10.1365 H   0  0  0  0  0  0  0  0  0  0  0  0
   10.4366    4.9713   -8.2462 H   0  0  0  0  0  0  0  0  0  0  0  0
    8.7046    4.8393   -7.9691 H   0  0  0  0  0  0  0  0  0  0  0  0
    9.7235    6.1731   -6.1403 H   0  0  0  0  0  0  0  0  0  0  0  0
    8.6264    7.1623   -7.0665 H   0  0  0  0  0  0  0  0  0  0  0  0
   12.1432   10.3420   -2.5375 H   0  0  0  0  0  0  0  0  0  0  0  0
   12.6030    8.1755   -1.3609 H   0  0  0  0  0  0  0  0  0  0  0  0
   12.3060    6.0183   -2.5721 H   0  0  0  0  0  0  0  0  0  0  0  0
   11.5722    5.9916   -4.9492 H   0  0  0  0  0  0  0  0  0  0  0  0
    9.5424    8.7789   -8.7314 H   0  0  0  0  0  0  0  0  0  0  0  0
   11.2811    8.8350   -8.9769 H   0  0  0  0  0  0  0  0  0  0  0  0
   11.2869    6.5551   -9.9023 H   0  0  0  0  0  0  0  0  0  0  0  0
   10.1617    7.5619  -10.7879 H   0  0  0  0  0  0  0  0  0  0  0  0
    8.8867    1.3009  -13.4472 H   0  0  0  0  0  0  0  0  0  0  0  0
    6.5989   -0.4001  -13.0683 H   0  0  0  0  0  0  0  0  0  0  0  0
    4.6544   -1.4935  -14.1515 H   0  0  0  0  0  0  0  0  0  0  0  0
    5.7002    0.3139  -17.9061 H   0  0  0  0  0  0  0  0  0  0  0  0
  2  1  2  0
  3  2  2  0
  4  2  1  0
  5  4  1  0
  6  5  1  0
  7  6  1  0
  8  7  1  0
  9  8  1  0
 10  9  1  0
 11 10  1  0
 12 11  1  0
 13 12  1  0
 14 13  2  0
 15 14  1  0
 16 15  1  0
 17 16  2  0
 18 17  1  0
 19 18  2  0
 20 19  1  0
 21 13  1  0
 21 16  1  0
 21 20  2  0
 22 12  1  0
 23  9  1  0
 23 22  1  0
 24  2  1  0
 25 24  2  0
 26 25  1  0
 27 26  2  0
 28 27  1  0
 29 28  2  0
 30 29  1  0
 31 29  1  0
 32 26  1  0
 32 31  2  0
 33 24  1  0
 33 32  1  0
 34  4  1  0
 35  5  1  0
 36  5  1  0
 37  6  1  0
 38  6  1  0
 39  7  1  0
 40  7  1  0
 41  8  1  0
 42  8  1  0
 43 10  1  0
 44 10  1  0
 45 11  1  0
 46 11  1  0
 47 17  1  0
 48 18  1  0
 49 19  1  0
 50 20  1  0
 51 22  1  0
 52 22  1  0
 53 23  1  0
 54 23  1  0
 55 25  1  0
 56 27  1  0
 57 28  1  0
 58 31  1  0
M  END
>  <b_m_subgroup_collapsed>  (1043) 
0

>  <r_i_docking_score>  (1043) 
-6.8877839238302601

>  <s_m_subgroup_title>  (1043) 
glide-dock_SP_D22_pv

>  <s_m_subgroupid>  (1043) 
glide-dock_SP_D22_pv

>  <Molecule ChEMBL ID>  (1043) 
CHEMBL3289984

>  <Standard Type>  (1043) 
Ki

>  <Standard Value>  (1043) 
54.0

>  <label>  (1043) 
1

$$$$
CHEMBL5408427
     RDKit          3D

 45 47  0  0  1  0  0  0  0  0999 V2000
   12.2819    7.5832  -15.3853 C   0  0  0  0  0  0  0  0  0  0  0  0
   12.7676    6.2716  -14.7654 C   0  0  0  0  0  0  0  0  0  0  0  0
   13.7759    5.5887  -15.6985 C   0  0  0  0  0  0  0  0  0  0  0  0
   11.6055    5.3709  -14.3517 C   0  0  0  0  0  0  0  0  0  0  0  0
   11.3165    4.1452  -14.9897 C   0  0  0  0  0  0  0  0  0  0  0  0
   10.2299    3.3715  -14.5348 C   0  0  0  0  0  0  0  0  0  0  0  0
    9.9374    2.0615  -15.1440 C   0  0  0  0  0  0  0  0  0  0  0  0
    8.6796    1.3931  -14.9729 C   0  0  0  0  0  0  0  0  0  0  0  0
    8.6160    0.1728  -15.5918 C   0  0  0  0  0  0  0  0  0  0  0  0
   10.0858   -0.1928  -16.4397 S   0  0  0  0  0  0  0  0  0  0  0  0
   10.7919    1.3111  -15.9168 C   0  0  0  0  0  0  0  0  0  0  0  0
    9.4535    3.8925  -13.4787 C   0  0  0  0  0  0  0  0  0  0  0  0
    9.8080    5.1263  -12.8864 C   0  0  0  0  0  0  0  0  0  0  0  0
    9.0571    5.6788  -11.8243 N   0  0  0  0  0  0  0  0  0  0  0  0
    8.2520    4.8472  -10.9333 C   0  0  0  0  0  0  0  0  0  0  0  0
    8.7165    5.0396   -9.4805 C   0  0  0  0  0  0  0  0  0  0  0  0
    8.6950    6.4768   -9.1152 N   0  0  0  0  0  0  0  0  0  0  0  0
    8.9463    6.7203   -7.6781 C   0  0  0  0  0  0  0  0  0  0  0  0
    9.5453    7.2957  -10.0153 C   0  0  0  0  0  0  0  0  0  0  0  0
    9.1256    7.1017  -11.4869 C   0  0  0  0  0  0  0  0  0  0  0  0
   10.8818    5.8304  -13.3106 N   0  0  0  0  0  0  0  0  0  0  0  0
   11.6862    8.1586  -14.6733 H   0  0  0  0  0  0  0  0  0  0  0  0
   13.1149    8.2144  -15.6939 H   0  0  0  0  0  0  0  0  0  0  0  0
   11.6778    7.3729  -16.2665 H   0  0  0  0  0  0  0  0  0  0  0  0
   13.2848    6.5377  -13.8466 H   0  0  0  0  0  0  0  0  0  0  0  0
   14.0855    4.6369  -15.2778 H   0  0  0  0  0  0  0  0  0  0  0  0
   13.3515    5.3947  -16.6847 H   0  0  0  0  0  0  0  0  0  0  0  0
   14.6688    6.2013  -15.8332 H   0  0  0  0  0  0  0  0  0  0  0  0
   11.9160    3.7984  -15.8152 H   0  0  0  0  0  0  0  0  0  0  0  0
    7.8604    1.8103  -14.4054 H   0  0  0  0  0  0  0  0  0  0  0  0
    7.7972   -0.5338  -15.6075 H   0  0  0  0  0  0  0  0  0  0  0  0
   11.8060    1.5436  -16.2084 H   0  0  0  0  0  0  0  0  0  0  0  0
    8.5936    3.3479  -13.1317 H   0  0  0  0  0  0  0  0  0  0  0  0
    7.2101    5.1406  -11.0432 H   0  0  0  0  0  0  0  0  0  0  0  0
    8.3058    3.7892  -11.1783 H   0  0  0  0  0  0  0  0  0  0  0  0
    8.0862    4.4648   -8.8011 H   0  0  0  0  0  0  0  0  0  0  0  0
    9.7302    4.6503   -9.3549 H   0  0  0  0  0  0  0  0  0  0  0  0
    9.9498    6.4011   -7.3940 H   0  0  0  0  0  0  0  0  0  0  0  0
    8.8374    7.7804   -7.4477 H   0  0  0  0  0  0  0  0  0  0  0  0
    8.2239    6.1795   -7.0665 H   0  0  0  0  0  0  0  0  0  0  0  0
    9.4548    8.3491   -9.7491 H   0  0  0  0  0  0  0  0  0  0  0  0
   10.5899    7.0150   -9.8833 H   0  0  0  0  0  0  0  0  0  0  0  0
    9.7940    7.6624  -12.1390 H   0  0  0  0  0  0  0  0  0  0  0  0
    8.1338    7.5254  -11.6464 H   0  0  0  0  0  0  0  0  0  0  0  0
    7.7452    6.8058   -9.2914 H   0  0  0  0  0  0  0  0  0  0  0  0
  2  1  1  0
  3  2  1  0
  4  2  1  0
  5  4  2  0
  6  5  1  0
  7  6  1  0
  8  7  1  0
  9  8  2  0
 10  9  1  0
 11  7  2  0
 11 10  1  0
 12  6  2  0
 13 12  1  0
 14 13  1  0
 15 14  1  0
 16 15  1  0
 17 16  1  0
 18 17  1  0
 19 17  1  0
 20 14  1  0
 20 19  1  0
 21  4  1  0
 21 13  2  0
 22  1  1  0
 23  1  1  0
 24  1  1  0
 25  2  1  0
 26  3  1  0
 27  3  1  0
 28  3  1  0
 29  5  1  0
 30  8  1  0
 31  9  1  0
 32 11  1  0
 33 12  1  0
 34 15  1  0
 35 15  1  0
 36 16  1  0
 37 16  1  0
 38 18  1  0
 39 18  1  0
 40 18  1  0
 41 19  1  0
 42 19  1  0
 43 20  1  0
 44 20  1  0
 45 17  1  0
M  CHG  1  17   1
M  END
>  <b_m_subgroup_collapsed>  (1044) 
0

>  <r_i_docking_score>  (1044) 
-6.8818107725814803

>  <s_m_subgroup_title>  (1044) 
glide-dock_SP_D22_pv

>  <s_m_subgroupid>  (1044) 
glide-dock_SP_D22_pv

>  <Molecule ChEMBL ID>  (1044) 
CHEMBL5408427

>  <Standard Type>  (1044) 
Ki

>  <Standard Value>  (1044) 
1.32

>  <label>  (1044) 
1

$$$$
CHEMBL554692
     RDKit          3D

 50 53  0  0  1  0  0  0  0  0999 V2000
   10.8853    1.1121  -15.7732 C   0  0  0  0  0  0  0  0  0  0  0  0
   10.3318    2.2928  -15.0041 C   0  0  0  0  0  0  0  0  0  0  0  0
    9.0100    2.3181  -14.6483 C   0  0  0  0  0  0  0  0  0  0  0  0
    8.5503    3.4355  -13.9094 C   0  0  0  0  0  0  0  0  0  0  0  0
    7.3437    3.7442  -13.4468 N   0  0  0  0  0  0  0  0  0  0  0  0
    7.4921    4.9455  -12.7772 C   0  0  0  0  0  0  0  0  0  0  0  0
    6.3170    5.5891  -12.1096 C   0  0  0  0  0  0  0  0  0  0  0  0
    8.7828    5.4004  -12.8520 C   0  0  0  0  0  0  0  0  0  0  0  0
    9.3306    6.6812  -12.3062 C   0  0  0  0  0  0  0  0  0  0  0  0
   10.0871    6.5744  -11.0653 N   0  0  0  0  0  0  0  0  0  0  0  0
    9.2178    6.2294   -9.9373 C   0  0  0  0  0  0  0  0  0  0  0  0
   10.0121    6.1954   -8.6182 C   0  0  0  0  0  0  0  0  0  0  0  0
   10.6731    7.4796   -8.4026 N   0  0  0  0  0  0  0  0  0  0  0  0
   11.0126    7.9025   -7.1049 C   0  0  0  0  0  0  0  0  0  0  0  0
   11.0461    7.0054   -6.0112 C   0  0  0  0  0  0  0  0  0  0  0  0
   11.3876    7.4582   -4.7224 C   0  0  0  0  0  0  0  0  0  0  0  0
   11.6859    8.8170   -4.5083 C   0  0  0  0  0  0  0  0  0  0  0  0
   12.0864    9.3721   -2.9280 Cl  0  0  0  0  0  0  0  0  0  0  0  0
   11.6474    9.7200   -5.5859 C   0  0  0  0  0  0  0  0  0  0  0  0
   11.3163    9.2625   -6.8716 C   0  0  0  0  0  0  0  0  0  0  0  0
   11.4936    7.9189   -9.5269 C   0  0  0  0  0  0  0  0  0  0  0  0
   10.6626    7.9011  -10.8158 C   0  0  0  0  0  0  0  0  0  0  0  0
    9.4933    4.4506  -13.5952 N   0  0  0  0  0  0  0  0  0  0  0  0
   10.7901    4.3271  -14.0471 C   0  0  0  0  0  0  0  0  0  0  0  0
   11.8079    5.4381  -13.8500 C   0  0  0  0  0  0  0  0  0  0  0  0
   11.2188    3.2957  -14.7154 N   0  0  0  0  0  0  0  0  0  0  0  0
   10.2682    0.9033  -16.6466 H   0  0  0  0  0  0  0  0  0  0  0  0
   11.9032    1.3022  -16.1155 H   0  0  0  0  0  0  0  0  0  0  0  0
   10.8926    0.2251  -15.1399 H   0  0  0  0  0  0  0  0  0  0  0  0
    8.3254    1.5159  -14.8999 H   0  0  0  0  0  0  0  0  0  0  0  0
    6.5206    5.7718  -11.0554 H   0  0  0  0  0  0  0  0  0  0  0  0
    6.0752    6.5487  -12.5668 H   0  0  0  0  0  0  0  0  0  0  0  0
    5.4280    4.9606  -12.1623 H   0  0  0  0  0  0  0  0  0  0  0  0
    8.5199    7.4022  -12.1812 H   0  0  0  0  0  0  0  0  0  0  0  0
    9.9974    7.1072  -13.0468 H   0  0  0  0  0  0  0  0  0  0  0  0
    8.7420    5.2634  -10.1064 H   0  0  0  0  0  0  0  0  0  0  0  0
    8.4311    6.9726   -9.8515 H   0  0  0  0  0  0  0  0  0  0  0  0
   10.7516    5.3947   -8.6357 H   0  0  0  0  0  0  0  0  0  0  0  0
    9.3186    5.9842   -7.8035 H   0  0  0  0  0  0  0  0  0  0  0  0
   10.8276    5.9579   -6.1452 H   0  0  0  0  0  0  0  0  0  0  0  0
   11.4146    6.7598   -3.8987 H   0  0  0  0  0  0  0  0  0  0  0  0
   11.8668   10.7668   -5.4471 H   0  0  0  0  0  0  0  0  0  0  0  0
   11.2861    9.9799   -7.6751 H   0  0  0  0  0  0  0  0  0  0  0  0
   11.8957    8.9200   -9.3834 H   0  0  0  0  0  0  0  0  0  0  0  0
   12.3553    7.2646   -9.6349 H   0  0  0  0  0  0  0  0  0  0  0  0
   11.3126    8.1724  -11.6474 H   0  0  0  0  0  0  0  0  0  0  0  0
    9.8735    8.6538  -10.7588 H   0  0  0  0  0  0  0  0  0  0  0  0
   12.8096    5.1097  -14.1316 H   0  0  0  0  0  0  0  0  0  0  0  0
   11.5557    6.2919  -14.4785 H   0  0  0  0  0  0  0  0  0  0  0  0
   11.8640    5.7705  -12.8185 H   0  0  0  0  0  0  0  0  0  0  0  0
  2  1  1  0
  3  2  2  0
  4  3  1  0
  5  4  2  0
  6  5  1  0
  7  6  1  0
  8  6  2  0
  9  8  1  0
 10  9  1  0
 11 10  1  0
 12 11  1  0
 13 12  1  0
 14 13  1  0
 15 14  1  0
 16 15  2  0
 17 16  1  0
 18 17  1  0
 19 17  2  0
 20 14  2  0
 20 19  1  0
 21 13  1  0
 22 10  1  0
 22 21  1  0
 23  4  1  0
 23  8  1  0
 24 23  1  0
 25 24  1  0
 26  2  1  0
 26 24  2  0
 27  1  1  0
 28  1  1  0
 29  1  1  0
 30  3  1  0
 31  7  1  0
 32  7  1  0
 33  7  1  0
 34  9  1  0
 35  9  1  0
 36 11  1  0
 37 11  1  0
 38 12  1  0
 39 12  1  0
 40 15  1  0
 41 16  1  0
 42 19  1  0
 43 20  1  0
 44 21  1  0
 45 21  1  0
 46 22  1  0
 47 22  1  0
 48 25  1  0
 49 25  1  0
 50 25  1  0
M  END
>  <b_m_subgroup_collapsed>  (1045) 
0

>  <r_i_docking_score>  (1045) 
-6.88026645841326

>  <s_m_subgroup_title>  (1045) 
glide-dock_SP_D22_pv

>  <s_m_subgroupid>  (1045) 
glide-dock_SP_D22_pv

>  <Molecule ChEMBL ID>  (1045) 
CHEMBL554692

>  <Standard Type>  (1045) 
Ki

>  <Standard Value>  (1045) 
26000.0

>  <label>  (1045) 
0

$$$$
CHEMBL5722990
     RDKit          3D

 49 51  0  0  1  0  0  0  0  0999 V2000
    5.6220    0.5087  -14.3767 C   0  0  0  0  0  0  0  0  0  0  0  0
    6.0861    1.8502  -13.8469 C   0  0  0  0  0  0  0  0  0  0  0  0
    5.2860    2.5697  -12.9363 C   0  0  0  0  0  0  0  0  0  0  0  0
    5.7282    3.8036  -12.4208 C   0  0  0  0  0  0  0  0  0  0  0  0
    6.9836    4.3161  -12.7997 C   0  0  0  0  0  0  0  0  0  0  0  0
    7.4500    5.5219  -12.2596 N   0  0  0  0  0  0  0  0  0  0  0  0
    8.7141    6.0173  -12.5541 C   0  0  0  0  0  0  0  0  0  0  0  0
    9.1094    7.3062  -11.8527 C   0  0  0  0  0  0  0  0  0  0  0  0
    8.8860    7.2003  -10.3988 N   0  0  0  0  0  0  0  0  0  0  0  0
    9.6443    8.1710   -9.5846 C   0  0  0  0  0  0  0  0  0  0  0  0
    9.5738    7.8367   -8.0853 C   0  0  0  0  0  0  0  0  0  0  0  0
   10.5500    8.7091   -7.2722 C   0  0  0  0  0  0  0  0  0  0  0  0
   10.7056    8.3771   -5.8534 N   0  0  0  0  0  0  0  0  0  0  0  0
   11.5926    9.3522   -5.2183 C   0  0  0  0  0  0  0  0  0  0  0  0
   11.8809    9.0242   -3.7453 C   0  0  0  0  0  0  0  0  0  0  0  0
   12.4860    7.7400   -3.6754 O   0  0  0  0  0  0  0  0  0  0  0  0
   11.6537    6.7149   -4.2058 C   0  0  0  0  0  0  0  0  0  0  0  0
   11.2373    7.0237   -5.6594 C   0  0  0  0  0  0  0  0  0  0  0  0
    9.5482    5.3723  -13.3990 C   0  0  0  0  0  0  0  0  0  0  0  0
    9.1442    4.1206  -14.0703 C   0  0  0  0  0  0  0  0  0  0  0  0
    9.8900    3.5533  -14.8676 O   0  0  0  0  0  0  0  0  0  0  0  0
    7.7942    3.5982  -13.7155 C   0  0  0  0  0  0  0  0  0  0  0  0
    7.3330    2.3727  -14.2469 C   0  0  0  0  0  0  0  0  0  0  0  0
    5.9091    0.3852  -15.4215 H   0  0  0  0  0  0  0  0  0  0  0  0
    6.0730   -0.2999  -13.8005 H   0  0  0  0  0  0  0  0  0  0  0  0
    4.5376    0.4136  -14.3119 H   0  0  0  0  0  0  0  0  0  0  0  0
    4.3290    2.1742  -12.6303 H   0  0  0  0  0  0  0  0  0  0  0  0
    5.1144    4.3427  -11.7141 H   0  0  0  0  0  0  0  0  0  0  0  0
   10.1629    7.5081  -12.0527 H   0  0  0  0  0  0  0  0  0  0  0  0
    8.5384    8.1443  -12.2549 H   0  0  0  0  0  0  0  0  0  0  0  0
    7.8811    7.3723  -10.2469 H   0  0  0  0  0  0  0  0  0  0  0  0
   10.6878    8.1559   -9.9027 H   0  0  0  0  0  0  0  0  0  0  0  0
    9.2650    9.1768   -9.7722 H   0  0  0  0  0  0  0  0  0  0  0  0
    8.5555    7.9628   -7.7123 H   0  0  0  0  0  0  0  0  0  0  0  0
    9.8209    6.7829   -7.9620 H   0  0  0  0  0  0  0  0  0  0  0  0
   11.5303    8.6753   -7.7510 H   0  0  0  0  0  0  0  0  0  0  0  0
   10.2183    9.7448   -7.3559 H   0  0  0  0  0  0  0  0  0  0  0  0
   12.5412    9.3987   -5.7564 H   0  0  0  0  0  0  0  0  0  0  0  0
   11.1512   10.3476   -5.2833 H   0  0  0  0  0  0  0  0  0  0  0  0
   12.5614    9.7618   -3.3187 H   0  0  0  0  0  0  0  0  0  0  0  0
   10.9670    9.0480   -3.1503 H   0  0  0  0  0  0  0  0  0  0  0  0
   12.1887    5.7723   -4.1681 H   0  0  0  0  0  0  0  0  0  0  0  0
   10.7920    6.5723   -3.5628 H   0  0  0  0  0  0  0  0  0  0  0  0
   10.4912    6.2866   -5.9548 H   0  0  0  0  0  0  0  0  0  0  0  0
   12.0860    6.8636   -6.3207 H   0  0  0  0  0  0  0  0  0  0  0  0
   10.5319    5.7617  -13.6179 H   0  0  0  0  0  0  0  0  0  0  0  0
    7.9494    1.8120  -14.9355 H   0  0  0  0  0  0  0  0  0  0  0  0
    6.8352    6.0310  -11.6324 H   0  0  0  0  0  0  0  0  0  0  0  0
    9.1060    6.2611  -10.1025 H   0  0  0  0  0  0  0  0  0  0  0  0
  2  1  1  0
  3  2  2  0
  4  3  1  0
  5  4  2  0
  6  5  1  0
  7  6  1  0
  8  7  1  0
  9  8  1  0
 10  9  1  0
 11 10  1  0
 12 11  1  0
 13 12  1  0
 14 13  1  0
 15 14  1  0
 16 15  1  0
 17 16  1  0
 18 13  1  0
 18 17  1  0
 19  7  2  0
 20 19  1  0
 21 20  2  0
 22  5  1  0
 22 20  1  0
 23  2  1  0
 23 22  2  0
 24  1  1  0
 25  1  1  0
 26  1  1  0
 27  3  1  0
 28  4  1  0
 29  8  1  0
 30  8  1  0
 31  9  1  0
 32 10  1  0
 33 10  1  0
 34 11  1  0
 35 11  1  0
 36 12  1  0
 37 12  1  0
 38 14  1  0
 39 14  1  0
 40 15  1  0
 41 15  1  0
 42 17  1  0
 43 17  1  0
 44 18  1  0
 45 18  1  0
 46 19  1  0
 47 23  1  0
 48  6  1  0
 49  9  1  0
M  CHG  1   9   1
M  END
>  <b_m_subgroup_collapsed>  (1046) 
0

>  <r_i_docking_score>  (1046) 
-6.8799095883928203

>  <s_m_subgroup_title>  (1046) 
glide-dock_SP_D22_pv

>  <s_m_subgroupid>  (1046) 
glide-dock_SP_D22_pv

>  <Molecule ChEMBL ID>  (1046) 
CHEMBL5722990

>  <Standard Type>  (1046) 
Ki

>  <Standard Value>  (1046) 
10000.0

>  <label>  (1046) 
0

$$$$
CHEMBL3289979
     RDKit          3D

 58 62  0  0  1  0  0  0  0  0999 V2000
    5.2726    2.4677  -12.2409 O   0  0  0  0  0  0  0  0  0  0  0  0
    6.0332    3.3791  -13.1056 S   0  0  0  0  0  0  0  0  0  0  0  0
    5.3368    4.4361  -13.8477 O   0  0  0  0  0  0  0  0  0  0  0  0
    7.1833    4.1727  -12.1005 N   0  0  0  0  0  0  0  0  0  0  0  0
    8.1945    5.0685  -12.6481 C   0  0  0  0  0  0  0  0  0  0  0  0
    8.5868    6.0858  -11.5991 C   0  0  0  0  0  0  0  0  0  0  0  0
    9.1760    5.4396  -10.3396 C   0  0  0  0  0  0  0  0  0  0  0  0
    9.3877    6.4555   -9.3243 N   0  0  0  0  0  0  0  0  0  0  0  0
   10.6059    7.2270   -9.5872 C   0  0  0  0  0  0  0  0  0  0  0  0
   10.7580    8.3177   -8.5202 C   0  0  0  0  0  0  0  0  0  0  0  0
   10.7884    7.7205   -7.1897 N   0  0  0  0  0  0  0  0  0  0  0  0
   11.0492    8.6114   -6.1455 C   0  0  0  0  0  0  0  0  0  0  0  0
   10.9598    9.9358   -6.2436 N   0  0  0  0  0  0  0  0  0  0  0  0
   11.2867   10.4546   -4.9651 O   0  0  0  0  0  0  0  0  0  0  0  0
   11.6203    9.4174   -4.1061 C   0  0  0  0  0  0  0  0  0  0  0  0
   12.0281    9.4154   -2.7694 C   0  0  0  0  0  0  0  0  0  0  0  0
   12.2676    8.1718   -2.1532 C   0  0  0  0  0  0  0  0  0  0  0  0
   12.0893    6.9683   -2.8791 C   0  0  0  0  0  0  0  0  0  0  0  0
   11.6857    6.9970   -4.2343 C   0  0  0  0  0  0  0  0  0  0  0  0
   11.4519    8.2495   -4.8459 C   0  0  0  0  0  0  0  0  0  0  0  0
    9.6072    6.9021   -6.9389 C   0  0  0  0  0  0  0  0  0  0  0  0
    9.4889    5.8162   -8.0145 C   0  0  0  0  0  0  0  0  0  0  0  0
    6.9914    2.3622  -14.2511 C   0  0  0  0  0  0  0  0  0  0  0  0
    6.6081    1.0177  -14.4413 C   0  0  0  0  0  0  0  0  0  0  0  0
    7.3367    0.1919  -15.3207 C   0  0  0  0  0  0  0  0  0  0  0  0
    8.4728    0.6936  -15.9914 C   0  0  0  0  0  0  0  0  0  0  0  0
    9.2203   -0.1246  -16.8647 C   0  0  0  0  0  0  0  0  0  0  0  0
   10.3672    0.3833  -17.5054 C   0  0  0  0  0  0  0  0  0  0  0  0
   11.2885   -0.6281  -18.5547 Cl  0  0  0  0  0  0  0  0  0  0  0  0
   10.7624    1.7177  -17.2924 C   0  0  0  0  0  0  0  0  0  0  0  0
   10.0066    2.5477  -16.4441 C   0  0  0  0  0  0  0  0  0  0  0  0
    8.8656    2.0386  -15.7907 C   0  0  0  0  0  0  0  0  0  0  0  0
    8.1122    2.8689  -14.9413 C   0  0  0  0  0  0  0  0  0  0  0  0
    6.7161    4.5903  -11.2916 H   0  0  0  0  0  0  0  0  0  0  0  0
    7.7961    5.5840  -13.5216 H   0  0  0  0  0  0  0  0  0  0  0  0
    9.0766    4.4979  -12.9372 H   0  0  0  0  0  0  0  0  0  0  0  0
    7.6876    6.6201  -11.3301 H   0  0  0  0  0  0  0  0  0  0  0  0
    9.2710    6.8086  -12.0411 H   0  0  0  0  0  0  0  0  0  0  0  0
   10.0872    4.8854  -10.5559 H   0  0  0  0  0  0  0  0  0  0  0  0
    8.4568    4.7137   -9.9556 H   0  0  0  0  0  0  0  0  0  0  0  0
   10.5615    7.7011  -10.5663 H   0  0  0  0  0  0  0  0  0  0  0  0
   11.4770    6.5744   -9.5892 H   0  0  0  0  0  0  0  0  0  0  0  0
    9.9282    9.0230   -8.5933 H   0  0  0  0  0  0  0  0  0  0  0  0
   11.6765    8.8794   -8.6962 H   0  0  0  0  0  0  0  0  0  0  0  0
   12.1006   10.3449   -2.2308 H   0  0  0  0  0  0  0  0  0  0  0  0
   12.5658    8.1456   -1.1167 H   0  0  0  0  0  0  0  0  0  0  0  0
   12.2636    6.0159   -2.3967 H   0  0  0  0  0  0  0  0  0  0  0  0
   11.5608    6.0789   -4.7877 H   0  0  0  0  0  0  0  0  0  0  0  0
    9.6522    6.4375   -5.9557 H   0  0  0  0  0  0  0  0  0  0  0  0
    8.7144    7.5316   -6.9453 H   0  0  0  0  0  0  0  0  0  0  0  0
    8.5954    5.2187   -7.8262 H   0  0  0  0  0  0  0  0  0  0  0  0
   10.3493    5.1470   -7.9871 H   0  0  0  0  0  0  0  0  0  0  0  0
    5.7484    0.6182  -13.9240 H   0  0  0  0  0  0  0  0  0  0  0  0
    7.0161   -0.8289  -15.4703 H   0  0  0  0  0  0  0  0  0  0  0  0
    8.9201   -1.1436  -17.0512 H   0  0  0  0  0  0  0  0  0  0  0  0
   11.6420    2.1071  -17.7844 H   0  0  0  0  0  0  0  0  0  0  0  0
   10.3124    3.5728  -16.2935 H   0  0  0  0  0  0  0  0  0  0  0  0
    8.3972    3.9012  -14.8599 H   0  0  0  0  0  0  0  0  0  0  0  0
  2  1  2  0
  3  2  2  0
  4  2  1  0
  5  4  1  0
  6  5  1  0
  7  6  1  0
  8  7  1  0
  9  8  1  0
 10  9  1  0
 11 10  1  0
 12 11  1  0
 13 12  2  0
 14 13  1  0
 15 14  1  0
 16 15  2  0
 17 16  1  0
 18 17  2  0
 19 18  1  0
 20 12  1  0
 20 15  1  0
 20 19  2  0
 21 11  1  0
 22  8  1  0
 22 21  1  0
 23  2  1  0
 24 23  2  0
 25 24  1  0
 26 25  2  0
 27 26  1  0
 28 27  2  0
 29 28  1  0
 30 28  1  0
 31 30  2  0
 32 26  1  0
 32 31  1  0
 33 23  1  0
 33 32  2  0
 34  4  1  0
 35  5  1  0
 36  5  1  0
 37  6  1  0
 38  6  1  0
 39  7  1  0
 40  7  1  0
 41  9  1  0
 42  9  1  0
 43 10  1  0
 44 10  1  0
 45 16  1  0
 46 17  1  0
 47 18  1  0
 48 19  1  0
 49 21  1  0
 50 21  1  0
 51 22  1  0
 52 22  1  0
 53 24  1  0
 54 25  1  0
 55 27  1  0
 56 30  1  0
 57 31  1  0
 58 33  1  0
M  END
>  <b_m_subgroup_collapsed>  (1047) 
0

>  <r_i_docking_score>  (1047) 
-6.8787201070187098

>  <s_m_subgroup_title>  (1047) 
glide-dock_SP_D22_pv

>  <s_m_subgroupid>  (1047) 
glide-dock_SP_D22_pv

>  <Molecule ChEMBL ID>  (1047) 
CHEMBL3289979

>  <Standard Type>  (1047) 
Ki

>  <Standard Value>  (1047) 
10000.0

>  <label>  (1047) 
0

$$$$
CHEMBL5722948
     RDKit          3D

 41 43  0  0  1  0  0  0  0  0999 V2000
   12.4860    6.8066   -2.3288 C   0  0  0  0  0  0  0  0  0  0  0  0
   12.0256    7.6966   -3.4407 C   0  0  0  0  0  0  0  0  0  0  0  0
   12.0288    9.0696   -3.4602 C   0  0  0  0  0  0  0  0  0  0  0  0
   11.2867    9.7012   -4.9078 S   0  0  0  0  0  0  0  0  0  0  0  0
   11.0070    8.0474   -5.4467 C   0  0  0  0  0  0  0  0  0  0  0  0
   10.3461    7.7089   -6.7382 C   0  0  0  0  0  0  0  0  0  0  0  0
   11.3301    7.7803   -7.9130 C   0  0  0  0  0  0  0  0  0  0  0  0
   10.7327    7.3697   -9.2636 C   0  0  0  0  0  0  0  0  0  0  0  0
    9.6843    8.3013   -9.6598 N   0  0  0  0  0  0  0  0  0  0  0  0
    9.5800    8.4517  -11.1038 C   0  0  0  0  0  0  0  0  0  0  0  0
    9.3886    7.1357  -11.8457 C   0  0  0  0  0  0  0  0  0  0  0  0
   10.3824    6.5043  -12.5063 C   0  0  0  0  0  0  0  0  0  0  0  0
   10.1269    5.2388  -13.2317 C   0  0  0  0  0  0  0  0  0  0  0  0
   11.0311    4.6462  -13.8184 O   0  0  0  0  0  0  0  0  0  0  0  0
    8.7195    4.7402  -13.2088 C   0  0  0  0  0  0  0  0  0  0  0  0
    8.3553    3.5538  -13.8812 C   0  0  0  0  0  0  0  0  0  0  0  0
    7.0204    3.1025  -13.8469 C   0  0  0  0  0  0  0  0  0  0  0  0
    6.6772    1.9636  -14.4912 F   0  0  0  0  0  0  0  0  0  0  0  0
    6.0465    3.8238  -13.1300 C   0  0  0  0  0  0  0  0  0  0  0  0
    6.4034    5.0059  -12.4536 C   0  0  0  0  0  0  0  0  0  0  0  0
    7.7321    5.4679  -12.4999 C   0  0  0  0  0  0  0  0  0  0  0  0
    8.0906    6.6496  -11.8470 N   0  0  0  0  0  0  0  0  0  0  0  0
   11.4792    7.1304   -4.5978 N   0  0  0  0  0  0  0  0  0  0  0  0
   12.8492    7.3908   -1.4818 H   0  0  0  0  0  0  0  0  0  0  0  0
   11.6727    6.1757   -1.9685 H   0  0  0  0  0  0  0  0  0  0  0  0
   13.2860    6.1413   -2.6471 H   0  0  0  0  0  0  0  0  0  0  0  0
   12.3922    9.7487   -2.7010 H   0  0  0  0  0  0  0  0  0  0  0  0
    9.9161    6.7085   -6.6641 H   0  0  0  0  0  0  0  0  0  0  0  0
    9.5153    8.3965   -6.8902 H   0  0  0  0  0  0  0  0  0  0  0  0
   11.7451    8.7861   -7.9876 H   0  0  0  0  0  0  0  0  0  0  0  0
   12.1714    7.1234   -7.6960 H   0  0  0  0  0  0  0  0  0  0  0  0
   11.5386    7.3819   -9.9993 H   0  0  0  0  0  0  0  0  0  0  0  0
   10.3380    6.3530   -9.2337 H   0  0  0  0  0  0  0  0  0  0  0  0
    8.7860    7.9946   -9.3021 H   0  0  0  0  0  0  0  0  0  0  0  0
    8.7366    9.1087  -11.3203 H   0  0  0  0  0  0  0  0  0  0  0  0
   10.4731    8.9702  -11.4468 H   0  0  0  0  0  0  0  0  0  0  0  0
   11.3841    6.9056  -12.5177 H   0  0  0  0  0  0  0  0  0  0  0  0
    9.0929    2.9818  -14.4243 H   0  0  0  0  0  0  0  0  0  0  0  0
    5.0264    3.4721  -13.1000 H   0  0  0  0  0  0  0  0  0  0  0  0
    5.6591    5.5618  -11.9004 H   0  0  0  0  0  0  0  0  0  0  0  0
    7.3849    7.1308  -11.2674 H   0  0  0  0  0  0  0  0  0  0  0  0
  2  1  1  0
  3  2  2  0
  4  3  1  0
  5  4  1  0
  6  5  1  0
  7  6  1  0
  8  7  1  0
  9  8  1  0
 10  9  1  0
 11 10  1  0
 12 11  2  0
 13 12  1  0
 14 13  2  0
 15 13  1  0
 16 15  2  0
 17 16  1  0
 18 17  1  0
 19 17  2  0
 20 19  1  0
 21 15  1  0
 21 20  2  0
 22 11  1  0
 22 21  1  0
 23  2  1  0
 23  5  2  0
 24  1  1  0
 25  1  1  0
 26  1  1  0
 27  3  1  0
 28  6  1  0
 29  6  1  0
 30  7  1  0
 31  7  1  0
 32  8  1  0
 33  8  1  0
 34  9  1  0
 35 10  1  0
 36 10  1  0
 37 12  1  0
 38 16  1  0
 39 19  1  0
 40 20  1  0
 41 22  1  0
M  END
>  <b_m_subgroup_collapsed>  (1048) 
0

>  <r_i_docking_score>  (1048) 
-6.8757548933966204

>  <s_m_subgroup_title>  (1048) 
glide-dock_SP_D22_pv

>  <s_m_subgroupid>  (1048) 
glide-dock_SP_D22_pv

>  <Molecule ChEMBL ID>  (1048) 
CHEMBL5722948

>  <Standard Type>  (1048) 
Ki

>  <Standard Value>  (1048) 
10000.0

>  <label>  (1048) 
0

$$$$
CHEMBL5722967
     RDKit          3D

 43 46  0  0  1  0  0  0  0  0999 V2000
    9.7578    1.1790  -15.2897 C   0  0  0  0  0  0  0  0  0  0  0  0
    9.9193    2.5507  -14.6687 C   0  0  0  0  0  0  0  0  0  0  0  0
   11.2211    3.1653  -14.5314 C   0  0  0  0  0  0  0  0  0  0  0  0
   11.3855    4.3462  -13.9065 C   0  0  0  0  0  0  0  0  0  0  0  0
   10.2599    5.0746  -13.3533 C   0  0  0  0  0  0  0  0  0  0  0  0
   10.3834    6.1867  -12.6990 N   0  0  0  0  0  0  0  0  0  0  0  0
    9.2657    6.8915  -12.2469 C   0  0  0  0  0  0  0  0  0  0  0  0
    9.5427    8.1925  -11.4953 C   0  0  0  0  0  0  0  0  0  0  0  0
    8.8860    8.3183  -10.1653 N   0  0  0  0  0  0  0  0  0  0  0  0
    9.2860    7.4286   -9.0471 C   0  0  2  0  0  0  0  0  0  0  0  0
   10.1344    8.1486   -8.0506 C   0  0  0  0  0  0  0  0  0  0  0  0
    9.7505    8.5723   -6.8033 C   0  0  0  0  0  0  0  0  0  0  0  0
   10.7869    9.2440   -6.0915 C   0  0  0  0  0  0  0  0  0  0  0  0
   11.9490    9.3274   -6.8078 C   0  0  0  0  0  0  0  0  0  0  0  0
   11.7959    8.5723   -8.3724 S   0  0  0  0  0  0  0  0  0  0  0  0
    9.8469    6.0932   -9.4826 C   0  0  0  0  0  0  0  0  0  0  0  0
    9.6860    4.8686   -8.6352 C   0  0  0  0  0  0  0  0  0  0  0  0
    8.8986    4.9723   -9.8866 C   0  0  0  0  0  0  0  0  0  0  0  0
    8.0237    6.4222  -12.4997 C   0  0  0  0  0  0  0  0  0  0  0  0
    7.8277    5.1258  -13.1481 C   0  0  0  0  0  0  0  0  0  0  0  0
    6.7020    4.6454  -13.2959 O   0  0  0  0  0  0  0  0  0  0  0  0
    8.9704    4.4944  -13.5646 N   0  0  0  0  0  0  0  0  0  0  0  0
    8.8595    3.2340  -14.2004 C   0  0  0  0  0  0  0  0  0  0  0  0
    9.5183    0.4447  -14.5196 H   0  0  0  0  0  0  0  0  0  0  0  0
    8.9528    1.1821  -16.0251 H   0  0  0  0  0  0  0  0  0  0  0  0
   10.6742    0.8625  -15.7886 H   0  0  0  0  0  0  0  0  0  0  0  0
   12.0860    2.6628  -14.9387 H   0  0  0  0  0  0  0  0  0  0  0  0
   12.3892    4.7393  -13.8330 H   0  0  0  0  0  0  0  0  0  0  0  0
    9.1929    9.0125  -12.1226 H   0  0  0  0  0  0  0  0  0  0  0  0
   10.6172    8.3338  -11.3713 H   0  0  0  0  0  0  0  0  0  0  0  0
    7.8700    8.1672  -10.2695 H   0  0  0  0  0  0  0  0  0  0  0  0
    8.3520    7.2023   -8.5357 H   0  0  0  0  0  0  0  0  0  0  0  0
    8.7656    8.4246   -6.3812 H   0  0  0  0  0  0  0  0  0  0  0  0
   10.6445    9.6382   -5.0959 H   0  0  0  0  0  0  0  0  0  0  0  0
   12.8860    9.7770   -6.5131 H   0  0  0  0  0  0  0  0  0  0  0  0
   10.8064    6.1662   -9.9886 H   0  0  0  0  0  0  0  0  0  0  0  0
   10.4886    4.1385   -8.6469 H   0  0  0  0  0  0  0  0  0  0  0  0
    9.1497    4.9723   -7.6956 H   0  0  0  0  0  0  0  0  0  0  0  0
    7.8304    5.1589   -9.8050 H   0  0  0  0  0  0  0  0  0  0  0  0
    9.1964    4.2979  -10.6851 H   0  0  0  0  0  0  0  0  0  0  0  0
    7.1535    6.9723  -12.1762 H   0  0  0  0  0  0  0  0  0  0  0  0
    7.8628    2.8195  -14.2637 H   0  0  0  0  0  0  0  0  0  0  0  0
    8.9996    9.2651   -9.8388 H   0  0  0  0  0  0  0  0  0  0  0  0
  2  1  1  0
  3  2  1  0
  4  3  2  0
  5  4  1  0
  6  5  2  0
  7  6  1  0
  8  7  1  0
  9  8  1  0
 10  9  1  0
 11 10  1  0
 12 11  2  0
 13 12  1  0
 14 13  2  0
 15 11  1  0
 15 14  1  0
 16 10  1  0
 17 16  1  0
 18 16  1  0
 18 17  1  0
 19  7  2  0
 20 19  1  0
 21 20  2  0
 22  5  1  0
 22 20  1  0
 23  2  2  0
 23 22  1  0
 24  1  1  0
 25  1  1  0
 26  1  1  0
 27  3  1  0
 28  4  1  0
 29  8  1  0
 30  8  1  0
 31  9  1  0
 10 32  1  1
 33 12  1  0
 34 13  1  0
 35 14  1  0
 36 16  1  0
 37 17  1  0
 38 17  1  0
 39 18  1  0
 40 18  1  0
 41 19  1  0
 42 23  1  0
 43  9  1  0
M  CHG  1   9   1
M  END
>  <b_m_subgroup_collapsed>  (1049) 
0

>  <r_i_docking_score>  (1049) 
-6.8750104838387101

>  <s_m_subgroup_title>  (1049) 
glide-dock_SP_D22_pv

>  <s_m_subgroupid>  (1049) 
glide-dock_SP_D22_pv

>  <Molecule ChEMBL ID>  (1049) 
CHEMBL5722967

>  <Standard Type>  (1049) 
Ki

>  <Standard Value>  (1049) 
10000.0

>  <label>  (1049) 
0

$$$$
CHEMBL5723003
     RDKit          3D

 44 47  0  0  1  0  0  0  0  0999 V2000
   10.8961    4.1905  -13.8638 O   0  0  0  0  0  0  0  0  0  0  0  0
   10.0743    4.9049  -13.2923 C   0  0  0  0  0  0  0  0  0  0  0  0
   10.4780    6.1727  -12.6469 C   0  0  0  0  0  0  0  0  0  0  0  0
    9.5808    6.9224  -11.9675 C   0  0  0  0  0  0  0  0  0  0  0  0
    9.9528    8.2692  -11.3733 C   0  0  0  0  0  0  0  0  0  0  0  0
    9.2859    8.6051  -10.1145 N   0  0  0  0  0  0  0  0  0  0  0  0
    9.6650    7.8285   -8.9289 C   0  0  2  0  0  0  0  0  0  0  0  0
    8.8844    8.2821   -7.6889 C   0  0  0  0  0  0  0  0  0  0  0  0
    9.8143    8.9234   -6.8290 O   0  0  0  0  0  0  0  0  0  0  0  0
   11.0938    8.3555   -7.0321 C   0  0  0  0  0  0  0  0  0  0  0  0
   12.1404    9.3724   -6.5688 C   0  0  0  0  0  0  0  0  0  0  0  0
   12.2596    9.1781   -5.0544 C   0  0  0  0  0  0  0  0  0  0  0  0
   11.7348    7.7655   -4.7531 C   0  0  0  0  0  0  0  0  0  0  0  0
   11.2864    7.1580   -6.0909 C   0  0  0  0  0  0  0  0  0  0  0  0
   11.1221    8.0360   -8.5318 C   0  0  0  0  0  0  0  0  0  0  0  0
    8.2500    6.5398  -11.8466 N   0  0  0  0  0  0  0  0  0  0  0  0
    7.7510    5.3879  -12.4601 C   0  0  0  0  0  0  0  0  0  0  0  0
    6.3871    5.0591  -12.3412 C   0  0  0  0  0  0  0  0  0  0  0  0
    5.8874    3.8989  -12.9639 C   0  0  0  0  0  0  0  0  0  0  0  0
    6.7503    3.0730  -13.7119 C   0  0  0  0  0  0  0  0  0  0  0  0
    6.2784    1.9328  -14.2646 F   0  0  0  0  0  0  0  0  0  0  0  0
    8.1130    3.4054  -13.8462 C   0  0  0  0  0  0  0  0  0  0  0  0
    8.6252    4.5559  -13.2041 C   0  0  0  0  0  0  0  0  0  0  0  0
   11.5031    6.4958  -12.7523 H   0  0  0  0  0  0  0  0  0  0  0  0
   11.0349    8.3254  -11.2569 H   0  0  0  0  0  0  0  0  0  0  0  0
    9.6846    9.0079  -12.1243 H   0  0  0  0  0  0  0  0  0  0  0  0
    8.2717    8.5487  -10.2398 H   0  0  0  0  0  0  0  0  0  0  0  0
    9.4671    6.7692   -9.0971 H   0  0  0  0  0  0  0  0  0  0  0  0
    8.0854    8.9795   -7.9271 H   0  0  0  0  0  0  0  0  0  0  0  0
    8.4463    7.4247   -7.1779 H   0  0  0  0  0  0  0  0  0  0  0  0
   13.0968    9.1628   -7.0480 H   0  0  0  0  0  0  0  0  0  0  0  0
   11.8575   10.3941   -6.8207 H   0  0  0  0  0  0  0  0  0  0  0  0
   13.2849    9.3239   -4.7143 H   0  0  0  0  0  0  0  0  0  0  0  0
   11.6441    9.9145   -4.5378 H   0  0  0  0  0  0  0  0  0  0  0  0
   12.4812    7.1438   -4.2575 H   0  0  0  0  0  0  0  0  0  0  0  0
   10.8864    7.8436   -4.0810 H   0  0  0  0  0  0  0  0  0  0  0  0
   10.3925    6.5432   -5.9877 H   0  0  0  0  0  0  0  0  0  0  0  0
   12.0785    6.5119   -6.4700 H   0  0  0  0  0  0  0  0  0  0  0  0
   11.7093    7.1504   -8.7658 H   0  0  0  0  0  0  0  0  0  0  0  0
   11.5572    8.8787   -9.0706 H   0  0  0  0  0  0  0  0  0  0  0  0
    7.5949    7.0941  -11.2878 H   0  0  0  0  0  0  0  0  0  0  0  0
    5.7260    5.6881  -11.7601 H   0  0  0  0  0  0  0  0  0  0  0  0
    4.8444    3.6347  -12.8584 H   0  0  0  0  0  0  0  0  0  0  0  0
    8.7666    2.7530  -14.4069 H   0  0  0  0  0  0  0  0  0  0  0  0
  2  1  2  0
  3  2  1  0
  4  3  2  0
  5  4  1  0
  6  5  1  0
  7  6  1  0
  8  7  1  0
  9  8  1  0
 10  9  1  0
 11 10  1  0
 12 11  1  0
 13 12  1  0
 14 10  1  0
 14 13  1  0
 15  7  1  0
 15 10  1  0
 16  4  1  0
 17 16  1  0
 18 17  2  0
 19 18  1  0
 20 19  2  0
 21 20  1  0
 22 20  1  0
 23  2  1  0
 23 17  1  0
 23 22  2  0
 24  3  1  0
 25  5  1  0
 26  5  1  0
 27  6  1  0
  7 28  1  6
 29  8  1  0
 30  8  1  0
 31 11  1  0
 32 11  1  0
 33 12  1  0
 34 12  1  0
 35 13  1  0
 36 13  1  0
 37 14  1  0
 38 14  1  0
 39 15  1  0
 40 15  1  0
 41 16  1  0
 42 18  1  0
 43 19  1  0
 44 22  1  0
M  END
>  <b_m_subgroup_collapsed>  (1050) 
0

>  <r_i_docking_score>  (1050) 
-6.873099802104

>  <s_m_subgroup_title>  (1050) 
glide-dock_SP_D22_pv

>  <s_m_subgroupid>  (1050) 
glide-dock_SP_D22_pv

>  <Molecule ChEMBL ID>  (1050) 
CHEMBL5723003

>  <Standard Type>  (1050) 
Ki

>  <Standard Value>  (1050) 
10000.0

>  <label>  (1050) 
0

$$$$
CHEMBL127114
     RDKit          3D

 64 67  0  0  1  0  0  0  0  0999 V2000
    9.3306    4.2245  -18.1408 C   0  0  0  0  0  0  0  0  0  0  0  0
    9.4415    3.2612  -17.1029 O   0  0  0  0  0  0  0  0  0  0  0  0
    9.6884    1.9467  -17.4443 C   0  0  0  0  0  0  0  0  0  0  0  0
    9.7617    1.4922  -18.7866 C   0  0  0  0  0  0  0  0  0  0  0  0
    9.9945    0.1334  -19.0748 C   0  0  0  0  0  0  0  0  0  0  0  0
   10.1529   -0.7922  -18.0290 C   0  0  0  0  0  0  0  0  0  0  0  0
   10.0856   -0.3536  -16.6956 C   0  0  0  0  0  0  0  0  0  0  0  0
    9.8636    1.0052  -16.3978 C   0  0  0  0  0  0  0  0  0  0  0  0
    9.8280    1.3750  -15.0468 N   0  0  0  0  0  0  0  0  0  0  0  0
    8.5447    1.3932  -14.3645 C   0  0  0  0  0  0  0  0  0  0  0  0
    8.1253    2.8376  -14.0444 C   0  0  0  0  0  0  0  0  0  0  0  0
    9.2043    3.5765  -13.3330 N   0  0  0  0  0  0  0  0  0  0  0  0
    8.7366    4.9192  -12.8969 C   0  0  0  0  0  0  0  0  0  0  0  0
    9.7524    5.6989  -12.0401 C   0  0  0  0  0  0  0  0  0  0  0  0
    9.1607    7.0138  -11.5112 C   0  0  0  0  0  0  0  0  0  0  0  0
   10.2080    8.0469  -11.0757 C   0  0  0  0  0  0  0  0  0  0  0  0
   10.8658    7.6938   -9.8233 N   0  0  0  0  0  0  0  0  0  0  0  0
   10.5190    8.1786   -8.6216 C   0  0  0  0  0  0  0  0  0  0  0  0
    9.5947    8.9708   -8.4495 O   0  0  0  0  0  0  0  0  0  0  0  0
   11.3854    7.7232   -7.5047 C   0  0  2  0  0  0  0  0  0  0  0  0
   11.2071    6.2983   -7.0248 C   0  0  0  0  0  0  0  0  0  0  0  0
   10.6914    7.4418   -6.1866 C   0  0  1  0  0  0  0  0  0  0  0  0
   11.3270    7.8103   -4.8827 C   0  0  0  0  0  0  0  0  0  0  0  0
   11.5383    9.1630   -4.5439 C   0  0  0  0  0  0  0  0  0  0  0  0
   12.0857    9.5029   -3.2909 C   0  0  0  0  0  0  0  0  0  0  0  0
   12.4376    8.4989   -2.3706 C   0  0  0  0  0  0  0  0  0  0  0  0
   12.2336    7.1474   -2.7033 C   0  0  0  0  0  0  0  0  0  0  0  0
   11.6861    6.8099   -3.9553 C   0  0  0  0  0  0  0  0  0  0  0  0
   10.4680    3.5939  -14.1202 C   0  0  0  0  0  0  0  0  0  0  0  0
   10.9180    2.1724  -14.5054 C   0  0  0  0  0  0  0  0  0  0  0  0
    9.1641    5.2079  -17.7008 H   0  0  0  0  0  0  0  0  0  0  0  0
   10.2447    4.2792  -18.7333 H   0  0  0  0  0  0  0  0  0  0  0  0
    8.4864    4.0117  -18.7972 H   0  0  0  0  0  0  0  0  0  0  0  0
    9.6379    2.1671  -19.6195 H   0  0  0  0  0  0  0  0  0  0  0  0
   10.0462   -0.1990  -20.1015 H   0  0  0  0  0  0  0  0  0  0  0  0
   10.3261   -1.8356  -18.2470 H   0  0  0  0  0  0  0  0  0  0  0  0
   10.2063   -1.0644  -15.8914 H   0  0  0  0  0  0  0  0  0  0  0  0
    8.6335    0.8097  -13.4474 H   0  0  0  0  0  0  0  0  0  0  0  0
    7.7814    0.9043  -14.9721 H   0  0  0  0  0  0  0  0  0  0  0  0
    7.2137    2.8245  -13.4466 H   0  0  0  0  0  0  0  0  0  0  0  0
    7.8820    3.3625  -14.9683 H   0  0  0  0  0  0  0  0  0  0  0  0
    7.8197    4.7949  -12.3176 H   0  0  0  0  0  0  0  0  0  0  0  0
    8.4693    5.5083  -13.7761 H   0  0  0  0  0  0  0  0  0  0  0  0
   10.6318    5.9365  -12.6381 H   0  0  0  0  0  0  0  0  0  0  0  0
   10.0858    5.0899  -11.1996 H   0  0  0  0  0  0  0  0  0  0  0  0
    8.4853    6.8074  -10.6813 H   0  0  0  0  0  0  0  0  0  0  0  0
    8.5493    7.4713  -12.2904 H   0  0  0  0  0  0  0  0  0  0  0  0
    9.7141    9.0115  -10.9798 H   0  0  0  0  0  0  0  0  0  0  0  0
   10.9660    8.1706  -11.8477 H   0  0  0  0  0  0  0  0  0  0  0  0
   11.6503    7.0629   -9.8711 H   0  0  0  0  0  0  0  0  0  0  0  0
   12.3738    8.1750   -7.4480 H   0  0  0  0  0  0  0  0  0  0  0  0
   12.0986    5.7725   -6.6901 H   0  0  0  0  0  0  0  0  0  0  0  0
   10.4714    5.6844   -7.5413 H   0  0  0  0  0  0  0  0  0  0  0  0
    9.6100    7.5620   -6.1265 H   0  0  0  0  0  0  0  0  0  0  0  0
   11.2599    9.9431   -5.2376 H   0  0  0  0  0  0  0  0  0  0  0  0
   12.2194   10.5403   -3.0246 H   0  0  0  0  0  0  0  0  0  0  0  0
   12.8506    8.7698   -1.4100 H   0  0  0  0  0  0  0  0  0  0  0  0
   12.4886    6.3678   -2.0000 H   0  0  0  0  0  0  0  0  0  0  0  0
   11.5176    5.7724   -4.1979 H   0  0  0  0  0  0  0  0  0  0  0  0
   10.3328    4.2104  -15.0082 H   0  0  0  0  0  0  0  0  0  0  0  0
   11.2745    4.0494  -13.5473 H   0  0  0  0  0  0  0  0  0  0  0  0
   11.2871    1.6586  -13.6190 H   0  0  0  0  0  0  0  0  0  0  0  0
   11.7472    2.2167  -15.2130 H   0  0  0  0  0  0  0  0  0  0  0  0
    9.4026    3.0429  -12.4971 H   0  0  0  0  0  0  0  0  0  0  0  0
  2  1  1  0
  3  2  1  0
  4  3  2  0
  5  4  1  0
  6  5  2  0
  7  6  1  0
  8  3  1  0
  8  7  2  0
  9  8  1  0
 10  9  1  0
 11 10  1  0
 12 11  1  0
 13 12  1  0
 14 13  1  0
 15 14  1  0
 16 15  1  0
 17 16  1  0
 18 17  1  0
 19 18  2  0
 20 18  1  0
 21 20  1  0
 22 20  1  0
 22 21  1  0
 23 22  1  0
 24 23  2  0
 25 24  1  0
 26 25  2  0
 27 26  1  0
 28 23  1  0
 28 27  2  0
 29 12  1  0
 30  9  1  0
 30 29  1  0
 31  1  1  0
 32  1  1  0
 33  1  1  0
 34  4  1  0
 35  5  1  0
 36  6  1  0
 37  7  1  0
 38 10  1  0
 39 10  1  0
 40 11  1  0
 41 11  1  0
 42 13  1  0
 43 13  1  0
 44 14  1  0
 45 14  1  0
 46 15  1  0
 47 15  1  0
 48 16  1  0
 49 16  1  0
 50 17  1  0
 20 51  1  1
 52 21  1  0
 53 21  1  0
 22 54  1  6
 55 24  1  0
 56 25  1  0
 57 26  1  0
 58 27  1  0
 59 28  1  0
 60 29  1  0
 61 29  1  0
 62 30  1  0
 63 30  1  0
 64 12  1  0
M  CHG  1  12   1
M  END
>  <b_m_subgroup_collapsed>  (1051) 
0

>  <r_i_docking_score>  (1051) 
-6.8723287960740196

>  <s_m_subgroup_title>  (1051) 
glide-dock_SP_D22_pv

>  <s_m_subgroupid>  (1051) 
glide-dock_SP_D22_pv

>  <Molecule ChEMBL ID>  (1051) 
CHEMBL127114

>  <Standard Type>  (1051) 
Ki

>  <Standard Value>  (1051) 
81.0

>  <label>  (1051) 
1

$$$$
CHEMBL1223749
     RDKit          3D

 57 60  0  0  1  0  0  0  0  0999 V2000
    7.9255   -0.1600  -17.7662 Cl  0  0  0  0  0  0  0  0  0  0  0  0
    7.2749    0.4245  -16.2741 C   0  0  0  0  0  0  0  0  0  0  0  0
    6.3077   -0.3527  -15.6124 C   0  0  0  0  0  0  0  0  0  0  0  0
    5.7698    0.0790  -14.3911 C   0  0  0  0  0  0  0  0  0  0  0  0
    6.1784    1.3072  -13.8475 C   0  0  0  0  0  0  0  0  0  0  0  0
    7.1305    2.1259  -14.5053 C   0  0  0  0  0  0  0  0  0  0  0  0
    7.4520    3.3734  -13.9207 N   0  0  0  0  0  0  0  0  0  0  0  0
    6.4176    4.1834  -13.2805 C   0  0  0  0  0  0  0  0  0  0  0  0
    6.8142    4.5472  -11.8442 C   0  0  0  0  0  0  0  0  0  0  0  0
    8.1718    5.1490  -11.7922 N   0  0  0  0  0  0  0  0  0  0  0  0
    8.5672    5.5384  -10.4180 C   0  0  0  0  0  0  0  0  0  0  0  0
    9.4838    6.7763  -10.3959 C   0  0  0  0  0  0  0  0  0  0  0  0
   10.3673    6.8613   -9.1429 C   0  0  0  0  0  0  0  0  0  0  0  0
    9.6279    6.6179   -7.8129 C   0  0  0  0  0  0  0  0  0  0  0  0
   10.5511    6.5723   -6.6843 N   0  0  0  0  0  0  0  0  0  0  0  0
   10.8849    7.7461   -6.0022 C   0  0  0  0  0  0  0  0  0  0  0  0
   10.6859    8.9219   -6.6369 N   0  0  0  0  0  0  0  0  0  0  0  0
   10.8860   10.1138   -6.0582 C   0  0  0  0  0  0  0  0  0  0  0  0
   11.2795   10.1725   -4.7214 C   0  0  0  0  0  0  0  0  0  0  0  0
   11.6208    9.0004   -4.0408 C   0  0  0  0  0  0  0  0  0  0  0  0
   12.1350    9.0768   -2.7351 C   0  0  0  0  0  0  0  0  0  0  0  0
   12.4599    7.8982   -2.0482 C   0  0  0  0  0  0  0  0  0  0  0  0
   12.2148    6.6499   -2.6488 C   0  0  0  0  0  0  0  0  0  0  0  0
   11.6864    6.5752   -3.9549 C   0  0  0  0  0  0  0  0  0  0  0  0
   11.4066    7.7539   -4.6788 C   0  0  0  0  0  0  0  0  0  0  0  0
    9.1985    4.2820  -12.4339 C   0  0  0  0  0  0  0  0  0  0  0  0
    8.8194    3.8767  -13.8634 C   0  0  0  0  0  0  0  0  0  0  0  0
    7.7002    1.6596  -15.7312 C   0  0  0  0  0  0  0  0  0  0  0  0
    8.8807    2.5719  -16.6255 Cl  0  0  0  0  0  0  0  0  0  0  0  0
    5.9981   -1.2993  -16.0318 H   0  0  0  0  0  0  0  0  0  0  0  0
    5.0419   -0.5315  -13.8771 H   0  0  0  0  0  0  0  0  0  0  0  0
    5.7494    1.6073  -12.9034 H   0  0  0  0  0  0  0  0  0  0  0  0
    6.2997    5.1006  -13.8467 H   0  0  0  0  0  0  0  0  0  0  0  0
    5.4369    3.7091  -13.2998 H   0  0  0  0  0  0  0  0  0  0  0  0
    6.0843    5.2537  -11.4472 H   0  0  0  0  0  0  0  0  0  0  0  0
    6.7835    3.6617  -11.2088 H   0  0  0  0  0  0  0  0  0  0  0  0
    7.6860    5.7716   -9.8207 H   0  0  0  0  0  0  0  0  0  0  0  0
    9.0446    4.6861   -9.9321 H   0  0  0  0  0  0  0  0  0  0  0  0
   10.1410    6.7885  -11.2663 H   0  0  0  0  0  0  0  0  0  0  0  0
    8.8789    7.6800  -10.4764 H   0  0  0  0  0  0  0  0  0  0  0  0
   11.1709    6.1385   -9.2389 H   0  0  0  0  0  0  0  0  0  0  0  0
   10.8624    7.8319   -9.1304 H   0  0  0  0  0  0  0  0  0  0  0  0
    8.8501    7.3669   -7.6538 H   0  0  0  0  0  0  0  0  0  0  0  0
    9.1167    5.6566   -7.8297 H   0  0  0  0  0  0  0  0  0  0  0  0
   10.5994    5.7000   -6.1759 H   0  0  0  0  0  0  0  0  0  0  0  0
   10.6491   10.9810   -6.6459 H   0  0  0  0  0  0  0  0  0  0  0  0
   11.2860   11.1273   -4.2327 H   0  0  0  0  0  0  0  0  0  0  0  0
   12.2977   10.0341   -2.2593 H   0  0  0  0  0  0  0  0  0  0  0  0
   12.8794    7.9559   -1.0536 H   0  0  0  0  0  0  0  0  0  0  0  0
   12.4430    5.7478   -2.1032 H   0  0  0  0  0  0  0  0  0  0  0  0
   11.5136    5.6132   -4.3985 H   0  0  0  0  0  0  0  0  0  0  0  0
   10.1660    4.7819  -12.4456 H   0  0  0  0  0  0  0  0  0  0  0  0
    9.3323    3.3730  -11.8468 H   0  0  0  0  0  0  0  0  0  0  0  0
    9.5310    3.1185  -14.1885 H   0  0  0  0  0  0  0  0  0  0  0  0
    8.9112    4.7273  -14.5398 H   0  0  0  0  0  0  0  0  0  0  0  0
    8.1070    6.0018  -12.3289 H   0  0  0  0  0  0  0  0  0  0  0  0
   10.3340    8.9030   -7.5954 H   0  0  0  0  0  0  0  0  0  0  0  0
  2  1  1  0
  3  2  1  0
  4  3  2  0
  5  4  1  0
  6  5  2  0
  7  6  1  0
  8  7  1  0
  9  8  1  0
 10  9  1  0
 11 10  1  0
 12 11  1  0
 13 12  1  0
 14 13  1  0
 15 14  1  0
 16 15  1  0
 17 16  2  0
 18 17  1  0
 19 18  2  0
 20 19  1  0
 21 20  2  0
 22 21  1  0
 23 22  2  0
 24 23  1  0
 25 16  1  0
 25 20  1  0
 25 24  2  0
 26 10  1  0
 27  7  1  0
 27 26  1  0
 28  2  2  0
 28  6  1  0
 29 28  1  0
 30  3  1  0
 31  4  1  0
 32  5  1  0
 33  8  1  0
 34  8  1  0
 35  9  1  0
 36  9  1  0
 37 11  1  0
 38 11  1  0
 39 12  1  0
 40 12  1  0
 41 13  1  0
 42 13  1  0
 43 14  1  0
 44 14  1  0
 45 15  1  0
 46 18  1  0
 47 19  1  0
 48 21  1  0
 49 22  1  0
 50 23  1  0
 51 24  1  0
 52 26  1  0
 53 26  1  0
 54 27  1  0
 55 27  1  0
 56 10  1  0
 57 17  1  0
M  CHG  2  10   1  17   1
M  END
>  <b_m_subgroup_collapsed>  (1052) 
0

>  <r_i_docking_score>  (1052) 
-6.8699236571356197

>  <s_m_subgroup_title>  (1052) 
glide-dock_SP_D22_pv

>  <s_m_subgroupid>  (1052) 
glide-dock_SP_D22_pv

>  <Molecule ChEMBL ID>  (1052) 
CHEMBL1223749

>  <Standard Type>  (1052) 
Ki

>  <Standard Value>  (1052) 
3.1

>  <label>  (1052) 
1

$$$$
CHEMBL455288
     RDKit          3D

 95100  0  0  1  0  0  0  0  0999 V2000
   11.6858    3.1325  -15.1421 O   0  0  0  0  0  0  0  0  0  0  0  0
   10.6159    3.6112  -14.7649 C   0  0  0  0  0  0  0  0  0  0  0  0
   10.4628    4.9112  -14.4246 O   0  0  0  0  0  0  0  0  0  0  0  0
   11.5844    5.7865  -14.4493 C   0  0  0  0  0  0  0  0  0  0  0  0
   11.8794    6.2722  -15.8848 C   0  0  0  0  0  0  0  0  0  0  0  0
   13.1835    6.9365  -15.9654 N   0  0  0  0  0  0  0  0  0  0  0  0
   13.3275    7.8058  -17.1375 C   0  0  0  0  0  0  0  0  0  0  0  0
   13.4516    6.9977  -18.4434 C   0  0  0  0  0  0  0  0  0  0  0  0
   14.6086    6.0727  -18.3609 N   0  0  0  0  0  0  0  0  0  0  0  0
   14.9484    5.3739  -19.6279 C   0  0  0  0  0  0  0  0  0  0  0  0
   13.7884    4.5648  -20.2435 C   0  0  0  0  0  0  0  0  0  0  0  0
   14.2105    3.7726  -21.5004 C   0  0  0  0  0  0  0  0  0  0  0  0
   14.9229    2.5109  -21.1994 N   0  0  0  0  0  0  0  0  0  0  0  0
   16.3210    2.4451  -21.4652 C   0  0  0  0  0  0  0  0  0  0  0  0
   16.9805    3.3593  -22.3375 C   0  0  0  0  0  0  0  0  0  0  0  0
   18.3728    3.3237  -22.5389 C   0  0  0  0  0  0  0  0  0  0  0  0
   19.1592    2.3674  -21.8822 C   0  0  0  0  0  0  0  0  0  0  0  0
   18.5343    1.4313  -21.0499 C   0  0  0  0  0  0  0  0  0  0  0  0
   17.1368    1.4469  -20.8636 C   0  0  0  0  0  0  0  0  0  0  0  0
   16.4858    0.1721  -19.8466 S   0  0  0  0  0  0  0  0  0  0  0  0
   14.7472    0.3416  -20.0110 C   0  0  0  0  0  0  0  0  0  0  0  0
   13.9699   -0.6988  -19.4658 C   0  0  0  0  0  0  0  0  0  0  0  0
   12.5689   -0.6277  -19.4708 C   0  0  0  0  0  0  0  0  0  0  0  0
   11.9344    0.4856  -20.0436 C   0  0  0  0  0  0  0  0  0  0  0  0
   10.4141    0.5925  -20.0470 C   0  0  0  0  0  0  0  0  0  0  0  0
    9.8676   -0.2219  -19.1438 F   0  0  0  0  0  0  0  0  0  0  0  0
   10.0400    1.8404  -19.7635 F   0  0  0  0  0  0  0  0  0  0  0  0
    9.9524    0.2680  -21.2528 F   0  0  0  0  0  0  0  0  0  0  0  0
   12.7146    1.5032  -20.6303 C   0  0  0  0  0  0  0  0  0  0  0  0
   14.1402    1.4679  -20.6266 C   0  0  0  0  0  0  0  0  0  0  0  0
   14.4828    5.1760  -17.1889 C   0  0  0  0  0  0  0  0  0  0  0  0
   14.3229    6.0102  -15.9010 C   0  0  0  0  0  0  0  0  0  0  0  0
    9.3544    2.8203  -14.6613 C   0  0  0  0  0  0  0  0  0  0  0  0
    9.3747    1.4486  -14.9926 C   0  0  0  0  0  0  0  0  0  0  0  0
    8.2004    0.6758  -14.9224 C   0  0  0  0  0  0  0  0  0  0  0  0
    6.9736    1.2639  -14.5349 C   0  0  0  0  0  0  0  0  0  0  0  0
    5.7835    0.5723  -14.4731 O   0  0  0  0  0  0  0  0  0  0  0  0
    5.6702   -0.5723  -15.3096 C   0  0  0  0  0  0  0  0  0  0  0  0
    4.1909   -0.8773  -15.5978 C   0  0  0  0  0  0  0  0  0  0  0  0
    3.8984   -1.2158  -17.0704 C   0  0  0  0  0  0  0  0  0  0  0  0
    4.1625   -2.6277  -17.4470 N   0  0  0  0  0  0  0  0  0  0  0  0
    3.5054   -2.9760  -18.7351 C   0  0  0  0  0  0  0  0  0  0  0  0
    3.6865   -4.4615  -19.0976 C   0  0  0  0  0  0  0  0  0  0  0  0
    5.1684   -4.8499  -19.1226 C   0  0  0  0  0  0  0  0  0  0  0  0
    5.8088   -4.4928  -17.7798 C   0  0  0  0  0  0  0  0  0  0  0  0
    5.6068   -3.0039  -17.4524 C   0  0  0  0  0  0  0  0  0  0  0  0
    6.9566    2.6301  -14.1879 C   0  0  0  0  0  0  0  0  0  0  0  0
    8.1328    3.4017  -14.2471 C   0  0  0  0  0  0  0  0  0  0  0  0
   12.4401    5.2835  -14.0017 H   0  0  0  0  0  0  0  0  0  0  0  0
   11.3703    6.6430  -13.8116 H   0  0  0  0  0  0  0  0  0  0  0  0
   11.0978    6.9716  -16.1724 H   0  0  0  0  0  0  0  0  0  0  0  0
   11.8207    5.4508  -16.5971 H   0  0  0  0  0  0  0  0  0  0  0  0
   14.2155    8.4267  -17.0084 H   0  0  0  0  0  0  0  0  0  0  0  0
   12.4873    8.4992  -17.1936 H   0  0  0  0  0  0  0  0  0  0  0  0
   13.5900    7.6816  -19.2817 H   0  0  0  0  0  0  0  0  0  0  0  0
   12.5288    6.4500  -18.6350 H   0  0  0  0  0  0  0  0  0  0  0  0
   15.8035    4.7192  -19.4534 H   0  0  0  0  0  0  0  0  0  0  0  0
   15.2864    6.1187  -20.3497 H   0  0  0  0  0  0  0  0  0  0  0  0
   13.0003    5.2547  -20.5457 H   0  0  0  0  0  0  0  0  0  0  0  0
   13.3398    3.9045  -19.5020 H   0  0  0  0  0  0  0  0  0  0  0  0
   14.7551    4.4698  -22.1250 H   0  0  0  0  0  0  0  0  0  0  0  0
   13.3434    3.5537  -22.1215 H   0  0  0  0  0  0  0  0  0  0  0  0
   16.4646    4.1113  -22.9057 H   0  0  0  0  0  0  0  0  0  0  0  0
   18.8475    4.0331  -23.2031 H   0  0  0  0  0  0  0  0  0  0  0  0
   20.2312    2.3457  -22.0319 H   0  0  0  0  0  0  0  0  0  0  0  0
   19.1339    0.6875  -20.5481 H   0  0  0  0  0  0  0  0  0  0  0  0
   14.4547   -1.5583  -19.0269 H   0  0  0  0  0  0  0  0  0  0  0  0
   11.9889   -1.4274  -19.0328 H   0  0  0  0  0  0  0  0  0  0  0  0
   12.1608    2.3152  -21.0721 H   0  0  0  0  0  0  0  0  0  0  0  0
   13.6518    4.4826  -17.3126 H   0  0  0  0  0  0  0  0  0  0  0  0
   15.3826    4.5655  -17.1038 H   0  0  0  0  0  0  0  0  0  0  0  0
   15.2327    6.5873  -15.7287 H   0  0  0  0  0  0  0  0  0  0  0  0
   14.2285    5.3467  -15.0463 H   0  0  0  0  0  0  0  0  0  0  0  0
   10.2929    0.9741  -15.3032 H   0  0  0  0  0  0  0  0  0  0  0  0
    8.2616   -0.3733  -15.1763 H   0  0  0  0  0  0  0  0  0  0  0  0
    6.1880   -0.3909  -16.2535 H   0  0  0  0  0  0  0  0  0  0  0  0
    6.1462   -1.4273  -14.8280 H   0  0  0  0  0  0  0  0  0  0  0  0
    3.8186   -1.6562  -14.9325 H   0  0  0  0  0  0  0  0  0  0  0  0
    3.6118    0.0148  -15.3597 H   0  0  0  0  0  0  0  0  0  0  0  0
    2.8399   -1.0279  -17.2338 H   0  0  0  0  0  0  0  0  0  0  0  0
    4.4236   -0.5414  -17.7447 H   0  0  0  0  0  0  0  0  0  0  0  0
    2.4409   -2.7650  -18.6595 H   0  0  0  0  0  0  0  0  0  0  0  0
    3.9040   -2.3447  -19.5302 H   0  0  0  0  0  0  0  0  0  0  0  0
    3.1617   -5.0889  -18.3769 H   0  0  0  0  0  0  0  0  0  0  0  0
    3.2304   -4.6670  -20.0672 H   0  0  0  0  0  0  0  0  0  0  0  0
    5.2773   -5.9175  -19.3180 H   0  0  0  0  0  0  0  0  0  0  0  0
    5.6803   -4.3250  -19.9299 H   0  0  0  0  0  0  0  0  0  0  0  0
    5.3721   -5.1044  -16.9882 H   0  0  0  0  0  0  0  0  0  0  0  0
    6.8744   -4.7279  -17.7952 H   0  0  0  0  0  0  0  0  0  0  0  0
    6.1455   -2.3846  -18.1719 H   0  0  0  0  0  0  0  0  0  0  0  0
    6.0666   -2.8326  -16.4829 H   0  0  0  0  0  0  0  0  0  0  0  0
    6.0304    3.0926  -13.8801 H   0  0  0  0  0  0  0  0  0  0  0  0
    8.0761    4.4460  -13.9745 H   0  0  0  0  0  0  0  0  0  0  0  0
    3.6918   -3.2361  -16.7688 H   0  0  0  0  0  0  0  0  0  0  0  0
   15.4036    6.6607  -18.1555 H   0  0  0  0  0  0  0  0  0  0  0  0
  2  1  2  0
  3  2  1  0
  4  3  1  0
  5  4  1  0
  6  5  1  0
  7  6  1  0
  8  7  1  0
  9  8  1  0
 10  9  1  0
 11 10  1  0
 12 11  1  0
 13 12  1  0
 14 13  1  0
 15 14  2  0
 16 15  1  0
 17 16  2  0
 18 17  1  0
 19 14  1  0
 19 18  2  0
 20 19  1  0
 21 20  1  0
 22 21  1  0
 23 22  2  0
 24 23  1  0
 25 24  1  0
 26 25  1  0
 27 25  1  0
 28 25  1  0
 29 24  2  0
 30 13  1  0
 30 21  2  0
 30 29  1  0
 31  9  1  0
 32  6  1  0
 32 31  1  0
 33  2  1  0
 34 33  1  0
 35 34  2  0
 36 35  1  0
 37 36  1  0
 38 37  1  0
 39 38  1  0
 40 39  1  0
 41 40  1  0
 42 41  1  0
 43 42  1  0
 44 43  1  0
 45 44  1  0
 46 41  1  0
 46 45  1  0
 47 36  2  0
 48 33  2  0
 48 47  1  0
 49  4  1  0
 50  4  1  0
 51  5  1  0
 52  5  1  0
 53  7  1  0
 54  7  1  0
 55  8  1  0
 56  8  1  0
 57 10  1  0
 58 10  1  0
 59 11  1  0
 60 11  1  0
 61 12  1  0
 62 12  1  0
 63 15  1  0
 64 16  1  0
 65 17  1  0
 66 18  1  0
 67 22  1  0
 68 23  1  0
 69 29  1  0
 70 31  1  0
 71 31  1  0
 72 32  1  0
 73 32  1  0
 74 34  1  0
 75 35  1  0
 76 38  1  0
 77 38  1  0
 78 39  1  0
 79 39  1  0
 80 40  1  0
 81 40  1  0
 82 42  1  0
 83 42  1  0
 84 43  1  0
 85 43  1  0
 86 44  1  0
 87 44  1  0
 88 45  1  0
 89 45  1  0
 90 46  1  0
 91 46  1  0
 92 47  1  0
 93 48  1  0
 94 41  1  0
 95  9  1  0
M  CHG  2   9   1  41   1
M  END
>  <b_m_subgroup_collapsed>  (1053) 
0

>  <r_i_docking_score>  (1053) 
-6.8682990051077901

>  <s_m_subgroup_title>  (1053) 
glide-dock_SP_D22_pv

>  <s_m_subgroupid>  (1053) 
glide-dock_SP_D22_pv

>  <Molecule ChEMBL ID>  (1053) 
CHEMBL455288

>  <Standard Type>  (1053) 
Ki

>  <Standard Value>  (1053) 
47.0

>  <label>  (1053) 
1

$$$$
CHEMBL46374
     RDKit          3D

 39 40  0  0  1  0  0  0  0  0999 V2000
    5.7354    4.0135  -11.8469 O   0  0  0  0  0  0  0  0  0  0  0  0
    6.0128    5.2320  -12.5008 C   0  0  0  0  0  0  0  0  0  0  0  0
    7.5265    5.4660  -12.6224 C   0  0  0  0  0  0  0  0  0  0  0  0
    8.0860    6.1728  -11.4455 N   0  0  2  0  0  0  0  0  0  0  0  0
    9.1160    7.1802  -11.8114 C   0  0  0  0  0  0  0  0  0  0  0  0
    9.5262    8.0201  -10.5922 C   0  0  0  0  0  0  0  0  0  0  0  0
   10.0225    7.1360   -9.4372 C   0  0  1  0  0  0  0  0  0  0  0  0
   10.3501    7.9829   -8.1965 C   0  0  0  0  0  0  0  0  0  0  0  0
   10.9241    7.1195   -7.2320 O   0  0  0  0  0  0  0  0  0  0  0  0
   11.2330    7.6229   -5.9920 C   0  0  0  0  0  0  0  0  0  0  0  0
   11.6841    6.6864   -5.0459 C   0  0  0  0  0  0  0  0  0  0  0  0
   12.0529    7.0763   -3.7517 C   0  0  0  0  0  0  0  0  0  0  0  0
   11.9678    8.4278   -3.3873 C   0  0  0  0  0  0  0  0  0  0  0  0
   12.4881    8.9732   -1.4469 I   0  0  0  0  0  0  0  0  0  0  0  0
   11.5125    9.3841   -4.3164 C   0  0  0  0  0  0  0  0  0  0  0  0
   11.1464    8.9883   -5.6193 C   0  0  0  0  0  0  0  0  0  0  0  0
    8.9740    6.0472   -9.1270 C   0  0  0  0  0  0  0  0  0  0  0  0
    8.5748    5.2581  -10.3848 C   0  0  0  0  0  0  0  0  0  0  0  0
    5.6860    4.1725  -10.9060 H   0  0  0  0  0  0  0  0  0  0  0  0
    5.5759    5.1596  -13.4965 H   0  0  0  0  0  0  0  0  0  0  0  0
    5.5157    6.0617  -11.9952 H   0  0  0  0  0  0  0  0  0  0  0  0
    8.0638    4.5377  -12.8268 H   0  0  0  0  0  0  0  0  0  0  0  0
    7.6867    6.0870  -13.5010 H   0  0  0  0  0  0  0  0  0  0  0  0
    9.9850    6.6792  -12.2417 H   0  0  0  0  0  0  0  0  0  0  0  0
    8.7191    7.8515  -12.5737 H   0  0  0  0  0  0  0  0  0  0  0  0
   10.3063    8.7254  -10.8809 H   0  0  0  0  0  0  0  0  0  0  0  0
    8.6787    8.6234  -10.2610 H   0  0  0  0  0  0  0  0  0  0  0  0
   10.9407    6.6432   -9.7603 H   0  0  0  0  0  0  0  0  0  0  0  0
   11.0604    8.7705   -8.4559 H   0  0  0  0  0  0  0  0  0  0  0  0
    9.4465    8.4546   -7.8047 H   0  0  0  0  0  0  0  0  0  0  0  0
   11.7686    5.6560   -5.3383 H   0  0  0  0  0  0  0  0  0  0  0  0
   12.3946    6.3380   -3.0400 H   0  0  0  0  0  0  0  0  0  0  0  0
   11.4366   10.4210   -4.0261 H   0  0  0  0  0  0  0  0  0  0  0  0
   10.8030    9.7409   -6.3141 H   0  0  0  0  0  0  0  0  0  0  0  0
    9.3570    5.3583   -8.3734 H   0  0  0  0  0  0  0  0  0  0  0  0
    8.0865    6.5064   -8.6917 H   0  0  0  0  0  0  0  0  0  0  0  0
    7.8000    4.5346  -10.1330 H   0  0  0  0  0  0  0  0  0  0  0  0
    9.4271    4.6848  -10.7557 H   0  0  0  0  0  0  0  0  0  0  0  0
    7.3315    6.7256  -11.0247 H   0  0  0  0  0  0  0  0  0  0  0  0
  2  1  1  0
  3  2  1  0
  4  3  1  0
  5  4  1  0
  6  5  1  0
  7  6  1  0
  8  7  1  0
  9  8  1  0
 10  9  1  0
 11 10  1  0
 12 11  2  0
 13 12  1  0
 14 13  1  0
 15 13  2  0
 16 10  2  0
 16 15  1  0
 17  7  1  0
 18  4  1  0
 18 17  1  0
 19  1  1  0
 20  2  1  0
 21  2  1  0
 22  3  1  0
 23  3  1  0
 24  5  1  0
 25  5  1  0
 26  6  1  0
 27  6  1  0
  7 28  1  6
 29  8  1  0
 30  8  1  0
 31 11  1  0
 32 12  1  0
 33 15  1  0
 34 16  1  0
 35 17  1  0
 36 17  1  0
 37 18  1  0
 38 18  1  0
  4 39  1  1
M  CHG  1   4   1
M  END
>  <b_m_subgroup_collapsed>  (1054) 
0

>  <r_i_docking_score>  (1054) 
-6.8642822897339402

>  <s_m_subgroup_title>  (1054) 
glide-dock_SP_D22_pv

>  <s_m_subgroupid>  (1054) 
glide-dock_SP_D22_pv

>  <Molecule ChEMBL ID>  (1054) 
CHEMBL46374

>  <Standard Type>  (1054) 
Ki

>  <Standard Value>  (1054) 
10000.0

>  <label>  (1054) 
0

$$$$
CHEMBL5722982
     RDKit          3D

 42 44  0  0  1  0  0  0  0  0999 V2000
   10.9149    4.4422  -13.9106 O   0  0  0  0  0  0  0  0  0  0  0  0
   10.0455    5.0526  -13.2887 C   0  0  0  0  0  0  0  0  0  0  0  0
   10.3644    6.2784  -12.5275 C   0  0  0  0  0  0  0  0  0  0  0  0
    9.4068    6.9423  -11.8438 C   0  0  0  0  0  0  0  0  0  0  0  0
    9.6852    8.1583  -10.9828 C   0  0  0  0  0  0  0  0  0  0  0  0
   10.6131    7.8082   -9.9219 N   0  0  0  0  0  0  0  0  0  0  0  0
   10.8237    8.9181   -9.0093 C   0  0  0  0  0  0  0  0  0  0  0  0
   11.5475    8.3973   -7.7587 C   0  0  0  0  0  0  0  0  0  0  0  0
   10.5928    7.6388   -6.8138 C   0  0  0  0  0  0  0  0  0  0  0  0
   11.2860    6.9901   -5.7531 O   0  0  0  0  0  0  0  0  0  0  0  0
   11.6019    7.7018   -4.6166 C   0  0  0  0  0  0  0  0  0  0  0  0
   11.4565    9.1023   -4.4647 C   0  0  0  0  0  0  0  0  0  0  0  0
   11.8048    9.6898   -3.2369 C   0  0  0  0  0  0  0  0  0  0  0  0
   12.3061    8.8712   -2.2105 C   0  0  0  0  0  0  0  0  0  0  0  0
   12.4441    7.5378   -2.3348 N   0  0  0  0  0  0  0  0  0  0  0  0
   12.0861    6.9758   -3.5085 C   0  0  0  0  0  0  0  0  0  0  0  0
    8.0861    6.5251  -11.8469 N   0  0  0  0  0  0  0  0  0  0  0  0
    7.6731    5.3647  -12.5100 C   0  0  0  0  0  0  0  0  0  0  0  0
    6.3309    4.9438  -12.4441 C   0  0  0  0  0  0  0  0  0  0  0  0
    5.9272    3.7714  -13.1151 C   0  0  0  0  0  0  0  0  0  0  0  0
    6.8664    3.0168  -13.8463 C   0  0  0  0  0  0  0  0  0  0  0  0
    6.4862    1.8809  -14.4763 F   0  0  0  0  0  0  0  0  0  0  0  0
    8.2094    3.4334  -13.9091 C   0  0  0  0  0  0  0  0  0  0  0  0
    8.6216    4.6089  -13.2442 C   0  0  0  0  0  0  0  0  0  0  0  0
   11.3923    6.6124  -12.5114 H   0  0  0  0  0  0  0  0  0  0  0  0
    8.7529    8.5199  -10.5472 H   0  0  0  0  0  0  0  0  0  0  0  0
   10.0851    8.9623  -11.5985 H   0  0  0  0  0  0  0  0  0  0  0  0
   11.4972    7.5188  -10.3137 H   0  0  0  0  0  0  0  0  0  0  0  0
    9.8725    9.3722   -8.7275 H   0  0  0  0  0  0  0  0  0  0  0  0
   11.4165    9.6810   -9.5155 H   0  0  0  0  0  0  0  0  0  0  0  0
   11.9972    9.2412   -7.2379 H   0  0  0  0  0  0  0  0  0  0  0  0
   12.3807    7.7533   -8.0425 H   0  0  0  0  0  0  0  0  0  0  0  0
   10.0893    6.8509   -7.3748 H   0  0  0  0  0  0  0  0  0  0  0  0
    9.7943    8.2829   -6.4430 H   0  0  0  0  0  0  0  0  0  0  0  0
   11.0697    9.7319   -5.2503 H   0  0  0  0  0  0  0  0  0  0  0  0
   11.6866   10.7481   -3.0674 H   0  0  0  0  0  0  0  0  0  0  0  0
   12.5859    9.2973   -1.2570 H   0  0  0  0  0  0  0  0  0  0  0  0
   12.1927    5.9027   -3.5685 H   0  0  0  0  0  0  0  0  0  0  0  0
    7.4106    7.0207  -11.2470 H   0  0  0  0  0  0  0  0  0  0  0  0
    5.6129    5.5150  -11.8718 H   0  0  0  0  0  0  0  0  0  0  0  0
    4.8985    3.4473  -13.0618 H   0  0  0  0  0  0  0  0  0  0  0  0
    8.9223    2.8383  -14.4617 H   0  0  0  0  0  0  0  0  0  0  0  0
  2  1  2  0
  3  2  1  0
  4  3  2  0
  5  4  1  0
  6  5  1  0
  7  6  1  0
  8  7  1  0
  9  8  1  0
 10  9  1  0
 11 10  1  0
 12 11  1  0
 13 12  2  0
 14 13  1  0
 15 14  2  0
 16 11  2  0
 16 15  1  0
 17  4  1  0
 18 17  1  0
 19 18  2  0
 20 19  1  0
 21 20  2  0
 22 21  1  0
 23 21  1  0
 24  2  1  0
 24 18  1  0
 24 23  2  0
 25  3  1  0
 26  5  1  0
 27  5  1  0
 28  6  1  0
 29  7  1  0
 30  7  1  0
 31  8  1  0
 32  8  1  0
 33  9  1  0
 34  9  1  0
 35 12  1  0
 36 13  1  0
 37 14  1  0
 38 16  1  0
 39 17  1  0
 40 19  1  0
 41 20  1  0
 42 23  1  0
M  END
>  <b_m_subgroup_collapsed>  (1055) 
0

>  <r_i_docking_score>  (1055) 
-6.8607394718524501

>  <s_m_subgroup_title>  (1055) 
glide-dock_SP_D22_pv

>  <s_m_subgroupid>  (1055) 
glide-dock_SP_D22_pv

>  <Molecule ChEMBL ID>  (1055) 
CHEMBL5722982

>  <Standard Type>  (1055) 
Ki

>  <Standard Value>  (1055) 
10000.0

>  <label>  (1055) 
0

$$$$
CHEMBL91621
     RDKit          3D

 46 48  0  0  1  0  0  0  0  0999 V2000
    9.5615    4.8413  -12.1862 O   0  0  0  0  0  0  0  0  0  0  0  0
    8.5269    5.4108  -11.8357 C   0  0  0  0  0  0  0  0  0  0  0  0
    7.3070    5.1690  -12.3366 N   0  0  0  0  0  0  0  0  0  0  0  0
    6.9070    3.9595  -12.9527 C   0  0  0  0  0  0  0  0  0  0  0  0
    5.6865    3.3893  -12.5432 C   0  0  0  0  0  0  0  0  0  0  0  0
    5.2854    2.1380  -13.0464 C   0  0  0  0  0  0  0  0  0  0  0  0
    6.0917    1.4620  -13.9827 C   0  0  0  0  0  0  0  0  0  0  0  0
    7.2827    2.0569  -14.4424 C   0  0  0  0  0  0  0  0  0  0  0  0
    7.6915    3.3049  -13.9310 C   0  0  0  0  0  0  0  0  0  0  0  0
    8.4860    6.3502  -10.8872 N   0  0  0  0  0  0  0  0  0  0  0  0
    9.5795    6.7403  -10.0173 C   0  0  0  0  0  0  0  0  0  0  0  0
    9.7044    8.2655   -9.9981 C   0  0  0  0  0  0  0  0  0  0  0  0
   10.7789    8.6872   -8.9911 C   0  0  0  0  0  0  0  0  0  0  0  0
   10.4507    8.2485   -7.6275 N   0  0  0  0  0  0  0  0  0  0  0  0
   11.5717    8.6981   -6.8016 C   0  0  0  0  0  0  0  0  0  0  0  0
   11.5317    8.4499   -5.2954 C   0  0  0  0  0  0  0  0  0  0  0  0
   11.6859    7.1541   -4.7438 C   0  0  0  0  0  0  0  0  0  0  0  0
   11.8603    6.9768   -3.3583 C   0  0  0  0  0  0  0  0  0  0  0  0
   11.8814    8.0970   -2.5097 C   0  0  0  0  0  0  0  0  0  0  0  0
   11.6909    9.3831   -3.0463 C   0  0  0  0  0  0  0  0  0  0  0  0
   11.5060    9.5604   -4.4289 C   0  0  0  0  0  0  0  0  0  0  0  0
   10.3267    6.7847   -7.5962 C   0  0  0  0  0  0  0  0  0  0  0  0
    9.2848    6.2594   -8.5928 C   0  0  0  0  0  0  0  0  0  0  0  0
    6.5610    5.7164  -11.9305 H   0  0  0  0  0  0  0  0  0  0  0  0
    5.0757    3.8916  -11.8065 H   0  0  0  0  0  0  0  0  0  0  0  0
    4.3601    1.7001  -12.7088 H   0  0  0  0  0  0  0  0  0  0  0  0
    5.7847    0.4990  -14.3647 H   0  0  0  0  0  0  0  0  0  0  0  0
    7.8944    1.5446  -15.1710 H   0  0  0  0  0  0  0  0  0  0  0  0
    8.6208    3.7345  -14.2750 H   0  0  0  0  0  0  0  0  0  0  0  0
    7.5933    6.8020  -10.6591 H   0  0  0  0  0  0  0  0  0  0  0  0
   10.5212    6.3080  -10.3570 H   0  0  0  0  0  0  0  0  0  0  0  0
    9.9612    8.6301  -10.9932 H   0  0  0  0  0  0  0  0  0  0  0  0
    8.7511    8.7268   -9.7320 H   0  0  0  0  0  0  0  0  0  0  0  0
   11.7429    8.2803   -9.3010 H   0  0  0  0  0  0  0  0  0  0  0  0
   10.8760    9.7723   -9.0176 H   0  0  0  0  0  0  0  0  0  0  0  0
   12.4855    8.2527   -7.1894 H   0  0  0  0  0  0  0  0  0  0  0  0
   11.6880    9.7730   -6.9469 H   0  0  0  0  0  0  0  0  0  0  0  0
   11.7508    6.2833   -5.3782 H   0  0  0  0  0  0  0  0  0  0  0  0
   11.9983    5.9861   -2.9520 H   0  0  0  0  0  0  0  0  0  0  0  0
   12.0261    7.9772   -1.4470 H   0  0  0  0  0  0  0  0  0  0  0  0
   11.7090   10.2418   -2.3939 H   0  0  0  0  0  0  0  0  0  0  0  0
   11.3950   10.5594   -4.8243 H   0  0  0  0  0  0  0  0  0  0  0  0
   11.2906    6.3145   -7.7927 H   0  0  0  0  0  0  0  0  0  0  0  0
    9.9994    6.4743   -6.6057 H   0  0  0  0  0  0  0  0  0  0  0  0
    8.2934    6.5930   -8.2825 H   0  0  0  0  0  0  0  0  0  0  0  0
    9.2637    5.1694   -8.5632 H   0  0  0  0  0  0  0  0  0  0  0  0
  2  1  2  0
  3  2  1  0
  4  3  1  0
  5  4  2  0
  6  5  1  0
  7  6  2  0
  8  7  1  0
  9  4  1  0
  9  8  2  0
 10  2  1  0
 11 10  1  0
 12 11  1  0
 13 12  1  0
 14 13  1  0
 15 14  1  0
 16 15  1  0
 17 16  2  0
 18 17  1  0
 19 18  2  0
 20 19  1  0
 21 16  1  0
 21 20  2  0
 22 14  1  0
 23 11  1  0
 23 22  1  0
 24  3  1  0
 25  5  1  0
 26  6  1  0
 27  7  1  0
 28  8  1  0
 29  9  1  0
 30 10  1  0
 31 11  1  0
 32 12  1  0
 33 12  1  0
 34 13  1  0
 35 13  1  0
 36 15  1  0
 37 15  1  0
 38 17  1  0
 39 18  1  0
 40 19  1  0
 41 20  1  0
 42 21  1  0
 43 22  1  0
 44 22  1  0
 45 23  1  0
 46 23  1  0
M  END
>  <b_m_subgroup_collapsed>  (1056) 
0

>  <r_i_docking_score>  (1056) 
-6.8582217660245997

>  <s_m_subgroup_title>  (1056) 
glide-dock_SP_D22_pv

>  <s_m_subgroupid>  (1056) 
glide-dock_SP_D22_pv

>  <Molecule ChEMBL ID>  (1056) 
CHEMBL91621

>  <Standard Type>  (1056) 
Ki

>  <Standard Value>  (1056) 
86.0

>  <label>  (1056) 
1

$$$$
CHEMBL4483044
     RDKit          3D

 77 81  0  0  1  0  0  0  0  0999 V2000
    7.5102   -2.8506  -21.9371 C   0  0  0  0  0  0  0  0  0  0  0  0
    8.7144   -2.1120  -21.7873 O   0  0  0  0  0  0  0  0  0  0  0  0
    8.8829   -1.3687  -20.6396 C   0  0  0  0  0  0  0  0  0  0  0  0
   10.0739   -0.6280  -20.5314 C   0  0  0  0  0  0  0  0  0  0  0  0
   10.3359    0.1482  -19.3900 C   0  0  0  0  0  0  0  0  0  0  0  0
    9.4083    0.2007  -18.3300 C   0  0  0  0  0  0  0  0  0  0  0  0
    9.6973    0.9828  -17.1988 N   0  0  0  0  0  0  0  0  0  0  0  0
    9.7019    0.3862  -15.8705 C   0  0  0  0  0  0  0  0  0  0  0  0
    8.9542    1.3074  -14.8949 C   0  0  0  0  0  0  0  0  0  0  0  0
    9.4874    2.7676  -14.9019 C   0  0  0  0  0  0  0  0  0  0  0  0
    8.5272    3.6244  -14.0375 C   0  0  0  0  0  0  0  0  0  0  0  0
    9.0563    5.0337  -13.7306 C   0  0  0  0  0  0  0  0  0  0  0  0
   10.3776    4.9543  -13.0593 N   0  0  0  0  0  0  0  0  0  0  0  0
   10.8732    6.2610  -12.5576 C   0  0  0  0  0  0  0  0  0  0  0  0
   10.0797    6.7526  -11.3273 C   0  0  0  0  0  0  0  0  0  0  0  0
   10.8108    7.8722  -10.5772 C   0  0  0  0  0  0  0  0  0  0  0  0
    9.7060    8.7954   -9.4744 S   0  0  0  0  0  0  0  0  0  0  0  0
   10.0967    8.0121   -7.9475 C   0  0  0  0  0  0  0  0  0  0  0  0
    9.7124    6.7809   -7.6248 N   0  0  0  0  0  0  0  0  0  0  0  0
   10.1738    6.5902   -6.3415 N   0  0  0  0  0  0  0  0  0  0  0  0
   10.8010    7.7178   -5.9837 C   0  0  0  0  0  0  0  0  0  0  0  0
   11.3866    7.8960   -4.6469 C   0  0  0  0  0  0  0  0  0  0  0  0
   11.5265    9.1723   -4.0462 C   0  0  0  0  0  0  0  0  0  0  0  0
   12.0861    9.3059   -2.7630 C   0  0  0  0  0  0  0  0  0  0  0  0
   12.4853    8.1669   -2.0485 C   0  0  0  0  0  0  0  0  0  0  0  0
   12.3367    6.8929   -2.6275 C   0  0  0  0  0  0  0  0  0  0  0  0
   11.7939    6.7603   -3.9171 C   0  0  0  0  0  0  0  0  0  0  0  0
   10.8153    8.6238   -6.9850 N   0  0  0  0  0  0  0  0  0  0  0  0
   11.4458    9.9240   -7.0302 C   0  0  0  0  0  0  0  0  0  0  0  0
   11.3647    4.2589  -13.9256 C   0  0  0  0  0  0  0  0  0  0  0  0
   10.8944    2.8284  -14.2564 C   0  0  0  0  0  0  0  0  0  0  0  0
    9.5108    3.2749  -16.3726 C   0  0  0  0  0  0  0  0  0  0  0  0
   10.2431    2.3227  -17.3383 C   0  0  0  0  0  0  0  0  0  0  0  0
    8.1910   -0.5207  -18.4244 C   0  0  0  0  0  0  0  0  0  0  0  0
    7.2769   -0.3877  -17.3937 O   0  0  0  0  0  0  0  0  0  0  0  0
    6.0953   -1.1729  -17.4162 C   0  0  0  0  0  0  0  0  0  0  0  0
    7.9465   -1.3121  -19.5766 C   0  0  0  0  0  0  0  0  0  0  0  0
    7.5233   -3.3709  -22.8941 H   0  0  0  0  0  0  0  0  0  0  0  0
    7.4067   -3.6058  -21.1569 H   0  0  0  0  0  0  0  0  0  0  0  0
    6.6369   -2.1975  -21.9305 H   0  0  0  0  0  0  0  0  0  0  0  0
   10.7969   -0.6615  -21.3339 H   0  0  0  0  0  0  0  0  0  0  0  0
   11.2654    0.6934  -19.3288 H   0  0  0  0  0  0  0  0  0  0  0  0
   10.7348    0.2472  -15.5485 H   0  0  0  0  0  0  0  0  0  0  0  0
    9.2476   -0.6035  -15.8763 H   0  0  0  0  0  0  0  0  0  0  0  0
    8.9931    0.8850  -13.8902 H   0  0  0  0  0  0  0  0  0  0  0  0
    7.8988    1.3090  -15.1712 H   0  0  0  0  0  0  0  0  0  0  0  0
    8.3548    3.1236  -13.0855 H   0  0  0  0  0  0  0  0  0  0  0  0
    7.5481    3.6921  -14.5133 H   0  0  0  0  0  0  0  0  0  0  0  0
    8.3356    5.5412  -13.0922 H   0  0  0  0  0  0  0  0  0  0  0  0
    9.1324    5.6236  -14.6439 H   0  0  0  0  0  0  0  0  0  0  0  0
   10.8854    7.0041  -13.3540 H   0  0  0  0  0  0  0  0  0  0  0  0
   11.9172    6.1735  -12.2614 H   0  0  0  0  0  0  0  0  0  0  0  0
    9.8921    5.9327  -10.6340 H   0  0  0  0  0  0  0  0  0  0  0  0
    9.1035    7.1172  -11.6481 H   0  0  0  0  0  0  0  0  0  0  0  0
   11.2189    8.5724  -11.2998 H   0  0  0  0  0  0  0  0  0  0  0  0
   11.6620    7.4816  -10.0176 H   0  0  0  0  0  0  0  0  0  0  0  0
   11.1811   10.0680   -4.5327 H   0  0  0  0  0  0  0  0  0  0  0  0
   12.1661   10.2836   -2.3153 H   0  0  0  0  0  0  0  0  0  0  0  0
   12.8928    8.2715   -1.0551 H   0  0  0  0  0  0  0  0  0  0  0  0
   12.6330    6.0123   -2.0752 H   0  0  0  0  0  0  0  0  0  0  0  0
   11.6862    5.7727   -4.3376 H   0  0  0  0  0  0  0  0  0  0  0  0
   11.6843   10.1702   -8.0524 H   0  0  0  0  0  0  0  0  0  0  0  0
   10.7706   10.6816   -6.6421 H   0  0  0  0  0  0  0  0  0  0  0  0
   12.3816    9.9209   -6.4678 H   0  0  0  0  0  0  0  0  0  0  0  0
   11.5249    4.8358  -14.8366 H   0  0  0  0  0  0  0  0  0  0  0  0
   12.3329    4.2065  -13.4260 H   0  0  0  0  0  0  0  0  0  0  0  0
   10.8857    2.2399  -13.3412 H   0  0  0  0  0  0  0  0  0  0  0  0
   11.6346    2.3449  -14.8923 H   0  0  0  0  0  0  0  0  0  0  0  0
    8.4872    3.3708  -16.7335 H   0  0  0  0  0  0  0  0  0  0  0  0
    9.9418    4.2726  -16.4489 H   0  0  0  0  0  0  0  0  0  0  0  0
   11.3138    2.3010  -17.1320 H   0  0  0  0  0  0  0  0  0  0  0  0
   10.1258    2.6838  -18.3605 H   0  0  0  0  0  0  0  0  0  0  0  0
    5.5254   -0.9858  -16.5064 H   0  0  0  0  0  0  0  0  0  0  0  0
    5.4596   -0.9091  -18.2624 H   0  0  0  0  0  0  0  0  0  0  0  0
    6.3203   -2.2394  -17.4499 H   0  0  0  0  0  0  0  0  0  0  0  0
    7.0276   -1.8673  -19.6551 H   0  0  0  0  0  0  0  0  0  0  0  0
   10.2517    4.3666  -12.2490 H   0  0  0  0  0  0  0  0  0  0  0  0
  2  1  1  0
  3  2  1  0
  4  3  1  0
  5  4  2  0
  6  5  1  0
  7  6  1  0
  8  7  1  0
  9  8  1  0
 10  9  1  0
 11 10  1  0
 12 11  1  0
 13 12  1  0
 14 13  1  0
 15 14  1  0
 16 15  1  0
 17 16  1  0
 18 17  1  0
 19 18  2  0
 20 19  1  0
 21 20  2  0
 22 21  1  0
 23 22  2  0
 24 23  1  0
 25 24  2  0
 26 25  1  0
 27 22  1  0
 27 26  2  0
 28 18  1  0
 28 21  1  0
 29 28  1  0
 30 13  1  0
 31 10  1  0
 31 30  1  0
 32 10  1  0
 33  7  1  0
 33 32  1  0
 34  6  2  0
 35 34  1  0
 36 35  1  0
 37  3  2  0
 37 34  1  0
 38  1  1  0
 39  1  1  0
 40  1  1  0
 41  4  1  0
 42  5  1  0
 43  8  1  0
 44  8  1  0
 45  9  1  0
 46  9  1  0
 47 11  1  0
 48 11  1  0
 49 12  1  0
 50 12  1  0
 51 14  1  0
 52 14  1  0
 53 15  1  0
 54 15  1  0
 55 16  1  0
 56 16  1  0
 57 23  1  0
 58 24  1  0
 59 25  1  0
 60 26  1  0
 61 27  1  0
 62 29  1  0
 63 29  1  0
 64 29  1  0
 65 30  1  0
 66 30  1  0
 67 31  1  0
 68 31  1  0
 69 32  1  0
 70 32  1  0
 71 33  1  0
 72 33  1  0
 73 36  1  0
 74 36  1  0
 75 36  1  0
 76 37  1  0
 77 13  1  0
M  CHG  1  13   1
M  END
>  <b_m_subgroup_collapsed>  (1057) 
0

>  <r_i_docking_score>  (1057) 
-6.8559781211533997

>  <s_m_subgroup_title>  (1057) 
glide-dock_SP_D22_pv

>  <s_m_subgroupid>  (1057) 
glide-dock_SP_D22_pv

>  <Molecule ChEMBL ID>  (1057) 
CHEMBL4483044

>  <Standard Type>  (1057) 
Ki

>  <Standard Value>  (1057) 
65229.0

>  <label>  (1057) 
0

$$$$
CHEMBL5095172
     RDKit          3D

 55 58  0  0  1  0  0  0  0  0999 V2000
   12.4751    9.2718   -1.4778 O   0  0  0  0  0  0  0  0  0  0  0  0
   12.1176    8.6995   -2.5026 C   0  0  0  0  0  0  0  0  0  0  0  0
   11.8137    7.1939   -2.4449 C   0  0  0  0  0  0  0  0  0  0  0  0
   11.8171    6.5380   -3.7151 O   0  0  0  0  0  0  0  0  0  0  0  0
   11.5584    7.2619   -4.8514 C   0  0  0  0  0  0  0  0  0  0  0  0
   11.2858    6.5723   -6.0409 C   0  0  0  0  0  0  0  0  0  0  0  0
   11.0978    7.2491   -7.2498 C   0  0  0  0  0  0  0  0  0  0  0  0
   11.2227    8.6538   -7.2935 C   0  0  0  0  0  0  0  0  0  0  0  0
   11.1523    9.3726   -8.4634 O   0  0  0  0  0  0  0  0  0  0  0  0
   10.9732    8.7147   -9.7119 C   0  0  0  0  0  0  0  0  0  0  0  0
    9.4773    8.4961   -9.9966 C   0  0  0  0  0  0  0  0  0  0  0  0
    9.2084    7.7458  -11.3096 C   0  0  0  0  0  0  0  0  0  0  0  0
    9.4372    6.2313  -11.1668 C   0  0  0  0  0  0  0  0  0  0  0  0
    9.1187    5.5070  -12.3956 N   0  0  0  0  0  0  0  0  0  0  0  0
    7.6629    5.3183  -12.5083 C   0  0  0  0  0  0  0  0  0  0  0  0
    7.3341    4.5814  -13.8193 C   0  0  0  0  0  0  0  0  0  0  0  0
    8.0124    3.2982  -13.8446 N   0  0  0  0  0  0  0  0  0  0  0  0
    7.4250    2.1450  -14.3959 C   0  0  0  0  0  0  0  0  0  0  0  0
    8.1131    1.4654  -15.4283 C   0  0  0  0  0  0  0  0  0  0  0  0
    7.5883    0.2906  -15.9929 C   0  0  0  0  0  0  0  0  0  0  0  0
    6.3707   -0.2232  -15.5222 C   0  0  0  0  0  0  0  0  0  0  0  0
    5.6814    0.4260  -14.4845 C   0  0  0  0  0  0  0  0  0  0  0  0
    4.1701   -0.2273  -13.9553 Cl  0  0  0  0  0  0  0  0  0  0  0  0
    6.1913    1.6166  -13.9185 C   0  0  0  0  0  0  0  0  0  0  0  0
    5.2867    2.3787  -12.6468 Cl  0  0  0  0  0  0  0  0  0  0  0  0
    9.4510    3.3728  -13.6243 C   0  0  0  0  0  0  0  0  0  0  0  0
    9.7489    4.1813  -12.3430 C   0  0  0  0  0  0  0  0  0  0  0  0
   11.4746    9.3617   -6.0918 C   0  0  0  0  0  0  0  0  0  0  0  0
   11.6426    8.6672   -4.8710 C   0  0  0  0  0  0  0  0  0  0  0  0
   11.9644    9.3393   -3.6715 N   0  0  0  0  0  0  0  0  0  0  0  0
   12.5693    6.7089   -1.8298 H   0  0  0  0  0  0  0  0  0  0  0  0
   10.8609    7.0313   -1.9464 H   0  0  0  0  0  0  0  0  0  0  0  0
   11.2912    5.5043   -6.0468 H   0  0  0  0  0  0  0  0  0  0  0  0
   10.9030    6.6569   -8.1309 H   0  0  0  0  0  0  0  0  0  0  0  0
   11.5577    7.7984   -9.7885 H   0  0  0  0  0  0  0  0  0  0  0  0
   11.3840    9.3723  -10.4781 H   0  0  0  0  0  0  0  0  0  0  0  0
    8.9859    9.4683  -10.0427 H   0  0  0  0  0  0  0  0  0  0  0  0
    8.9957    7.9661   -9.1737 H   0  0  0  0  0  0  0  0  0  0  0  0
    9.8277    8.1528  -12.1098 H   0  0  0  0  0  0  0  0  0  0  0  0
    8.1784    7.9437  -11.6006 H   0  0  0  0  0  0  0  0  0  0  0  0
    8.8576    5.8295  -10.3346 H   0  0  0  0  0  0  0  0  0  0  0  0
   10.4859    6.0777  -10.9176 H   0  0  0  0  0  0  0  0  0  0  0  0
    7.1460    6.2772  -12.5104 H   0  0  0  0  0  0  0  0  0  0  0  0
    7.2791    4.7580  -11.6533 H   0  0  0  0  0  0  0  0  0  0  0  0
    7.7121    5.1729  -14.6467 H   0  0  0  0  0  0  0  0  0  0  0  0
    6.2587    4.4877  -13.9600 H   0  0  0  0  0  0  0  0  0  0  0  0
    9.0530    1.8460  -15.8001 H   0  0  0  0  0  0  0  0  0  0  0  0
    8.1202   -0.2207  -16.7826 H   0  0  0  0  0  0  0  0  0  0  0  0
    5.9724   -1.1339  -15.9506 H   0  0  0  0  0  0  0  0  0  0  0  0
    9.8722    2.3727  -13.5223 H   0  0  0  0  0  0  0  0  0  0  0  0
    9.9248    3.8412  -14.4878 H   0  0  0  0  0  0  0  0  0  0  0  0
   10.8306    4.2922  -12.2474 H   0  0  0  0  0  0  0  0  0  0  0  0
    9.4061    3.6460  -11.4564 H   0  0  0  0  0  0  0  0  0  0  0  0
   11.5753   10.4358   -6.1227 H   0  0  0  0  0  0  0  0  0  0  0  0
   12.1187   10.3356   -3.6995 H   0  0  0  0  0  0  0  0  0  0  0  0
  2  1  2  0
  3  2  1  0
  4  3  1  0
  5  4  1  0
  6  5  1  0
  7  6  2  0
  8  7  1  0
  9  8  1  0
 10  9  1  0
 11 10  1  0
 12 11  1  0
 13 12  1  0
 14 13  1  0
 15 14  1  0
 16 15  1  0
 17 16  1  0
 18 17  1  0
 19 18  2  0
 20 19  1  0
 21 20  2  0
 22 21  1  0
 23 22  1  0
 24 18  1  0
 24 22  2  0
 25 24  1  0
 26 17  1  0
 27 14  1  0
 27 26  1  0
 28  8  2  0
 29  5  2  0
 29 28  1  0
 30  2  1  0
 30 29  1  0
 31  3  1  0
 32  3  1  0
 33  6  1  0
 34  7  1  0
 35 10  1  0
 36 10  1  0
 37 11  1  0
 38 11  1  0
 39 12  1  0
 40 12  1  0
 41 13  1  0
 42 13  1  0
 43 15  1  0
 44 15  1  0
 45 16  1  0
 46 16  1  0
 47 19  1  0
 48 20  1  0
 49 21  1  0
 50 26  1  0
 51 26  1  0
 52 27  1  0
 53 27  1  0
 54 28  1  0
 55 30  1  0
M  END
>  <b_m_subgroup_collapsed>  (1058) 
0

>  <r_i_docking_score>  (1058) 
-6.84970027069454

>  <s_m_subgroup_title>  (1058) 
glide-dock_SP_D22_pv

>  <s_m_subgroupid>  (1058) 
glide-dock_SP_D22_pv

>  <Molecule ChEMBL ID>  (1058) 
CHEMBL5095172

>  <Standard Type>  (1058) 
Ki

>  <Standard Value>  (1058) 
0.61

>  <label>  (1058) 
1

$$$$
CHEMBL240022
     RDKit          3D

 59 62  0  0  1  0  0  0  0  0999 V2000
   11.1363   10.3647   -4.8756 C   0  0  0  0  0  0  0  0  0  0  0  0
   11.7567    9.1296   -5.1739 O   0  0  0  0  0  0  0  0  0  0  0  0
   11.1841    8.4547   -6.2191 C   0  0  0  0  0  0  0  0  0  0  0  0
   11.2051    9.0122   -7.5091 C   0  0  0  0  0  0  0  0  0  0  0  0
   10.5930    8.3584   -8.5939 C   0  0  0  0  0  0  0  0  0  0  0  0
    9.8964    7.1494   -8.3846 C   0  0  0  0  0  0  0  0  0  0  0  0
    9.8757    6.5936   -7.0937 C   0  0  0  0  0  0  0  0  0  0  0  0
   10.5489    7.2086   -6.0171 C   0  0  0  0  0  0  0  0  0  0  0  0
   10.4863    6.5711   -4.8038 O   0  0  0  0  0  0  0  0  0  0  0  0
   11.5551    6.7036   -3.8814 C   0  0  0  0  0  0  0  0  0  0  0  0
    9.1574    6.4488   -9.5204 C   0  0  0  0  0  0  0  0  0  0  0  0
    9.4104    7.0504  -10.8458 N   0  0  0  0  0  0  0  0  0  0  0  0
    9.6281    6.3359  -11.9707 C   0  0  0  0  0  0  0  0  0  0  0  0
    9.4758    5.0016  -12.0644 N   0  0  0  0  0  0  0  0  0  0  0  0
    9.9322    4.3162  -13.2428 C   0  0  0  0  0  0  0  0  0  0  0  0
   11.1516    4.6770  -13.8483 C   0  0  0  0  0  0  0  0  0  0  0  0
   11.6177    3.9413  -14.9550 C   0  0  0  0  0  0  0  0  0  0  0  0
   10.8822    2.8416  -15.4494 C   0  0  0  0  0  0  0  0  0  0  0  0
    9.6550    2.4804  -14.8335 C   0  0  0  0  0  0  0  0  0  0  0  0
    9.1759    3.2441  -13.7478 C   0  0  0  0  0  0  0  0  0  0  0  0
    8.8306    1.2943  -15.3302 C   0  0  2  0  0  0  0  0  0  0  0  0
    8.2553    0.5725  -14.2465 O   0  0  0  0  0  0  0  0  0  0  0  0
    6.9843    0.1356  -14.2891 C   0  0  0  0  0  0  0  0  0  0  0  0
    6.5659   -0.5364  -12.9880 C   0  0  0  0  0  0  0  0  0  0  0  0
    6.2061    0.2476  -15.2347 O   0  0  0  0  0  0  0  0  0  0  0  0
    9.6506    0.3160  -16.1862 C   0  0  0  0  0  0  0  0  0  0  0  0
   10.4561    1.0660  -17.2513 C   0  0  0  0  0  0  0  0  0  0  0  0
   11.4534    2.0456  -16.6167 C   0  0  0  0  0  0  0  0  0  0  0  0
    9.5349    8.5135  -10.8923 C   0  0  0  0  0  0  0  0  0  0  0  0
   10.6728    8.9759   -9.9719 C   0  0  0  0  0  0  0  0  0  0  0  0
   11.2868   10.5776   -3.8181 H   0  0  0  0  0  0  0  0  0  0  0  0
   11.5641   11.1698   -5.4722 H   0  0  0  0  0  0  0  0  0  0  0  0
   10.0626   10.3362   -5.0474 H   0  0  0  0  0  0  0  0  0  0  0  0
   11.6861    9.9613   -7.6571 H   0  0  0  0  0  0  0  0  0  0  0  0
    9.3351    5.6770   -6.9306 H   0  0  0  0  0  0  0  0  0  0  0  0
   11.6489    5.7884   -3.2939 H   0  0  0  0  0  0  0  0  0  0  0  0
   12.4995    6.8606   -4.3893 H   0  0  0  0  0  0  0  0  0  0  0  0
   11.3747    7.5275   -3.1922 H   0  0  0  0  0  0  0  0  0  0  0  0
    8.0865    6.4726   -9.3170 H   0  0  0  0  0  0  0  0  0  0  0  0
    9.4601    5.4023   -9.5201 H   0  0  0  0  0  0  0  0  0  0  0  0
    9.9621    6.8730  -12.8483 H   0  0  0  0  0  0  0  0  0  0  0  0
   11.7462    5.4910  -13.4592 H   0  0  0  0  0  0  0  0  0  0  0  0
   12.5594    4.2089  -15.4124 H   0  0  0  0  0  0  0  0  0  0  0  0
    8.2379    2.9811  -13.2840 H   0  0  0  0  0  0  0  0  0  0  0  0
    8.0450    1.7261  -15.9524 H   0  0  0  0  0  0  0  0  0  0  0  0
    6.4851    0.1983  -12.1909 H   0  0  0  0  0  0  0  0  0  0  0  0
    5.5985   -1.0179  -13.0864 H   0  0  0  0  0  0  0  0  0  0  0  0
    7.2849   -1.2962  -12.6874 H   0  0  0  0  0  0  0  0  0  0  0  0
   10.3374   -0.2443  -15.5498 H   0  0  0  0  0  0  0  0  0  0  0  0
    8.9905   -0.4169  -16.6522 H   0  0  0  0  0  0  0  0  0  0  0  0
   10.9817    0.3672  -17.9021 H   0  0  0  0  0  0  0  0  0  0  0  0
    9.7636    1.6184  -17.8875 H   0  0  0  0  0  0  0  0  0  0  0  0
   11.8314    2.7320  -17.3755 H   0  0  0  0  0  0  0  0  0  0  0  0
   12.3163    1.4899  -16.2488 H   0  0  0  0  0  0  0  0  0  0  0  0
    9.6855    8.8615  -11.9133 H   0  0  0  0  0  0  0  0  0  0  0  0
    8.5899    8.9405  -10.5520 H   0  0  0  0  0  0  0  0  0  0  0  0
   10.6624   10.0564   -9.8466 H   0  0  0  0  0  0  0  0  0  0  0  0
   11.6385    8.7254  -10.4127 H   0  0  0  0  0  0  0  0  0  0  0  0
    8.8291    4.5566  -11.4260 H   0  0  0  0  0  0  0  0  0  0  0  0
  2  1  1  0
  3  2  1  0
  4  3  2  0
  5  4  1  0
  6  5  2  0
  7  6  1  0
  8  3  1  0
  8  7  2  0
  9  8  1  0
 10  9  1  0
 11  6  1  0
 12 11  1  0
 13 12  2  3
 14 13  1  0
 15 14  1  0
 16 15  1  0
 17 16  2  0
 18 17  1  0
 19 18  2  0
 20 15  2  0
 20 19  1  0
 21 19  1  0
 22 21  1  0
 23 22  1  0
 24 23  1  0
 25 23  2  0
 26 21  1  0
 27 26  1  0
 28 18  1  0
 28 27  1  0
 29 12  1  0
 30  5  1  0
 30 29  1  0
 31  1  1  0
 32  1  1  0
 33  1  1  0
 34  4  1  0
 35  7  1  0
 36 10  1  0
 37 10  1  0
 38 10  1  0
 39 11  1  0
 40 11  1  0
 41 13  1  0
 42 16  1  0
 43 17  1  0
 44 20  1  0
 21 45  1  6
 46 24  1  0
 47 24  1  0
 48 24  1  0
 49 26  1  0
 50 26  1  0
 51 27  1  0
 52 27  1  0
 53 28  1  0
 54 28  1  0
 55 29  1  0
 56 29  1  0
 57 30  1  0
 58 30  1  0
 59 14  1  0
M  CHG  1  12   1
M  END
>  <b_m_subgroup_collapsed>  (1059) 
0

>  <r_i_docking_score>  (1059) 
-6.8491546005511497

>  <s_m_subgroup_title>  (1059) 
glide-dock_SP_D22_pv

>  <s_m_subgroupid>  (1059) 
glide-dock_SP_D22_pv

>  <Molecule ChEMBL ID>  (1059) 
CHEMBL240022

>  <Standard Type>  (1059) 
Ki

>  <Standard Value>  (1059) 
11000.0

>  <label>  (1059) 
0

$$$$
CHEMBL241282
     RDKit          3D

 59 63  0  0  1  0  0  0  0  0999 V2000
    7.1807   -0.0418  -16.3434 C   0  0  0  0  0  0  0  0  0  0  0  0
    7.6650    0.8590  -17.3291 O   0  0  0  0  0  0  0  0  0  0  0  0
    8.5506    1.8473  -16.9506 C   0  0  0  0  0  0  0  0  0  0  0  0
    9.0945    1.9150  -15.6404 C   0  0  0  0  0  0  0  0  0  0  0  0
    9.9318    2.9804  -15.2596 C   0  0  0  0  0  0  0  0  0  0  0  0
   10.2281    4.0044  -16.1723 C   0  0  0  0  0  0  0  0  0  0  0  0
    9.7256    3.9291  -17.4838 C   0  0  0  0  0  0  0  0  0  0  0  0
    8.9095    2.8547  -17.8931 C   0  0  0  0  0  0  0  0  0  0  0  0
    8.4863    2.9083  -19.2055 O   0  0  0  0  0  0  0  0  0  0  0  0
    8.1994    1.6982  -19.8916 C   0  0  0  0  0  0  0  0  0  0  0  0
   11.0889    5.1813  -15.7448 C   0  0  0  0  0  0  0  0  0  0  0  0
   11.1037    5.4799  -14.2930 N   0  0  0  0  0  0  0  0  0  0  0  0
   11.6773    6.6705  -13.9701 C   0  0  0  0  0  0  0  0  0  0  0  0
   11.7384    7.3721  -12.8091 N   0  0  0  0  0  0  0  0  0  0  0  0
   10.9312    7.1938  -11.6296 C   0  0  0  0  0  0  0  0  0  0  0  0
    9.5724    6.8464  -11.7094 C   0  0  0  0  0  0  0  0  0  0  0  0
    8.8876    6.4890  -10.5376 C   0  0  0  0  0  0  0  0  0  0  0  0
    9.5114    6.6034   -9.2798 C   0  0  0  0  0  0  0  0  0  0  0  0
   10.8118    7.1617   -9.1852 C   0  0  0  0  0  0  0  0  0  0  0  0
   11.5300    7.4224  -10.3733 C   0  0  0  0  0  0  0  0  0  0  0  0
   11.4195    7.5405   -7.8332 C   0  0  1  0  0  0  0  0  0  0  0  0
   11.2855    9.3465   -7.7206 S   0  0  0  0  0  0  0  0  0  0  0  0
   11.9944    9.7164   -6.1040 C   0  0  0  0  0  0  0  0  0  0  0  0
   11.1331    9.0997   -5.0092 C   0  0  0  0  0  0  0  0  0  0  0  0
   11.2861    7.2948   -4.9953 S   0  0  0  0  0  0  0  0  0  0  0  0
   10.7314    6.8099   -6.6562 C   0  0  1  0  0  0  0  0  0  0  0  0
    9.2063    6.8072   -6.7664 C   0  0  0  0  0  0  0  0  0  0  0  0
    8.7732    6.1032   -8.0510 C   0  0  0  0  0  0  0  0  0  0  0  0
   10.4528    4.5249  -13.3625 C   0  0  0  0  0  0  0  0  0  0  0  0
   10.4876    3.0755  -13.8571 C   0  0  0  0  0  0  0  0  0  0  0  0
    6.4793   -0.7389  -16.8017 H   0  0  0  0  0  0  0  0  0  0  0  0
    6.6528    0.4846  -15.5465 H   0  0  0  0  0  0  0  0  0  0  0  0
    7.9924   -0.6276  -15.9138 H   0  0  0  0  0  0  0  0  0  0  0  0
    8.8672    1.1661  -14.8973 H   0  0  0  0  0  0  0  0  0  0  0  0
    9.9650    4.7063  -18.1950 H   0  0  0  0  0  0  0  0  0  0  0  0
    8.2818    1.8700  -20.9648 H   0  0  0  0  0  0  0  0  0  0  0  0
    7.1795    1.3674  -19.6965 H   0  0  0  0  0  0  0  0  0  0  0  0
    8.8974    0.9007  -19.6329 H   0  0  0  0  0  0  0  0  0  0  0  0
   12.1127    4.9956  -16.0708 H   0  0  0  0  0  0  0  0  0  0  0  0
   10.7453    6.0711  -16.2732 H   0  0  0  0  0  0  0  0  0  0  0  0
   12.2150    7.1505  -14.7807 H   0  0  0  0  0  0  0  0  0  0  0  0
    9.0619    6.7887  -12.6566 H   0  0  0  0  0  0  0  0  0  0  0  0
    7.8646    6.1472  -10.6042 H   0  0  0  0  0  0  0  0  0  0  0  0
   12.5412    7.7983  -10.3120 H   0  0  0  0  0  0  0  0  0  0  0  0
   12.4830    7.3046   -7.8400 H   0  0  0  0  0  0  0  0  0  0  0  0
   13.0267    9.3723   -6.0505 H   0  0  0  0  0  0  0  0  0  0  0  0
   12.0161   10.8003   -5.9890 H   0  0  0  0  0  0  0  0  0  0  0  0
   11.4401    9.4774   -4.0337 H   0  0  0  0  0  0  0  0  0  0  0  0
   10.0927    9.3885   -5.1527 H   0  0  0  0  0  0  0  0  0  0  0  0
   11.0435    5.7721   -6.7357 H   0  0  0  0  0  0  0  0  0  0  0  0
    8.7766    6.2873   -5.9125 H   0  0  0  0  0  0  0  0  0  0  0  0
    8.8185    7.8268   -6.7488 H   0  0  0  0  0  0  0  0  0  0  0  0
    7.6973    6.1715   -8.1890 H   0  0  0  0  0  0  0  0  0  0  0  0
    8.9854    5.0373   -7.9627 H   0  0  0  0  0  0  0  0  0  0  0  0
   10.8859    4.5802  -12.3673 H   0  0  0  0  0  0  0  0  0  0  0  0
    9.4029    4.7983  -13.2756 H   0  0  0  0  0  0  0  0  0  0  0  0
    9.8922    2.4580  -13.1860 H   0  0  0  0  0  0  0  0  0  0  0  0
   11.5046    2.6822  -13.8474 H   0  0  0  0  0  0  0  0  0  0  0  0
   12.5543    7.9642  -12.7356 H   0  0  0  0  0  0  0  0  0  0  0  0
  2  1  1  0
  3  2  1  0
  4  3  2  0
  5  4  1  0
  6  5  2  0
  7  6  1  0
  8  3  1  0
  8  7  2  0
  9  8  1  0
 10  9  1  0
 11  6  1  0
 12 11  1  0
 13 12  2  3
 14 13  1  0
 15 14  1  0
 16 15  1  0
 17 16  2  0
 18 17  1  0
 19 18  2  0
 20 15  2  0
 20 19  1  0
 21 19  1  0
 22 21  1  0
 23 22  1  0
 24 23  1  0
 25 24  1  0
 26 21  1  0
 26 25  1  0
 27 26  1  0
 28 18  1  0
 28 27  1  0
 29 12  1  0
 30  5  1  0
 30 29  1  0
 31  1  1  0
 32  1  1  0
 33  1  1  0
 34  4  1  0
 35  7  1  0
 36 10  1  0
 37 10  1  0
 38 10  1  0
 39 11  1  0
 40 11  1  0
 41 13  1  0
 42 16  1  0
 43 17  1  0
 44 20  1  0
 21 45  1  6
 46 23  1  0
 47 23  1  0
 48 24  1  0
 49 24  1  0
 26 50  1  6
 51 27  1  0
 52 27  1  0
 53 28  1  0
 54 28  1  0
 55 29  1  0
 56 29  1  0
 57 30  1  0
 58 30  1  0
 59 14  1  0
M  CHG  1  12   1
M  END
>  <b_m_subgroup_collapsed>  (1060) 
0

>  <r_i_docking_score>  (1060) 
-6.8425428343208701

>  <s_m_subgroup_title>  (1060) 
glide-dock_SP_D22_pv

>  <s_m_subgroupid>  (1060) 
glide-dock_SP_D22_pv

>  <Molecule ChEMBL ID>  (1060) 
CHEMBL241282

>  <Standard Type>  (1060) 
Ki

>  <Standard Value>  (1060) 
100000.0

>  <label>  (1060) 
0

$$$$
CHEMBL3133873
     RDKit          3D

 66 69  0  0  1  0  0  0  0  0999 V2000
   12.0736    7.3795   -2.8037 C   0  0  0  0  0  0  0  0  0  0  0  0
   11.4148    6.8195   -3.9299 O   0  0  0  0  0  0  0  0  0  0  0  0
   11.2861    7.5943   -5.0620 C   0  0  0  0  0  0  0  0  0  0  0  0
   11.7267    8.9371   -5.1623 C   0  0  0  0  0  0  0  0  0  0  0  0
   11.6323    9.6188   -6.3888 C   0  0  0  0  0  0  0  0  0  0  0  0
   11.0738    8.9694   -7.5048 C   0  0  0  0  0  0  0  0  0  0  0  0
   10.8863    9.3723   -8.8146 N   0  0  0  0  0  0  0  0  0  0  0  0
   10.2244    8.4077   -9.5456 C   0  0  0  0  0  0  0  0  0  0  0  0
   10.0380    7.3200   -8.7343 C   0  0  0  0  0  0  0  0  0  0  0  0
    9.4190    6.0154   -9.0820 C   0  0  0  0  0  0  0  0  0  0  0  0
    9.1494    5.1548   -8.2467 O   0  0  0  0  0  0  0  0  0  0  0  0
    9.2801    5.8167  -10.3988 N   0  0  0  0  0  0  0  0  0  0  0  0
    8.9388    4.5282  -10.9622 C   0  0  0  0  0  0  0  0  0  0  0  0
    8.9066    4.5528  -12.4709 C   0  0  0  0  0  0  0  0  0  0  0  0
    9.9184    4.1083  -13.2300 C   0  0  0  0  0  0  0  0  0  0  0  0
    9.9020    4.0226  -14.7397 C   0  0  0  0  0  0  0  0  0  0  0  0
   10.3287    2.6736  -15.1927 N   0  0  0  0  0  0  0  0  0  0  0  0
    9.3912    1.5860  -14.7949 C   0  0  0  0  0  0  0  0  0  0  0  0
    9.8729    0.2006  -15.2905 C   0  0  0  0  0  0  0  0  0  0  0  0
   10.2019    0.2289  -16.7134 N   0  0  0  0  0  0  0  0  0  0  0  0
    9.3049   -0.2081  -17.7213 C   0  0  0  0  0  0  0  0  0  0  0  0
    9.8667   -0.6119  -18.9570 C   0  0  0  0  0  0  0  0  0  0  0  0
    9.0619   -1.0297  -20.0302 C   0  0  0  0  0  0  0  0  0  0  0  0
    7.6675   -1.0643  -19.8839 C   0  0  0  0  0  0  0  0  0  0  0  0
    7.0864   -0.6904  -18.6610 C   0  0  0  0  0  0  0  0  0  0  0  0
    7.8861   -0.2736  -17.5667 C   0  0  0  0  0  0  0  0  0  0  0  0
    7.3021    0.0884  -16.3728 O   0  0  0  0  0  0  0  0  0  0  0  0
    6.0800   -0.5419  -16.0026 C   0  0  0  0  0  0  0  0  0  0  0  0
    6.0018   -0.6069  -14.4736 C   0  0  0  0  0  0  0  0  0  0  0  0
    5.9094    0.6132  -13.9440 F   0  0  0  0  0  0  0  0  0  0  0  0
   11.1569    1.2720  -17.0817 C   0  0  0  0  0  0  0  0  0  0  0  0
   10.6370    2.6505  -16.6453 C   0  0  0  0  0  0  0  0  0  0  0  0
   10.5653    7.6419   -7.4307 C   0  0  0  0  0  0  0  0  0  0  0  0
   10.6953    6.9814   -6.1861 C   0  0  0  0  0  0  0  0  0  0  0  0
   12.1270    6.6316   -2.0127 H   0  0  0  0  0  0  0  0  0  0  0  0
   13.0952    7.6753   -3.0461 H   0  0  0  0  0  0  0  0  0  0  0  0
   11.5300    8.2396   -2.4095 H   0  0  0  0  0  0  0  0  0  0  0  0
   12.1736    9.4512   -4.3250 H   0  0  0  0  0  0  0  0  0  0  0  0
   11.9989   10.6306   -6.4721 H   0  0  0  0  0  0  0  0  0  0  0  0
   11.1698   10.2566   -9.2096 H   0  0  0  0  0  0  0  0  0  0  0  0
    9.9613    8.5702  -10.5809 H   0  0  0  0  0  0  0  0  0  0  0  0
    9.4837    6.5762  -11.0284 H   0  0  0  0  0  0  0  0  0  0  0  0
    7.9675    4.1966  -10.5895 H   0  0  0  0  0  0  0  0  0  0  0  0
    9.6855    3.7997  -10.6354 H   0  0  0  0  0  0  0  0  0  0  0  0
    8.0044    4.9334  -12.9268 H   0  0  0  0  0  0  0  0  0  0  0  0
   10.8209    3.7720  -12.7459 H   0  0  0  0  0  0  0  0  0  0  0  0
    8.9070    4.2612  -15.1246 H   0  0  0  0  0  0  0  0  0  0  0  0
   10.5898    4.7778  -15.1220 H   0  0  0  0  0  0  0  0  0  0  0  0
    9.2815    1.5555  -13.7119 H   0  0  0  0  0  0  0  0  0  0  0  0
    8.4065    1.8278  -15.1906 H   0  0  0  0  0  0  0  0  0  0  0  0
   10.7806   -0.0718  -14.7511 H   0  0  0  0  0  0  0  0  0  0  0  0
    9.1601   -0.5932  -15.0615 H   0  0  0  0  0  0  0  0  0  0  0  0
   10.9378   -0.6117  -19.0962 H   0  0  0  0  0  0  0  0  0  0  0  0
    9.5157   -1.3271  -20.9642 H   0  0  0  0  0  0  0  0  0  0  0  0
    7.0424   -1.3812  -20.7060 H   0  0  0  0  0  0  0  0  0  0  0  0
    6.0100   -0.7224  -18.5816 H   0  0  0  0  0  0  0  0  0  0  0  0
    5.2320    0.0095  -16.4105 H   0  0  0  0  0  0  0  0  0  0  0  0
    6.0316   -1.5628  -16.3848 H   0  0  0  0  0  0  0  0  0  0  0  0
    5.1214   -1.1650  -14.1557 H   0  0  0  0  0  0  0  0  0  0  0  0
    6.8809   -1.0921  -14.0495 H   0  0  0  0  0  0  0  0  0  0  0  0
   12.1087    1.0591  -16.5942 H   0  0  0  0  0  0  0  0  0  0  0  0
   11.3648    1.2936  -18.1505 H   0  0  0  0  0  0  0  0  0  0  0  0
    9.7391    2.9052  -17.2115 H   0  0  0  0  0  0  0  0  0  0  0  0
   11.3858    3.4090  -16.8779 H   0  0  0  0  0  0  0  0  0  0  0  0
   10.3418    5.9674   -6.0976 H   0  0  0  0  0  0  0  0  0  0  0  0
   11.2011    2.4708  -14.7270 H   0  0  0  0  0  0  0  0  0  0  0  0
  2  1  1  0
  3  2  1  0
  4  3  2  0
  5  4  1  0
  6  5  2  0
  7  6  1  0
  8  7  1  0
  9  8  2  0
 10  9  1  0
 11 10  2  0
 12 10  1  0
 13 12  1  0
 14 13  1  0
 15 14  2  0
 16 15  1  0
 17 16  1  0
 18 17  1  0
 19 18  1  0
 20 19  1  0
 21 20  1  0
 22 21  2  0
 23 22  1  0
 24 23  2  0
 25 24  1  0
 26 21  1  0
 26 25  2  0
 27 26  1  0
 28 27  1  0
 29 28  1  0
 30 29  1  0
 31 20  1  0
 32 17  1  0
 32 31  1  0
 33  6  1  0
 33  9  1  0
 34  3  1  0
 34 33  2  0
 35  1  1  0
 36  1  1  0
 37  1  1  0
 38  4  1  0
 39  5  1  0
 40  7  1  0
 41  8  1  0
 42 12  1  0
 43 13  1  0
 44 13  1  0
 45 14  1  0
 46 15  1  0
 47 16  1  0
 48 16  1  0
 49 18  1  0
 50 18  1  0
 51 19  1  0
 52 19  1  0
 53 22  1  0
 54 23  1  0
 55 24  1  0
 56 25  1  0
 57 28  1  0
 58 28  1  0
 59 29  1  0
 60 29  1  0
 61 31  1  0
 62 31  1  0
 63 32  1  0
 64 32  1  0
 65 34  1  0
 66 17  1  0
M  CHG  1  17   1
M  END
>  <b_m_subgroup_collapsed>  (1061) 
0

>  <r_i_docking_score>  (1061) 
-6.8274614750324902

>  <s_m_subgroup_title>  (1061) 
glide-dock_SP_D22_pv

>  <s_m_subgroupid>  (1061) 
glide-dock_SP_D22_pv

>  <Molecule ChEMBL ID>  (1061) 
CHEMBL3133873

>  <Standard Type>  (1061) 
Ki

>  <Standard Value>  (1061) 
7.5

>  <label>  (1061) 
1

$$$$
CHEMBL3289988
     RDKit          3D

 54 58  0  0  1  0  0  0  0  0999 V2000
    9.3995    3.2496  -15.9545 O   0  0  0  0  0  0  0  0  0  0  0  0
   10.3577    3.9393  -15.0797 S   0  0  0  0  0  0  0  0  0  0  0  0
   11.2854    3.1617  -14.2456 O   0  0  0  0  0  0  0  0  0  0  0  0
    9.4496    4.9692  -14.0387 N   0  0  0  0  0  0  0  0  0  0  0  0
    9.4641    4.7654  -12.5903 C   0  0  0  0  0  0  0  0  0  0  0  0
    8.5883    5.8150  -11.8974 C   0  0  0  0  0  0  0  0  0  0  0  0
    8.4913    5.6263  -10.3708 C   0  0  0  0  0  0  0  0  0  0  0  0
    9.6498    6.0670   -9.5896 N   0  0  0  0  0  0  0  0  0  0  0  0
    9.3211    5.7620   -8.1910 C   0  0  0  0  0  0  0  0  0  0  0  0
   10.4482    6.1746   -7.2268 C   0  0  0  0  0  0  0  0  0  0  0  0
   10.8063    7.5720   -7.4205 N   0  0  0  0  0  0  0  0  0  0  0  0
   11.0506    8.4546   -6.3522 C   0  0  0  0  0  0  0  0  0  0  0  0
   10.9678    9.7733   -6.4948 N   0  0  0  0  0  0  0  0  0  0  0  0
   11.2860   10.3569   -5.2411 O   0  0  0  0  0  0  0  0  0  0  0  0
   11.5943    9.3624   -4.3279 C   0  0  0  0  0  0  0  0  0  0  0  0
   11.9900    9.4342   -2.9826 C   0  0  0  0  0  0  0  0  0  0  0  0
   12.2348    8.2301   -2.2918 C   0  0  0  0  0  0  0  0  0  0  0  0
   12.0852    6.9942   -2.9634 C   0  0  0  0  0  0  0  0  0  0  0  0
   11.6861    6.9490   -4.3186 C   0  0  0  0  0  0  0  0  0  0  0  0
   11.4298    8.1548   -5.0135 C   0  0  0  0  0  0  0  0  0  0  0  0
   11.0132    7.9819   -8.8045 C   0  0  0  0  0  0  0  0  0  0  0  0
    9.8294    7.5230   -9.6816 C   0  0  0  0  0  0  0  0  0  0  0  0
   11.3188    5.1281  -16.0189 C   0  0  0  0  0  0  0  0  0  0  0  0
   12.5417    5.5533  -15.4620 C   0  0  0  0  0  0  0  0  0  0  0  0
   13.3476    6.4841  -16.1413 C   0  0  0  0  0  0  0  0  0  0  0  0
   12.9304    6.9951  -17.3829 C   0  0  0  0  0  0  0  0  0  0  0  0
   11.7084    6.5722  -17.9369 C   0  0  0  0  0  0  0  0  0  0  0  0
   10.9712    7.0798  -19.4592 S   0  0  0  0  0  0  0  0  0  0  0  0
    9.6142    6.0244  -19.0831 C   0  0  0  0  0  0  0  0  0  0  0  0
    9.6750    5.3359  -17.9413 N   0  0  0  0  0  0  0  0  0  0  0  0
   10.8620    5.6308  -17.2690 C   0  0  0  0  0  0  0  0  0  0  0  0
    8.5441    5.2290  -14.4291 H   0  0  0  0  0  0  0  0  0  0  0  0
    9.1069    3.7602  -12.3662 H   0  0  0  0  0  0  0  0  0  0  0  0
   10.4853    4.8302  -12.2255 H   0  0  0  0  0  0  0  0  0  0  0  0
    8.9047    6.8204  -12.1670 H   0  0  0  0  0  0  0  0  0  0  0  0
    7.5783    5.7307  -12.3000 H   0  0  0  0  0  0  0  0  0  0  0  0
    7.6214    6.1688  -10.0096 H   0  0  0  0  0  0  0  0  0  0  0  0
    8.2933    4.5730  -10.1692 H   0  0  0  0  0  0  0  0  0  0  0  0
    8.3998    6.2688   -7.9044 H   0  0  0  0  0  0  0  0  0  0  0  0
    9.1391    4.6930   -8.0860 H   0  0  0  0  0  0  0  0  0  0  0  0
   10.0771    6.0255   -6.2175 H   0  0  0  0  0  0  0  0  0  0  0  0
   11.3318    5.5512   -7.3648 H   0  0  0  0  0  0  0  0  0  0  0  0
   12.0861   10.3902   -2.4897 H   0  0  0  0  0  0  0  0  0  0  0  0
   12.5330    8.2554   -1.2563 H   0  0  0  0  0  0  0  0  0  0  0  0
   12.2789    6.0719   -2.4328 H   0  0  0  0  0  0  0  0  0  0  0  0
   11.6075    5.9886   -4.8036 H   0  0  0  0  0  0  0  0  0  0  0  0
   11.1315    9.0618   -8.8928 H   0  0  0  0  0  0  0  0  0  0  0  0
   11.9429    7.5381   -9.1667 H   0  0  0  0  0  0  0  0  0  0  0  0
   10.0411    7.8197  -10.7053 H   0  0  0  0  0  0  0  0  0  0  0  0
    8.9148    8.0420   -9.3857 H   0  0  0  0  0  0  0  0  0  0  0  0
   12.8668    5.1682  -14.5058 H   0  0  0  0  0  0  0  0  0  0  0  0
   14.2818    6.8072  -15.7046 H   0  0  0  0  0  0  0  0  0  0  0  0
   13.5379    7.7182  -17.9081 H   0  0  0  0  0  0  0  0  0  0  0  0
    8.7499    5.9065  -19.7219 H   0  0  0  0  0  0  0  0  0  0  0  0
  2  1  2  0
  3  2  2  0
  4  2  1  0
  5  4  1  0
  6  5  1  0
  7  6  1  0
  8  7  1  0
  9  8  1  0
 10  9  1  0
 11 10  1  0
 12 11  1  0
 13 12  2  0
 14 13  1  0
 15 14  1  0
 16 15  2  0
 17 16  1  0
 18 17  2  0
 19 18  1  0
 20 12  1  0
 20 15  1  0
 20 19  2  0
 21 11  1  0
 22  8  1  0
 22 21  1  0
 23  2  1  0
 24 23  1  0
 25 24  2  0
 26 25  1  0
 27 26  2  0
 28 27  1  0
 29 28  1  0
 30 29  2  0
 31 23  2  0
 31 27  1  0
 31 30  1  0
 32  4  1  0
 33  5  1  0
 34  5  1  0
 35  6  1  0
 36  6  1  0
 37  7  1  0
 38  7  1  0
 39  9  1  0
 40  9  1  0
 41 10  1  0
 42 10  1  0
 43 16  1  0
 44 17  1  0
 45 18  1  0
 46 19  1  0
 47 21  1  0
 48 21  1  0
 49 22  1  0
 50 22  1  0
 51 24  1  0
 52 25  1  0
 53 26  1  0
 54 29  1  0
M  END
>  <b_m_subgroup_collapsed>  (1062) 
0

>  <r_i_docking_score>  (1062) 
-6.8251375639027403

>  <s_m_subgroup_title>  (1062) 
glide-dock_SP_D22_pv

>  <s_m_subgroupid>  (1062) 
glide-dock_SP_D22_pv

>  <Molecule ChEMBL ID>  (1062) 
CHEMBL3289988

>  <Standard Type>  (1062) 
Ki

>  <Standard Value>  (1062) 
10000.0

>  <label>  (1062) 
0

$$$$
CHEMBL5757857
     RDKit          3D

 80 83  0  0  1  0  0  0  0  0999 V2000
    4.8461    1.0434  -20.9348 C   0  0  0  0  0  0  0  0  0  0  0  0
    5.1771    0.1385  -19.7697 C   0  0  0  0  0  0  0  0  0  0  0  0
    5.8358    0.6734  -18.7400 N   0  0  0  0  0  0  0  0  0  0  0  0
    6.1871   -0.1036  -17.6932 C   0  0  0  0  0  0  0  0  0  0  0  0
    6.9077    0.4769  -16.6288 N   0  0  0  0  0  0  0  0  0  0  0  0
    6.4919    0.1293  -15.2694 C   0  0  0  0  0  0  0  0  0  0  0  0
    7.5591    0.5508  -14.2357 C   0  0  0  0  0  0  0  0  0  0  0  0
    7.9125    1.9719  -14.3353 N   0  0  0  0  0  0  0  0  0  0  0  0
    6.8260    2.8541  -13.8957 C   0  0  0  0  0  0  0  0  0  0  0  0
    7.2933    4.2937  -13.5958 C   0  0  0  0  0  0  0  0  0  0  0  0
    8.0281    4.4511  -12.2561 C   0  0  0  0  0  0  0  0  0  0  0  0
    8.4603    5.9051  -12.0170 C   0  0  0  0  0  0  0  0  0  0  0  0
    9.1181    6.0614  -10.7238 N   0  0  0  0  0  0  0  0  0  0  0  0
   10.0401    6.9951  -10.4447 C   0  0  0  0  0  0  0  0  0  0  0  0
   10.4673    7.7686  -11.3044 O   0  0  0  0  0  0  0  0  0  0  0  0
   10.4856    7.0001   -9.1631 N   0  0  0  0  0  0  0  0  0  0  0  0
    9.9482    6.2162   -8.0358 C   0  0  0  0  0  0  0  0  0  0  0  0
    9.2854    7.1686   -7.0156 C   0  0  0  0  0  0  0  0  0  0  0  0
   10.1785    8.2694   -6.6425 N   0  0  0  0  0  0  0  0  0  0  0  0
   10.9207    8.2043   -5.4466 C   0  0  0  0  0  0  0  0  0  0  0  0
   11.2864    9.4051   -4.7926 C   0  0  0  0  0  0  0  0  0  0  0  0
   11.9690    9.3747   -3.5607 C   0  0  0  0  0  0  0  0  0  0  0  0
   12.3168    8.1453   -2.9763 C   0  0  0  0  0  0  0  0  0  0  0  0
   11.9790    6.9458   -3.6253 C   0  0  0  0  0  0  0  0  0  0  0  0
   11.2858    6.9727   -4.8501 C   0  0  0  0  0  0  0  0  0  0  0  0
   10.8014    8.9710   -7.7630 C   0  0  0  0  0  0  0  0  0  0  0  0
   11.4931    7.9654   -8.6991 C   0  0  0  0  0  0  0  0  0  0  0  0
    8.4034    2.2241  -15.6941 C   0  0  0  0  0  0  0  0  0  0  0  0
    7.3561    1.8616  -16.7714 C   0  0  0  0  0  0  0  0  0  0  0  0
    5.8670   -1.4725  -17.6995 C   0  0  0  0  0  0  0  0  0  0  0  0
    5.1825   -1.9947  -18.8162 C   0  0  0  0  0  0  0  0  0  0  0  0
    4.8190   -3.4809  -18.9716 C   0  0  0  0  0  0  0  0  0  0  0  0
    5.3003   -4.3311  -17.7747 C   0  0  0  0  0  0  0  0  0  0  0  0
    3.2925   -3.6331  -19.0876 C   0  0  0  0  0  0  0  0  0  0  0  0
    5.4928   -4.0473  -20.2375 C   0  0  0  0  0  0  0  0  0  0  0  0
    4.8408   -1.1555  -19.8261 N   0  0  0  0  0  0  0  0  0  0  0  0
    4.0817    1.7676  -20.6463 H   0  0  0  0  0  0  0  0  0  0  0  0
    5.7375    1.5859  -21.2533 H   0  0  0  0  0  0  0  0  0  0  0  0
    4.4860    0.4724  -21.7910 H   0  0  0  0  0  0  0  0  0  0  0  0
    6.3356   -0.9438  -15.1620 H   0  0  0  0  0  0  0  0  0  0  0  0
    5.5325    0.5943  -15.0485 H   0  0  0  0  0  0  0  0  0  0  0  0
    8.4636   -0.0403  -14.3929 H   0  0  0  0  0  0  0  0  0  0  0  0
    7.2167    0.3157  -13.2283 H   0  0  0  0  0  0  0  0  0  0  0  0
    6.3660    2.4485  -12.9962 H   0  0  0  0  0  0  0  0  0  0  0  0
    6.0411    2.8796  -14.6467 H   0  0  0  0  0  0  0  0  0  0  0  0
    6.4079    4.9297  -13.5637 H   0  0  0  0  0  0  0  0  0  0  0  0
    7.9089    4.6886  -14.4040 H   0  0  0  0  0  0  0  0  0  0  0  0
    8.9016    3.7970  -12.2394 H   0  0  0  0  0  0  0  0  0  0  0  0
    7.3774    4.1271  -11.4432 H   0  0  0  0  0  0  0  0  0  0  0  0
    7.5934    6.5673  -12.0360 H   0  0  0  0  0  0  0  0  0  0  0  0
    9.1220    6.2221  -12.8248 H   0  0  0  0  0  0  0  0  0  0  0  0
    8.7794    5.4901   -9.9659 H   0  0  0  0  0  0  0  0  0  0  0  0
   10.7766    5.6824   -7.5679 H   0  0  0  0  0  0  0  0  0  0  0  0
    9.2333    5.4474   -8.3270 H   0  0  0  0  0  0  0  0  0  0  0  0
    8.9503    6.6176   -6.1368 H   0  0  0  0  0  0  0  0  0  0  0  0
    8.3853    7.6013   -7.4531 H   0  0  0  0  0  0  0  0  0  0  0  0
   11.0096   10.3592   -5.2183 H   0  0  0  0  0  0  0  0  0  0  0  0
   12.2158   10.2918   -3.0474 H   0  0  0  0  0  0  0  0  0  0  0  0
   12.8351    8.1238   -2.0287 H   0  0  0  0  0  0  0  0  0  0  0  0
   12.2402    5.9976   -3.1773 H   0  0  0  0  0  0  0  0  0  0  0  0
   11.0277    6.0348   -5.3152 H   0  0  0  0  0  0  0  0  0  0  0  0
   10.0211    9.4979   -8.3110 H   0  0  0  0  0  0  0  0  0  0  0  0
   11.5152    9.7210   -7.4226 H   0  0  0  0  0  0  0  0  0  0  0  0
   12.2899    7.4420   -8.1696 H   0  0  0  0  0  0  0  0  0  0  0  0
   11.9806    8.4989   -9.5177 H   0  0  0  0  0  0  0  0  0  0  0  0
    8.7276    3.2568  -15.8030 H   0  0  0  0  0  0  0  0  0  0  0  0
    9.3003    1.6223  -15.8505 H   0  0  0  0  0  0  0  0  0  0  0  0
    7.8150    2.0002  -17.7494 H   0  0  0  0  0  0  0  0  0  0  0  0
    6.4972    2.5316  -16.7284 H   0  0  0  0  0  0  0  0  0  0  0  0
    6.1694   -2.1106  -16.8851 H   0  0  0  0  0  0  0  0  0  0  0  0
    6.3866   -4.3180  -17.6828 H   0  0  0  0  0  0  0  0  0  0  0  0
    4.8859   -3.9844  -16.8298 H   0  0  0  0  0  0  0  0  0  0  0  0
    5.0028   -5.3743  -17.8837 H   0  0  0  0  0  0  0  0  0  0  0  0
    2.9110   -3.1838  -20.0025 H   0  0  0  0  0  0  0  0  0  0  0  0
    2.9923   -4.6810  -19.0957 H   0  0  0  0  0  0  0  0  0  0  0  0
    2.7822   -3.1547  -18.2530 H   0  0  0  0  0  0  0  0  0  0  0  0
    6.5771   -3.9450  -20.1891 H   0  0  0  0  0  0  0  0  0  0  0  0
    5.2681   -5.1066  -20.3643 H   0  0  0  0  0  0  0  0  0  0  0  0
    5.1580   -3.5403  -21.1426 H   0  0  0  0  0  0  0  0  0  0  0  0
    4.3422   -1.5236  -20.6364 H   0  0  0  0  0  0  0  0  0  0  0  0
  2  1  1  0
  3  2  1  0
  4  3  2  0
  5  4  1  0
  6  5  1  0
  7  6  1  0
  8  7  1  0
  9  8  1  0
 10  9  1  0
 11 10  1  0
 12 11  1  0
 13 12  1  0
 14 13  1  0
 15 14  2  0
 16 14  1  0
 17 16  1  0
 18 17  1  0
 19 18  1  0
 20 19  1  0
 21 20  2  0
 22 21  1  0
 23 22  2  0
 24 23  1  0
 25 20  1  0
 25 24  2  0
 26 19  1  0
 27 16  1  0
 27 26  1  0
 28  8  1  0
 29  5  1  0
 29 28  1  0
 30  4  1  0
 31 30  2  0
 32 31  1  0
 33 32  1  0
 34 32  1  0
 35 32  1  0
 36  2  2  0
 36 31  1  0
 37  1  1  0
 38  1  1  0
 39  1  1  0
 40  6  1  0
 41  6  1  0
 42  7  1  0
 43  7  1  0
 44  9  1  0
 45  9  1  0
 46 10  1  0
 47 10  1  0
 48 11  1  0
 49 11  1  0
 50 12  1  0
 51 12  1  0
 52 13  1  0
 53 17  1  0
 54 17  1  0
 55 18  1  0
 56 18  1  0
 57 21  1  0
 58 22  1  0
 59 23  1  0
 60 24  1  0
 61 25  1  0
 62 26  1  0
 63 26  1  0
 64 27  1  0
 65 27  1  0
 66 28  1  0
 67 28  1  0
 68 29  1  0
 69 29  1  0
 70 30  1  0
 71 33  1  0
 72 33  1  0
 73 33  1  0
 74 34  1  0
 75 34  1  0
 76 34  1  0
 77 35  1  0
 78 35  1  0
 79 35  1  0
 80 36  1  0
M  CHG  1  36   1
M  END
>  <b_m_subgroup_collapsed>  (1063) 
0

>  <r_i_docking_score>  (1063) 
-6.8233898388616003

>  <s_m_subgroup_title>  (1063) 
glide-dock_SP_D22_pv

>  <s_m_subgroupid>  (1063) 
glide-dock_SP_D22_pv

>  <Molecule ChEMBL ID>  (1063) 
CHEMBL5757857

>  <Standard Type>  (1063) 
Ki

>  <Standard Value>  (1063) 
12888.0

>  <label>  (1063) 
0

$$$$
CHEMBL201739
     RDKit          3D

 36 40  0  0  1  0  0  0  0  0999 V2000
   10.9054    8.3659   -7.0474 C   0  0  0  0  0  0  0  0  0  0  0  0
    9.6260    7.8441   -7.3631 C   0  0  0  0  0  0  0  0  0  0  0  0
    9.2868    7.5271   -8.6993 C   0  0  0  0  0  0  0  0  0  0  0  0
   10.2540    7.7540   -9.6943 C   0  0  0  0  0  0  0  0  0  0  0  0
   11.5115    8.2516   -9.3807 C   0  0  0  0  0  0  0  0  0  0  0  0
   11.8708    8.5722   -8.0607 C   0  0  0  0  0  0  0  0  0  0  0  0
   12.3256    8.3447  -10.6466 C   0  0  0  0  0  0  0  0  0  0  0  0
   11.6243    7.3724  -11.4852 N   0  0  0  0  0  0  0  0  0  0  0  0
   11.9132    7.1936  -12.9110 C   0  0  0  0  0  0  0  0  0  0  0  0
   11.2621    5.8557  -13.3789 C   0  0  0  0  0  0  0  0  0  0  0  0
    9.8691    5.6915  -12.8198 C   0  0  0  0  0  0  0  0  0  0  0  0
    9.4093    6.4700  -11.7939 C   0  0  0  0  0  0  0  0  0  0  0  0
    8.0860    6.1723  -11.5417 N   0  0  0  0  0  0  0  0  0  0  0  0
    7.6731    5.1319  -12.3570 C   0  0  0  0  0  0  0  0  0  0  0  0
    6.4436    4.4599  -12.4844 C   0  0  0  0  0  0  0  0  0  0  0  0
    6.3123    3.4289  -13.4344 C   0  0  0  0  0  0  0  0  0  0  0  0
    7.4093    3.0739  -14.2444 C   0  0  0  0  0  0  0  0  0  0  0  0
    8.6367    3.7575  -14.1160 C   0  0  0  0  0  0  0  0  0  0  0  0
    8.7986    4.8016  -13.1748 C   0  0  0  0  0  0  0  0  0  0  0  0
   10.2017    7.5781  -11.1918 C   0  0  1  0  0  0  0  0  0  0  0  0
   11.1479    8.5991   -6.0208 H   0  0  0  0  0  0  0  0  0  0  0  0
    8.8973    7.6862   -6.5806 H   0  0  0  0  0  0  0  0  0  0  0  0
    8.3164    7.1234   -8.9403 H   0  0  0  0  0  0  0  0  0  0  0  0
   12.8519    8.9619   -7.8299 H   0  0  0  0  0  0  0  0  0  0  0  0
   12.2588    9.3561  -11.0468 H   0  0  0  0  0  0  0  0  0  0  0  0
   13.3729    8.0977  -10.4851 H   0  0  0  0  0  0  0  0  0  0  0  0
   11.5021    8.0194  -13.4900 H   0  0  0  0  0  0  0  0  0  0  0  0
   12.9872    7.1779  -13.0904 H   0  0  0  0  0  0  0  0  0  0  0  0
   11.2480    5.8109  -14.4680 H   0  0  0  0  0  0  0  0  0  0  0  0
   11.8811    5.0215  -13.0483 H   0  0  0  0  0  0  0  0  0  0  0  0
    7.4906    6.7212  -10.9097 H   0  0  0  0  0  0  0  0  0  0  0  0
    5.6137    4.7331  -11.8494 H   0  0  0  0  0  0  0  0  0  0  0  0
    5.3735    2.9042  -13.5353 H   0  0  0  0  0  0  0  0  0  0  0  0
    7.3082    2.2782  -14.9678 H   0  0  0  0  0  0  0  0  0  0  0  0
    9.4692    3.4794  -14.7452 H   0  0  0  0  0  0  0  0  0  0  0  0
    9.8744    8.5239  -11.6285 H   0  0  0  0  0  0  0  0  0  0  0  0
  2  1  2  0
  3  2  1  0
  4  3  2  0
  5  4  1  0
  6  1  1  0
  6  5  2  0
  7  5  1  0
  8  7  1  0
  9  8  1  0
 10  9  1  0
 11 10  1  0
 12 11  2  0
 13 12  1  0
 14 13  1  0
 15 14  2  0
 16 15  1  0
 17 16  2  0
 18 17  1  0
 19 11  1  0
 19 14  1  0
 19 18  2  0
 20  4  1  0
 20  8  1  0
 20 12  1  0
 21  1  1  0
 22  2  1  0
 23  3  1  0
 24  6  1  0
 25  7  1  0
 26  7  1  0
 27  9  1  0
 28  9  1  0
 29 10  1  0
 30 10  1  0
 31 13  1  0
 32 15  1  0
 33 16  1  0
 34 17  1  0
 35 18  1  0
 20 36  1  6
M  END
>  <b_m_subgroup_collapsed>  (1064) 
0

>  <r_i_docking_score>  (1064) 
-6.8193808569248997

>  <s_m_subgroup_title>  (1064) 
glide-dock_SP_D22_pv

>  <s_m_subgroupid>  (1064) 
glide-dock_SP_D22_pv

>  <Molecule ChEMBL ID>  (1064) 
CHEMBL201739

>  <Standard Type>  (1064) 
Ki

>  <Standard Value>  (1064) 
10000.0

>  <label>  (1064) 
0

$$$$
CHEMBL3234537
     RDKit          3D

 50 53  0  0  1  0  0  0  0  0999 V2000
    9.8563    1.5602  -15.2814 C   0  0  0  0  0  0  0  0  0  0  0  0
   11.2861    2.1322  -15.3611 C   0  0  0  0  0  0  0  0  0  0  0  0
   11.3738    3.4402  -16.0380 N   0  0  0  0  0  0  0  0  0  0  0  0
   11.1686    3.5068  -17.3851 C   0  0  0  0  0  0  0  0  0  0  0  0
   10.9421    2.5096  -18.0724 O   0  0  0  0  0  0  0  0  0  0  0  0
   11.1559    4.8508  -18.0721 C   0  0  0  0  0  0  0  0  0  0  0  0
   10.0468    5.2042  -18.8742 C   0  0  0  0  0  0  0  0  0  0  0  0
   10.0123    6.4418  -19.5478 C   0  0  0  0  0  0  0  0  0  0  0  0
   11.0982    7.3333  -19.4479 C   0  0  0  0  0  0  0  0  0  0  0  0
   12.2202    6.9866  -18.6719 C   0  0  0  0  0  0  0  0  0  0  0  0
   12.2479    5.7508  -17.9936 C   0  0  0  0  0  0  0  0  0  0  0  0
   13.6694    5.3563  -16.9261 S   0  0  0  0  0  0  0  0  0  0  0  0
   14.5947    6.5759  -16.9511 O   0  0  0  0  0  0  0  0  0  0  0  0
   12.6104    5.5331  -15.4629 C   0  0  0  0  0  0  0  0  0  0  0  0
   12.7661    6.6683  -14.6468 C   0  0  0  0  0  0  0  0  0  0  0  0
   11.9082    6.8681  -13.5495 C   0  0  0  0  0  0  0  0  0  0  0  0
   10.8848    5.9334  -13.2695 C   0  0  0  0  0  0  0  0  0  0  0  0
    9.8508    6.1877  -12.2058 C   0  0  0  0  0  0  0  0  0  0  0  0
    8.7597    5.6190  -12.2556 O   0  0  0  0  0  0  0  0  0  0  0  0
   10.1942    7.0378  -11.2253 N   0  0  0  0  0  0  0  0  0  0  0  0
    9.2730    7.4963  -10.1913 C   0  0  0  0  0  0  0  0  0  0  0  0
    9.9414    7.8356   -8.8703 C   0  0  0  0  0  0  0  0  0  0  0  0
    9.2881    7.5016   -7.6659 C   0  0  0  0  0  0  0  0  0  0  0  0
    9.8639    7.8451   -6.4292 C   0  0  0  0  0  0  0  0  0  0  0  0
   11.0834    8.5484   -6.3826 C   0  0  0  0  0  0  0  0  0  0  0  0
   11.6422    8.9631   -5.1046 C   0  0  0  0  0  0  0  0  0  0  0  0
   12.0838    9.2916   -4.0865 N   0  0  0  0  0  0  0  0  0  0  0  0
   11.7507    8.8603   -7.5832 C   0  0  0  0  0  0  0  0  0  0  0  0
   11.1811    8.5129   -8.8244 C   0  0  0  0  0  0  0  0  0  0  0  0
   10.7516    4.7922  -14.0900 C   0  0  0  0  0  0  0  0  0  0  0  0
   11.5893    4.5867  -15.2073 C   0  0  0  0  0  0  0  0  0  0  0  0
    9.8525    0.6303  -14.7127 H   0  0  0  0  0  0  0  0  0  0  0  0
    9.1674    2.2452  -14.7881 H   0  0  0  0  0  0  0  0  0  0  0  0
    9.4477    1.3367  -16.2682 H   0  0  0  0  0  0  0  0  0  0  0  0
   11.9385    1.4189  -15.8663 H   0  0  0  0  0  0  0  0  0  0  0  0
   11.6858    2.2135  -14.3496 H   0  0  0  0  0  0  0  0  0  0  0  0
    9.2063    4.5308  -18.9675 H   0  0  0  0  0  0  0  0  0  0  0  0
    9.1524    6.7083  -20.1443 H   0  0  0  0  0  0  0  0  0  0  0  0
   11.0684    8.2840  -19.9594 H   0  0  0  0  0  0  0  0  0  0  0  0
   13.0441    7.6786  -18.5851 H   0  0  0  0  0  0  0  0  0  0  0  0
   13.5357    7.3925  -14.8658 H   0  0  0  0  0  0  0  0  0  0  0  0
   12.0267    7.7644  -12.9593 H   0  0  0  0  0  0  0  0  0  0  0  0
   11.1200    7.4370  -11.2345 H   0  0  0  0  0  0  0  0  0  0  0  0
    8.7746    8.3938  -10.5567 H   0  0  0  0  0  0  0  0  0  0  0  0
    8.4876    6.7580  -10.0121 H   0  0  0  0  0  0  0  0  0  0  0  0
    8.3386    6.9845   -7.6846 H   0  0  0  0  0  0  0  0  0  0  0  0
    9.3518    7.5714   -5.5195 H   0  0  0  0  0  0  0  0  0  0  0  0
   12.7023    9.3724   -7.5593 H   0  0  0  0  0  0  0  0  0  0  0  0
   11.6962    8.7866   -9.7333 H   0  0  0  0  0  0  0  0  0  0  0  0
    9.9557    4.0925  -13.8839 H   0  0  0  0  0  0  0  0  0  0  0  0
  2  1  1  0
  3  2  1  0
  4  3  1  0
  5  4  2  0
  6  4  1  0
  7  6  2  0
  8  7  1  0
  9  8  2  0
 10  9  1  0
 11  6  1  0
 11 10  2  0
 12 11  1  6
 13 12  2  0
 14 12  1  0
 15 14  1  0
 16 15  2  0
 17 16  1  0
 18 17  1  0
 19 18  2  0
 20 18  1  0
 21 20  1  0
 22 21  1  0
 23 22  1  0
 24 23  2  0
 25 24  1  0
 26 25  1  0
 27 26  3  0
 28 25  2  0
 29 22  2  0
 29 28  1  0
 30 17  2  0
 31  3  1  0
 31 14  2  0
 31 30  1  0
 32  1  1  0
 33  1  1  0
 34  1  1  0
 35  2  1  0
 36  2  1  0
 37  7  1  0
 38  8  1  0
 39  9  1  0
 40 10  1  0
 41 15  1  0
 42 16  1  0
 43 20  1  0
 44 21  1  0
 45 21  1  0
 46 23  1  0
 47 24  1  0
 48 28  1  0
 49 29  1  0
 50 30  1  0
M  END
>  <b_m_subgroup_collapsed>  (1065) 
0

>  <r_i_docking_score>  (1065) 
-6.8191553131250897

>  <s_m_subgroup_title>  (1065) 
glide-dock_SP_D22_pv

>  <s_m_subgroupid>  (1065) 
glide-dock_SP_D22_pv

>  <Molecule ChEMBL ID>  (1065) 
CHEMBL3234537

>  <Standard Type>  (1065) 
Ki

>  <Standard Value>  (1065) 
23.0

>  <label>  (1065) 
1

$$$$
CHEMBL4096422
     RDKit          3D

 59 63  0  0  1  0  0  0  0  0999 V2000
   11.4762    2.1889  -16.2516 C   0  0  0  0  0  0  0  0  0  0  0  0
   10.8612    3.4001  -15.7104 N   0  0  0  0  0  0  0  0  0  0  0  0
   11.8740    4.0792  -14.8918 C   0  0  0  0  0  0  0  0  0  0  0  0
   11.8440    5.6135  -15.0404 C   0  0  0  0  0  0  0  0  0  0  0  0
   12.5539    6.2955  -13.8628 C   0  0  0  0  0  0  0  0  0  0  0  0
   11.7559    7.3729  -13.1284 C   0  0  0  0  0  0  0  0  0  0  0  0
   10.6358    6.8127  -12.4468 O   0  0  0  0  0  0  0  0  0  0  0  0
   10.4863    6.9705  -11.0827 C   0  0  0  0  0  0  0  0  0  0  0  0
    9.6645    6.0253  -10.4346 C   0  0  0  0  0  0  0  0  0  0  0  0
    9.4868    6.0385   -9.0393 C   0  0  0  0  0  0  0  0  0  0  0  0
   10.1433    7.0114   -8.2656 C   0  0  0  0  0  0  0  0  0  0  0  0
   10.9434    7.9859   -8.8980 C   0  0  0  0  0  0  0  0  0  0  0  0
   11.1119    7.9743  -10.2986 C   0  0  0  0  0  0  0  0  0  0  0  0
   11.5993    8.9718   -8.1239 N   0  0  0  0  0  0  0  0  0  0  0  0
   11.3255    9.2331   -6.8348 C   0  0  0  0  0  0  0  0  0  0  0  0
   11.8978   10.1266   -6.2174 O   0  0  0  0  0  0  0  0  0  0  0  0
   10.2272    8.4132   -6.1481 C   0  0  0  0  0  0  0  0  0  0  0  0
   10.0442    7.0067   -6.7509 C   0  0  0  0  0  0  0  0  0  0  0  0
    9.6640    3.0921  -14.8985 C   0  0  2  0  0  0  0  0  0  0  0  0
    8.6571    2.1211  -15.5837 C   0  0  0  0  0  0  0  0  0  0  0  0
    7.4362    1.8370  -14.7201 C   0  0  0  0  0  0  0  0  0  0  0  0
    6.6696    0.6602  -14.5564 C   0  0  0  0  0  0  0  0  0  0  0  0
    5.5955    0.6407  -13.6228 C   0  0  0  0  0  0  0  0  0  0  0  0
    5.2670    1.7902  -12.8531 C   0  0  0  0  0  0  0  0  0  0  0  0
    6.0004    2.9714  -13.0444 C   0  0  0  0  0  0  0  0  0  0  0  0
    6.0001    4.2251  -12.4374 N   0  0  0  0  0  0  0  0  0  0  0  0
    7.0241    4.9391  -12.9370 C   0  0  0  0  0  0  0  0  0  0  0  0
    7.3125    6.0945  -12.6465 O   0  0  0  0  0  0  0  0  0  0  0  0
    7.6798    4.1498  -13.8183 N   0  0  0  0  0  0  0  0  0  0  0  0
    7.0409    2.9191  -13.9327 C   0  0  0  0  0  0  0  0  0  0  0  0
    8.9556    4.4046  -14.4606 C   0  0  0  0  0  0  0  0  0  0  0  0
   10.8354    1.7191  -16.9973 H   0  0  0  0  0  0  0  0  0  0  0  0
   12.4108    2.4191  -16.7649 H   0  0  0  0  0  0  0  0  0  0  0  0
   11.6860    1.4628  -15.4650 H   0  0  0  0  0  0  0  0  0  0  0  0
   12.8816    3.7677  -15.1703 H   0  0  0  0  0  0  0  0  0  0  0  0
   11.7638    3.7833  -13.8474 H   0  0  0  0  0  0  0  0  0  0  0  0
   10.8416    6.0162  -15.1461 H   0  0  0  0  0  0  0  0  0  0  0  0
   12.3393    5.8867  -15.9726 H   0  0  0  0  0  0  0  0  0  0  0  0
   13.4590    6.7627  -14.2485 H   0  0  0  0  0  0  0  0  0  0  0  0
   12.8852    5.5597  -13.1308 H   0  0  0  0  0  0  0  0  0  0  0  0
   11.4031    8.1133  -13.8469 H   0  0  0  0  0  0  0  0  0  0  0  0
   12.4610    7.8792  -12.4740 H   0  0  0  0  0  0  0  0  0  0  0  0
    9.1802    5.2577  -11.0161 H   0  0  0  0  0  0  0  0  0  0  0  0
    8.8600    5.2931   -8.5717 H   0  0  0  0  0  0  0  0  0  0  0  0
   11.7221    8.7450  -10.7433 H   0  0  0  0  0  0  0  0  0  0  0  0
   12.2952    9.5390   -8.5878 H   0  0  0  0  0  0  0  0  0  0  0  0
   10.4493    8.3399   -5.0837 H   0  0  0  0  0  0  0  0  0  0  0  0
    9.2957    8.9721   -6.2483 H   0  0  0  0  0  0  0  0  0  0  0  0
    9.0779    6.6008   -6.4507 H   0  0  0  0  0  0  0  0  0  0  0  0
   10.8057    6.3316   -6.3600 H   0  0  0  0  0  0  0  0  0  0  0  0
    9.9970    2.5790  -13.9936 H   0  0  0  0  0  0  0  0  0  0  0  0
    8.3239    2.5322  -16.5368 H   0  0  0  0  0  0  0  0  0  0  0  0
    9.1139    1.1544  -15.7912 H   0  0  0  0  0  0  0  0  0  0  0  0
    6.9118   -0.2298  -15.1188 H   0  0  0  0  0  0  0  0  0  0  0  0
    5.0311   -0.2691  -13.4876 H   0  0  0  0  0  0  0  0  0  0  0  0
    4.4860    1.7721  -12.1157 H   0  0  0  0  0  0  0  0  0  0  0  0
    5.3686    4.5174  -11.7048 H   0  0  0  0  0  0  0  0  0  0  0  0
    9.5676    4.9331  -13.7330 H   0  0  0  0  0  0  0  0  0  0  0  0
    8.7979    5.0664  -15.3112 H   0  0  0  0  0  0  0  0  0  0  0  0
  2  1  1  0
  3  2  1  0
  4  3  1  0
  5  4  1  0
  6  5  1  0
  7  6  1  0
  8  7  1  0
  9  8  1  0
 10  9  2  0
 11 10  1  0
 12 11  2  0
 13  8  2  0
 13 12  1  0
 14 12  1  0
 15 14  1  0
 16 15  2  0
 17 15  1  0
 18 11  1  0
 18 17  1  0
 19  2  1  0
 20 19  1  0
 21 20  1  0
 22 21  1  0
 23 22  2  0
 24 23  1  0
 25 24  2  0
 26 25  1  0
 27 26  1  0
 28 27  2  0
 29 27  1  0
 30 21  2  0
 30 25  1  0
 30 29  1  0
 31 19  1  0
 31 29  1  0
 32  1  1  0
 33  1  1  0
 34  1  1  0
 35  3  1  0
 36  3  1  0
 37  4  1  0
 38  4  1  0
 39  5  1  0
 40  5  1  0
 41  6  1  0
 42  6  1  0
 43  9  1  0
 44 10  1  0
 45 13  1  0
 46 14  1  0
 47 17  1  0
 48 17  1  0
 49 18  1  0
 50 18  1  0
 19 51  1  1
 52 20  1  0
 53 20  1  0
 54 22  1  0
 55 23  1  0
 56 24  1  0
 57 26  1  0
 58 31  1  0
 59 31  1  0
M  END
>  <b_m_subgroup_collapsed>  (1066) 
0

>  <r_i_docking_score>  (1066) 
-6.8121777840047901

>  <s_m_subgroup_title>  (1066) 
glide-dock_SP_D22_pv

>  <s_m_subgroupid>  (1066) 
glide-dock_SP_D22_pv

>  <Molecule ChEMBL ID>  (1066) 
CHEMBL4096422

>  <Standard Type>  (1066) 
Ki

>  <Standard Value>  (1066) 
40.1

>  <label>  (1066) 
1

$$$$
CHEMBL271913
     RDKit          3D

 73 76  0  0  1  0  0  0  0  0999 V2000
   11.6179    9.3585   -8.5961 C   0  0  0  0  0  0  0  0  0  0  0  0
   10.8865    9.7686   -7.4468 O   0  0  0  0  0  0  0  0  0  0  0  0
   11.1399    9.0268   -6.3324 C   0  0  0  0  0  0  0  0  0  0  0  0
   12.0344    9.5280   -5.3701 C   0  0  0  0  0  0  0  0  0  0  0  0
   12.3233    8.7747   -4.2191 C   0  0  0  0  0  0  0  0  0  0  0  0
   11.7632    7.4920   -4.0643 C   0  0  0  0  0  0  0  0  0  0  0  0
   12.1108    6.5732   -2.6475 Cl  0  0  0  0  0  0  0  0  0  0  0  0
   10.8860    6.9791   -5.0405 C   0  0  0  0  0  0  0  0  0  0  0  0
   10.5144    7.7779   -6.1383 C   0  0  0  0  0  0  0  0  0  0  0  0
    9.4957    7.3558   -7.0253 N   0  0  0  0  0  0  0  0  0  0  0  0
    9.7479    6.5149   -8.0273 C   0  0  0  0  0  0  0  0  0  0  0  0
   10.7215    5.7723   -8.0264 O   0  0  0  0  0  0  0  0  0  0  0  0
    8.8860    6.6297   -9.0445 N   0  0  0  0  0  0  0  0  0  0  0  0
    9.0295    6.1080  -10.4032 C   0  0  1  0  0  0  0  0  0  0  0  0
   10.1425    6.7984  -11.1932 C   0  0  0  0  0  0  0  0  0  0  0  0
   10.0822    6.3526  -12.6604 C   0  0  0  0  0  0  0  0  0  0  0  0
   10.2540    4.8249  -12.8644 C   0  0  2  0  0  0  0  0  0  0  0  0
   10.0827    4.3759  -14.2866 N   0  0  0  0  0  0  0  0  0  0  0  0
   10.1981    2.8889  -14.4322 C   0  0  0  0  0  0  0  0  0  0  0  0
   10.0245    2.4045  -15.8772 C   0  0  0  0  0  0  0  0  0  0  0  0
   10.8719    3.1642  -16.7793 N   0  0  0  0  0  0  0  0  0  0  0  0
   11.6253    2.5322  -17.7930 C   0  0  0  0  0  0  0  0  0  0  0  0
   12.9257    3.0148  -18.0671 C   0  0  0  0  0  0  0  0  0  0  0  0
   13.7315    2.4100  -19.0469 C   0  0  0  0  0  0  0  0  0  0  0  0
   13.2451    1.3079  -19.7673 C   0  0  0  0  0  0  0  0  0  0  0  0
   11.9519    0.8192  -19.5124 C   0  0  0  0  0  0  0  0  0  0  0  0
   11.1253    1.4190  -18.5273 C   0  0  0  0  0  0  0  0  0  0  0  0
    9.8338    0.9934  -18.2741 O   0  0  0  0  0  0  0  0  0  0  0  0
    9.3867   -0.2806  -18.7285 C   0  0  0  0  0  0  0  0  0  0  0  0
    7.8722   -0.3171  -18.4945 C   0  0  0  0  0  0  0  0  0  0  0  0
   10.0853   -1.4105  -17.9514 C   0  0  0  0  0  0  0  0  0  0  0  0
   10.7886    4.6152  -16.6956 C   0  0  0  0  0  0  0  0  0  0  0  0
   10.9917    5.0805  -15.2420 C   0  0  0  0  0  0  0  0  0  0  0  0
    9.3086    4.0534  -11.9021 C   0  0  0  0  0  0  0  0  0  0  0  0
    9.2071    4.5927  -10.4600 C   0  0  0  0  0  0  0  0  0  0  0  0
   11.4017   10.0305   -9.4280 H   0  0  0  0  0  0  0  0  0  0  0  0
   12.6910    9.3657   -8.3989 H   0  0  0  0  0  0  0  0  0  0  0  0
   11.3660    8.3593   -8.9318 H   0  0  0  0  0  0  0  0  0  0  0  0
   12.4943   10.4926   -5.5176 H   0  0  0  0  0  0  0  0  0  0  0  0
   12.9810    9.1751   -3.4640 H   0  0  0  0  0  0  0  0  0  0  0  0
   10.4343    6.0118   -4.8944 H   0  0  0  0  0  0  0  0  0  0  0  0
    8.7045    7.9728   -7.1336 H   0  0  0  0  0  0  0  0  0  0  0  0
    8.0490    7.1898   -8.9052 H   0  0  0  0  0  0  0  0  0  0  0  0
    8.0856    6.3433  -10.8945 H   0  0  0  0  0  0  0  0  0  0  0  0
   10.0178    7.8813  -11.1393 H   0  0  0  0  0  0  0  0  0  0  0  0
   11.1163    6.5736  -10.7603 H   0  0  0  0  0  0  0  0  0  0  0  0
   10.8551    6.9061  -13.1946 H   0  0  0  0  0  0  0  0  0  0  0  0
    9.1105    6.6529  -13.0468 H   0  0  0  0  0  0  0  0  0  0  0  0
   11.2864    4.5726  -12.6469 H   0  0  0  0  0  0  0  0  0  0  0  0
    9.4467    2.3634  -13.8444 H   0  0  0  0  0  0  0  0  0  0  0  0
   11.1742    2.5679  -14.0608 H   0  0  0  0  0  0  0  0  0  0  0  0
    8.9858    2.5085  -16.1926 H   0  0  0  0  0  0  0  0  0  0  0  0
   10.2701    1.3422  -15.9138 H   0  0  0  0  0  0  0  0  0  0  0  0
   13.3319    3.8448  -17.5092 H   0  0  0  0  0  0  0  0  0  0  0  0
   14.7241    2.7868  -19.2399 H   0  0  0  0  0  0  0  0  0  0  0  0
   13.8613    0.8381  -20.5208 H   0  0  0  0  0  0  0  0  0  0  0  0
   11.6158   -0.0192  -20.1011 H   0  0  0  0  0  0  0  0  0  0  0  0
    9.5477   -0.3956  -19.8012 H   0  0  0  0  0  0  0  0  0  0  0  0
    7.4437   -1.2640  -18.8247 H   0  0  0  0  0  0  0  0  0  0  0  0
    7.6323   -0.1940  -17.4378 H   0  0  0  0  0  0  0  0  0  0  0  0
    7.3739    0.4807  -19.0448 H   0  0  0  0  0  0  0  0  0  0  0  0
    9.6853   -2.3795  -18.2468 H   0  0  0  0  0  0  0  0  0  0  0  0
   11.1587   -1.4305  -18.1341 H   0  0  0  0  0  0  0  0  0  0  0  0
    9.9368   -1.2991  -16.8765 H   0  0  0  0  0  0  0  0  0  0  0  0
   11.5082    5.1039  -17.3524 H   0  0  0  0  0  0  0  0  0  0  0  0
    9.8025    4.9214  -17.0486 H   0  0  0  0  0  0  0  0  0  0  0  0
   10.8335    6.1578  -15.2201 H   0  0  0  0  0  0  0  0  0  0  0  0
   12.0278    4.9045  -14.9484 H   0  0  0  0  0  0  0  0  0  0  0  0
    8.3029    4.0175  -12.3236 H   0  0  0  0  0  0  0  0  0  0  0  0
    9.6799    3.0303  -11.8268 H   0  0  0  0  0  0  0  0  0  0  0  0
    8.3433    4.1722   -9.9518 H   0  0  0  0  0  0  0  0  0  0  0  0
   10.0858    4.2706   -9.9044 H   0  0  0  0  0  0  0  0  0  0  0  0
    9.1395    4.6134  -14.5587 H   0  0  0  0  0  0  0  0  0  0  0  0
  2  1  1  0
  3  2  1  0
  4  3  1  0
  5  4  2  0
  6  5  1  0
  7  6  1  0
  8  6  2  0
  9  3  2  0
  9  8  1  0
 10  9  1  0
 11 10  1  0
 12 11  2  0
 13 11  1  0
 14 13  1  0
 15 14  1  0
 16 15  1  0
 17 16  1  0
 18 17  1  0
 19 18  1  0
 20 19  1  0
 21 20  1  0
 22 21  1  0
 23 22  2  0
 24 23  1  0
 25 24  2  0
 26 25  1  0
 27 22  1  0
 27 26  2  0
 28 27  1  0
 29 28  1  0
 30 29  1  0
 31 29  1  0
 32 21  1  0
 33 18  1  0
 33 32  1  0
 34 17  1  0
 35 14  1  0
 35 34  1  0
 36  1  1  0
 37  1  1  0
 38  1  1  0
 39  4  1  0
 40  5  1  0
 41  8  1  0
 42 10  1  0
 43 13  1  0
 14 44  1  6
 45 15  1  0
 46 15  1  0
 47 16  1  0
 48 16  1  0
 17 49  1  1
 50 19  1  0
 51 19  1  0
 52 20  1  0
 53 20  1  0
 54 23  1  0
 55 24  1  0
 56 25  1  0
 57 26  1  0
 58 29  1  0
 59 30  1  0
 60 30  1  0
 61 30  1  0
 62 31  1  0
 63 31  1  0
 64 31  1  0
 65 32  1  0
 66 32  1  0
 67 33  1  0
 68 33  1  0
 69 34  1  0
 70 34  1  0
 71 35  1  0
 72 35  1  0
 73 18  1  0
M  CHG  1  18   1
M  END
>  <b_m_subgroup_collapsed>  (1067) 
0

>  <r_i_docking_score>  (1067) 
-6.8086594868855101

>  <s_m_subgroup_title>  (1067) 
glide-dock_SP_D22_pv

>  <s_m_subgroupid>  (1067) 
glide-dock_SP_D22_pv

>  <Molecule ChEMBL ID>  (1067) 
CHEMBL271913

>  <Standard Type>  (1067) 
Ki

>  <Standard Value>  (1067) 
1.2

>  <label>  (1067) 
1

$$$$
CHEMBL243955
     RDKit          3D

 74 77  0  0  1  0  0  0  0  0999 V2000
   10.5940    7.2387   -5.7540 C   0  0  0  0  0  0  0  0  0  0  0  0
   10.0786    7.7659   -7.0108 N   0  0  0  0  0  0  0  0  0  0  0  0
    8.8839    8.5806   -6.9731 C   0  0  0  0  0  0  0  0  0  0  0  0
   10.9719    7.9750   -8.0769 C   0  0  0  0  0  0  0  0  0  0  0  0
   12.2327    8.5117   -7.7743 C   0  0  0  0  0  0  0  0  0  0  0  0
   13.2183    8.5722   -8.7549 C   0  0  0  0  0  0  0  0  0  0  0  0
   12.9589    8.1723  -10.0675 C   0  0  0  0  0  0  0  0  0  0  0  0
   11.6864    7.7482  -10.4202 C   0  0  0  0  0  0  0  0  0  0  0  0
   10.6802    7.6505   -9.4401 C   0  0  0  0  0  0  0  0  0  0  0  0
    9.4432    7.1658   -9.8601 N   0  0  0  0  0  0  0  0  0  0  0  0
    8.8853    7.5537  -11.1658 C   0  0  0  0  0  0  0  0  0  0  0  0
    8.3797    6.3340  -11.9534 C   0  0  0  0  0  0  0  0  0  0  0  0
    7.6860    5.3591  -11.0720 N   0  0  0  0  0  0  0  0  0  0  0  0
    7.1609    4.1766  -11.7785 C   0  0  0  0  0  0  0  0  0  0  0  0
    5.8719    4.4410  -12.5440 C   0  0  0  0  0  0  0  0  0  0  0  0
    5.7430    3.4445  -13.6909 C   0  0  0  0  0  0  0  0  0  0  0  0
    5.5842    1.9577  -13.2694 C   0  0  0  0  0  0  0  0  0  0  0  0
    6.0575    0.8608  -14.2631 C   0  0  0  0  0  0  0  0  0  0  0  0
    7.3525    1.1727  -15.0249 C   0  0  0  0  0  0  0  0  0  0  0  0
    7.3005    1.8699  -16.0358 O   0  0  0  0  0  0  0  0  0  0  0  0
    8.4894    0.6531  -14.5334 N   0  0  0  0  0  0  0  0  0  0  0  0
    9.8568    0.8208  -15.0391 C   0  0  1  0  0  0  0  0  0  0  0  0
   10.1427    0.0012  -16.3122 C   0  0  0  0  0  0  0  0  0  0  0  0
    9.8992    0.7702  -17.6138 C   0  0  0  0  0  0  0  0  0  0  0  0
   10.7094    2.0700  -17.6614 C   0  0  0  0  0  0  0  0  0  0  0  0
   10.7281    2.8527  -16.3556 C   0  0  0  0  0  0  0  0  0  0  0  0
   11.2061    4.1799  -16.3770 C   0  0  0  0  0  0  0  0  0  0  0  0
   11.3253    4.9173  -15.1839 C   0  0  0  0  0  0  0  0  0  0  0  0
   10.9545    4.3327  -13.9624 C   0  0  0  0  0  0  0  0  0  0  0  0
   10.4395    3.0228  -13.9349 C   0  0  0  0  0  0  0  0  0  0  0  0
   10.3336    2.2691  -15.1240 C   0  0  0  0  0  0  0  0  0  0  0  0
    8.5497    4.9152   -9.9617 C   0  0  0  0  0  0  0  0  0  0  0  0
    8.8730    6.0847   -9.0756 C   0  0  0  0  0  0  0  0  0  0  0  0
   11.4340    6.5616   -5.9186 H   0  0  0  0  0  0  0  0  0  0  0  0
   10.9193    8.0474   -5.0972 H   0  0  0  0  0  0  0  0  0  0  0  0
    9.8130    6.6756   -5.2409 H   0  0  0  0  0  0  0  0  0  0  0  0
    8.0313    7.9868   -6.6534 H   0  0  0  0  0  0  0  0  0  0  0  0
    9.0428    9.3687   -6.2462 H   0  0  0  0  0  0  0  0  0  0  0  0
    8.6503    9.0295   -7.9357 H   0  0  0  0  0  0  0  0  0  0  0  0
   12.4833    8.8355   -6.7742 H   0  0  0  0  0  0  0  0  0  0  0  0
   14.1852    8.9729   -8.5412 H   0  0  0  0  0  0  0  0  0  0  0  0
   13.7294    8.2560  -10.8177 H   0  0  0  0  0  0  0  0  0  0  0  0
   11.5216    7.4538  -11.4453 H   0  0  0  0  0  0  0  0  0  0  0  0
    8.0868    8.2832  -11.0469 H   0  0  0  0  0  0  0  0  0  0  0  0
    9.5948    8.1005  -11.7852 H   0  0  0  0  0  0  0  0  0  0  0  0
    7.7213    6.6698  -12.7549 H   0  0  0  0  0  0  0  0  0  0  0  0
    9.2233    5.8427  -12.4304 H   0  0  0  0  0  0  0  0  0  0  0  0
    7.9422    3.7741  -12.4261 H   0  0  0  0  0  0  0  0  0  0  0  0
    6.9146    3.4032  -11.0488 H   0  0  0  0  0  0  0  0  0  0  0  0
    5.0142    4.3778  -11.8734 H   0  0  0  0  0  0  0  0  0  0  0  0
    5.8586    5.4488  -12.9582 H   0  0  0  0  0  0  0  0  0  0  0  0
    4.8860    3.7704  -14.2468 H   0  0  0  0  0  0  0  0  0  0  0  0
    6.5966    3.6052  -14.3454 H   0  0  0  0  0  0  0  0  0  0  0  0
    6.0858    1.7777  -12.3255 H   0  0  0  0  0  0  0  0  0  0  0  0
    4.5331    1.7817  -13.0368 H   0  0  0  0  0  0  0  0  0  0  0  0
    6.1720   -0.0805  -13.7244 H   0  0  0  0  0  0  0  0  0  0  0  0
    5.2847    0.6576  -15.0045 H   0  0  0  0  0  0  0  0  0  0  0  0
    8.4053    0.0994  -13.6966 H   0  0  0  0  0  0  0  0  0  0  0  0
   10.4681    0.3694  -14.2544 H   0  0  0  0  0  0  0  0  0  0  0  0
   11.2076   -0.2279  -16.3008 H   0  0  0  0  0  0  0  0  0  0  0  0
    9.6135   -0.9531  -16.3040 H   0  0  0  0  0  0  0  0  0  0  0  0
    8.8418    0.9938  -17.7218 H   0  0  0  0  0  0  0  0  0  0  0  0
   10.1535    0.1492  -18.4731 H   0  0  0  0  0  0  0  0  0  0  0  0
   10.3394    2.7055  -18.4655 H   0  0  0  0  0  0  0  0  0  0  0  0
   11.7449    1.8312  -17.9086 H   0  0  0  0  0  0  0  0  0  0  0  0
   11.5115    4.6285  -17.3091 H   0  0  0  0  0  0  0  0  0  0  0  0
   11.7168    5.9236  -15.2097 H   0  0  0  0  0  0  0  0  0  0  0  0
   11.0837    4.8840  -13.0452 H   0  0  0  0  0  0  0  0  0  0  0  0
   10.1568    2.5749  -12.9943 H   0  0  0  0  0  0  0  0  0  0  0  0
    8.0631    4.1688   -9.3405 H   0  0  0  0  0  0  0  0  0  0  0  0
    9.4625    4.4598  -10.3519 H   0  0  0  0  0  0  0  0  0  0  0  0
    9.5628    5.7180   -8.3161 H   0  0  0  0  0  0  0  0  0  0  0  0
    7.9946    6.4426   -8.5507 H   0  0  0  0  0  0  0  0  0  0  0  0
    6.9149    5.8674  -10.6479 H   0  0  0  0  0  0  0  0  0  0  0  0
  2  1  1  0
  3  2  1  0
  4  2  1  0
  5  4  2  0
  6  5  1  0
  7  6  2  0
  8  7  1  0
  9  4  1  0
  9  8  2  0
 10  9  1  0
 11 10  1  0
 12 11  1  0
 13 12  1  0
 14 13  1  0
 15 14  1  0
 16 15  1  0
 17 16  1  0
 18 17  1  0
 19 18  1  0
 20 19  2  0
 21 19  1  0
 22 21  1  0
 23 22  1  0
 24 23  1  0
 25 24  1  0
 26 25  1  0
 27 26  2  0
 28 27  1  0
 29 28  2  0
 30 29  1  0
 31 22  1  0
 31 26  1  0
 31 30  2  0
 32 13  1  0
 33 10  1  0
 33 32  1  0
 34  1  1  0
 35  1  1  0
 36  1  1  0
 37  3  1  0
 38  3  1  0
 39  3  1  0
 40  5  1  0
 41  6  1  0
 42  7  1  0
 43  8  1  0
 44 11  1  0
 45 11  1  0
 46 12  1  0
 47 12  1  0
 48 14  1  0
 49 14  1  0
 50 15  1  0
 51 15  1  0
 52 16  1  0
 53 16  1  0
 54 17  1  0
 55 17  1  0
 56 18  1  0
 57 18  1  0
 58 21  1  0
 22 59  1  1
 60 23  1  0
 61 23  1  0
 62 24  1  0
 63 24  1  0
 64 25  1  0
 65 25  1  0
 66 27  1  0
 67 28  1  0
 68 29  1  0
 69 30  1  0
 70 32  1  0
 71 32  1  0
 72 33  1  0
 73 33  1  0
 74 13  1  0
M  CHG  1  13   1
M  END
>  <b_m_subgroup_collapsed>  (1068) 
0

>  <r_i_docking_score>  (1068) 
-6.8041174344886901

>  <s_m_subgroup_title>  (1068) 
glide-dock_SP_D22_pv

>  <s_m_subgroupid>  (1068) 
glide-dock_SP_D22_pv

>  <Molecule ChEMBL ID>  (1068) 
CHEMBL243955

>  <Standard Type>  (1068) 
Ki

>  <Standard Value>  (1068) 
32.0

>  <label>  (1068) 
1

$$$$
CHEMBL4076796
     RDKit          3D

 23 24  0  0  1  0  0  0  0  0999 V2000
   12.0516    8.0660   -3.5521 N   0  0  0  0  0  0  0  0  0  0  0  0
   11.6836    8.0394   -4.6503 C   0  0  0  0  0  0  0  0  0  0  0  0
   11.2303    8.0072   -6.0338 C   0  0  0  0  0  0  0  0  0  0  0  0
   11.6584    9.0033   -6.9348 C   0  0  0  0  0  0  0  0  0  0  0  0
   11.2345    8.9723   -8.2777 C   0  0  0  0  0  0  0  0  0  0  0  0
   10.3787    7.9516   -8.7351 C   0  0  0  0  0  0  0  0  0  0  0  0
    9.9595    6.9406   -7.8370 C   0  0  0  0  0  0  0  0  0  0  0  0
   10.3815    6.9754   -6.4892 C   0  0  0  0  0  0  0  0  0  0  0  0
    9.0297    5.8388   -8.3167 C   0  0  0  0  0  0  0  0  0  0  0  0
    9.0585    5.6695   -9.8421 C   0  0  0  0  0  0  0  0  0  0  0  0
    8.8860    6.9729  -10.5114 N   0  0  0  0  0  0  0  0  0  0  0  0
    9.9573    7.9437  -10.2014 C   0  0  0  0  0  0  0  0  0  0  0  0
   12.3205    9.7914   -6.6036 H   0  0  0  0  0  0  0  0  0  0  0  0
   11.5715    9.7359   -8.9635 H   0  0  0  0  0  0  0  0  0  0  0  0
   10.0513    6.2074   -5.8037 H   0  0  0  0  0  0  0  0  0  0  0  0
    9.2958    4.8935   -7.8467 H   0  0  0  0  0  0  0  0  0  0  0  0
    8.0233    6.0824   -7.9825 H   0  0  0  0  0  0  0  0  0  0  0  0
   10.0079    5.2343  -10.1561 H   0  0  0  0  0  0  0  0  0  0  0  0
    8.2690    4.9866  -10.1601 H   0  0  0  0  0  0  0  0  0  0  0  0
    8.8502    6.8316  -11.5094 H   0  0  0  0  0  0  0  0  0  0  0  0
    9.6264    8.9402  -10.4958 H   0  0  0  0  0  0  0  0  0  0  0  0
   10.8322    7.7020  -10.8054 H   0  0  0  0  0  0  0  0  0  0  0  0
    7.9675    7.3614  -10.2468 H   0  0  0  0  0  0  0  0  0  0  0  0
  2  1  3  0
  3  2  1  0
  4  3  1  0
  5  4  2  0
  6  5  1  0
  7  6  2  0
  8  3  2  0
  8  7  1  0
  9  7  1  0
 10  9  1  0
 11 10  1  0
 12  6  1  0
 12 11  1  0
 13  4  1  0
 14  5  1  0
 15  8  1  0
 16  9  1  0
 17  9  1  0
 18 10  1  0
 19 10  1  0
 20 11  1  0
 21 12  1  0
 22 12  1  0
 23 11  1  0
M  CHG  1  11   1
M  END
>  <b_m_subgroup_collapsed>  (1069) 
0

>  <r_i_docking_score>  (1069) 
-6.7982064316631901

>  <s_m_subgroup_title>  (1069) 
glide-dock_SP_D22_pv

>  <s_m_subgroupid>  (1069) 
glide-dock_SP_D22_pv

>  <Molecule ChEMBL ID>  (1069) 
CHEMBL4076796

>  <Standard Type>  (1069) 
Ki

>  <Standard Value>  (1069) 
53800.0

>  <label>  (1069) 
0

$$$$
CHEMBL5722971
     RDKit          3D

 41 43  0  0  1  0  0  0  0  0999 V2000
   10.1389    2.9816  -14.4033 C   0  0  0  0  0  0  0  0  0  0  0  0
    9.1920    3.7495  -13.5042 C   0  0  0  0  0  0  0  0  0  0  0  0
    9.5806    4.4872  -12.5144 N   0  0  0  0  0  0  0  0  0  0  0  0
    8.6047    5.1392  -11.7439 C   0  0  0  0  0  0  0  0  0  0  0  0
    9.0886    6.0197  -10.6104 C   0  0  0  0  0  0  0  0  0  0  0  0
    9.0493    5.2945   -9.2493 C   0  0  0  0  0  0  0  0  0  0  0  0
    9.2381    6.1956   -8.1164 N   0  0  0  0  0  0  0  0  0  0  0  0
   10.5039    6.9036   -8.2196 C   0  0  0  0  0  0  0  0  0  0  0  0
   10.8421    7.6570   -6.9552 C   0  0  0  0  0  0  0  0  0  0  0  0
   10.8775    9.0022   -6.8944 C   0  0  0  0  0  0  0  0  0  0  0  0
   11.2808    9.6946   -5.6537 C   0  0  0  0  0  0  0  0  0  0  0  0
   11.2851   10.9205   -5.5836 O   0  0  0  0  0  0  0  0  0  0  0  0
   11.6798    8.8220   -4.5108 C   0  0  0  0  0  0  0  0  0  0  0  0
   12.0831    9.3716   -3.2753 C   0  0  0  0  0  0  0  0  0  0  0  0
   12.4858    8.5170   -2.2341 C   0  0  0  0  0  0  0  0  0  0  0  0
   12.9052    9.0276   -1.0628 F   0  0  0  0  0  0  0  0  0  0  0  0
   12.4853    7.1227   -2.4100 C   0  0  0  0  0  0  0  0  0  0  0  0
   12.0626    6.5729   -3.6268 C   0  0  0  0  0  0  0  0  0  0  0  0
   11.6475    7.4137   -4.6710 C   0  0  0  0  0  0  0  0  0  0  0  0
   11.2075    6.8672   -5.8794 N   0  0  0  0  0  0  0  0  0  0  0  0
    7.2865    5.0193  -12.0353 C   0  0  0  0  0  0  0  0  0  0  0  0
    6.8445    4.1726  -13.1432 C   0  0  0  0  0  0  0  0  0  0  0  0
    5.6674    3.9937  -13.4468 O   0  0  0  0  0  0  0  0  0  0  0  0
    7.8447    3.5843  -13.8371 N   0  0  0  0  0  0  0  0  0  0  0  0
   10.7012    2.2522  -13.8209 H   0  0  0  0  0  0  0  0  0  0  0  0
    9.6071    2.4497  -15.1935 H   0  0  0  0  0  0  0  0  0  0  0  0
   10.8467    3.6677  -14.8694 H   0  0  0  0  0  0  0  0  0  0  0  0
    8.4863    6.9270  -10.5790 H   0  0  0  0  0  0  0  0  0  0  0  0
   10.1034    6.3419  -10.8445 H   0  0  0  0  0  0  0  0  0  0  0  0
    9.8038    4.5077   -9.2240 H   0  0  0  0  0  0  0  0  0  0  0  0
    8.0862    4.8024   -9.1227 H   0  0  0  0  0  0  0  0  0  0  0  0
    8.4584    6.8486   -8.0814 H   0  0  0  0  0  0  0  0  0  0  0  0
   10.4937    7.5993   -9.0576 H   0  0  0  0  0  0  0  0  0  0  0  0
   11.2856    6.1730   -8.4140 H   0  0  0  0  0  0  0  0  0  0  0  0
   10.6213    9.6029   -7.7536 H   0  0  0  0  0  0  0  0  0  0  0  0
   12.0866   10.4381   -3.1077 H   0  0  0  0  0  0  0  0  0  0  0  0
   12.8171    6.4735   -1.6149 H   0  0  0  0  0  0  0  0  0  0  0  0
   12.0858    5.5086   -3.7642 H   0  0  0  0  0  0  0  0  0  0  0  0
   11.1268    5.8633   -5.9637 H   0  0  0  0  0  0  0  0  0  0  0  0
    6.5510    5.5480  -11.4457 H   0  0  0  0  0  0  0  0  0  0  0  0
    7.5936    2.9828  -14.6068 H   0  0  0  0  0  0  0  0  0  0  0  0
  2  1  1  0
  3  2  2  0
  4  3  1  0
  5  4  1  0
  6  5  1  0
  7  6  1  0
  8  7  1  0
  9  8  1  0
 10  9  2  0
 11 10  1  0
 12 11  2  0
 13 11  1  0
 14 13  2  0
 15 14  1  0
 16 15  1  0
 17 15  2  0
 18 17  1  0
 19 13  1  0
 19 18  2  0
 20  9  1  0
 20 19  1  0
 21  4  2  0
 22 21  1  0
 23 22  2  0
 24  2  1  0
 24 22  1  0
 25  1  1  0
 26  1  1  0
 27  1  1  0
 28  5  1  0
 29  5  1  0
 30  6  1  0
 31  6  1  0
 32  7  1  0
 33  8  1  0
 34  8  1  0
 35 10  1  0
 36 14  1  0
 37 17  1  0
 38 18  1  0
 39 20  1  0
 40 21  1  0
 41 24  1  0
M  END
>  <b_m_subgroup_collapsed>  (1070) 
0

>  <r_i_docking_score>  (1070) 
-6.7932634907391396

>  <s_m_subgroup_title>  (1070) 
glide-dock_SP_D22_pv

>  <s_m_subgroupid>  (1070) 
glide-dock_SP_D22_pv

>  <Molecule ChEMBL ID>  (1070) 
CHEMBL5722971

>  <Standard Type>  (1070) 
Ki

>  <Standard Value>  (1070) 
10000.0

>  <label>  (1070) 
0

$$$$
CHEMBL3792751
     RDKit          3D

 45 48  0  0  1  0  0  0  0  0999 V2000
   12.5300    8.2120   -1.4304 F   0  0  0  0  0  0  0  0  0  0  0  0
   12.1155    8.1015   -2.7076 C   0  0  0  0  0  0  0  0  0  0  0  0
   11.6989    6.8582   -3.2149 C   0  0  0  0  0  0  0  0  0  0  0  0
   11.2860    6.7441   -4.5573 C   0  0  0  0  0  0  0  0  0  0  0  0
   11.2865    7.8633   -5.4221 C   0  0  0  0  0  0  0  0  0  0  0  0
   10.9523    8.0710   -6.8044 C   0  0  0  0  0  0  0  0  0  0  0  0
   10.3857    7.0275   -7.7298 C   0  0  0  0  0  0  0  0  0  0  0  0
   10.3312    7.2245   -9.1790 N   0  0  0  0  0  0  0  0  0  0  0  0
    9.4202    8.2961   -9.5622 C   0  0  0  0  0  0  0  0  0  0  0  0
    9.3534    8.4797  -11.0881 C   0  0  0  0  0  0  0  0  0  0  0  0
    9.0246    7.2594  -11.7473 O   0  0  0  0  0  0  0  0  0  0  0  0
    9.8687    6.1724  -11.3867 C   0  0  2  0  0  0  0  0  0  0  0  0
    9.3715    4.9082  -12.1108 C   0  0  0  0  0  0  0  0  0  0  0  0
   10.1817    4.6825  -13.2607 O   0  0  0  0  0  0  0  0  0  0  0  0
    9.9231    3.5636  -14.0225 C   0  0  0  0  0  0  0  0  0  0  0  0
   10.9326    3.0840  -14.8782 C   0  0  0  0  0  0  0  0  0  0  0  0
   10.6843    1.9217  -15.6300 C   0  0  0  0  0  0  0  0  0  0  0  0
    9.4301    1.2939  -15.5102 C   0  0  0  0  0  0  0  0  0  0  0  0
    8.4695    1.8620  -14.6489 C   0  0  0  0  0  0  0  0  0  0  0  0
    6.9203    1.1109  -14.5177 Cl  0  0  0  0  0  0  0  0  0  0  0  0
    8.7090    2.9720  -13.9216 N   0  0  0  0  0  0  0  0  0  0  0  0
    9.8659    6.0138   -9.8517 C   0  0  0  0  0  0  0  0  0  0  0  0
   11.2979    9.3702   -7.0821 C   0  0  0  0  0  0  0  0  0  0  0  0
   11.7151    9.9975   -5.9234 N   0  0  0  0  0  0  0  0  0  0  0  0
   11.7377    9.1034   -4.8770 C   0  0  0  0  0  0  0  0  0  0  0  0
   12.1290    9.2308   -3.5346 C   0  0  0  0  0  0  0  0  0  0  0  0
   11.6948    5.9906   -2.5720 H   0  0  0  0  0  0  0  0  0  0  0  0
   10.9671    5.7807   -4.9286 H   0  0  0  0  0  0  0  0  0  0  0  0
    9.3790    6.7899   -7.3828 H   0  0  0  0  0  0  0  0  0  0  0  0
   10.9522    6.1111   -7.5482 H   0  0  0  0  0  0  0  0  0  0  0  0
    9.6979    9.2445   -9.1183 H   0  0  0  0  0  0  0  0  0  0  0  0
    8.4390    8.0777   -9.1610 H   0  0  0  0  0  0  0  0  0  0  0  0
   10.3198    8.8370  -11.4475 H   0  0  0  0  0  0  0  0  0  0  0  0
    8.6133    9.2358  -11.3480 H   0  0  0  0  0  0  0  0  0  0  0  0
   10.8854    6.3975  -11.7127 H   0  0  0  0  0  0  0  0  0  0  0  0
    8.3144    5.0114  -12.3626 H   0  0  0  0  0  0  0  0  0  0  0  0
    9.4682    4.0408  -11.4558 H   0  0  0  0  0  0  0  0  0  0  0  0
   11.8852    3.5880  -14.9396 H   0  0  0  0  0  0  0  0  0  0  0  0
   11.4441    1.5183  -16.2823 H   0  0  0  0  0  0  0  0  0  0  0  0
    9.2069    0.3976  -16.0710 H   0  0  0  0  0  0  0  0  0  0  0  0
    8.8535    5.7633   -9.5222 H   0  0  0  0  0  0  0  0  0  0  0  0
   10.4853    5.1632   -9.5673 H   0  0  0  0  0  0  0  0  0  0  0  0
   11.2856    9.9091   -8.0132 H   0  0  0  0  0  0  0  0  0  0  0  0
   12.0180   10.9595   -5.8944 H   0  0  0  0  0  0  0  0  0  0  0  0
   12.4695   10.1727   -3.1398 H   0  0  0  0  0  0  0  0  0  0  0  0
  2  1  1  0
  3  2  2  0
  4  3  1  0
  5  4  2  0
  6  5  1  0
  7  6  1  0
  8  7  1  0
  9  8  1  0
 10  9  1  0
 11 10  1  0
 12 11  1  0
 13 12  1  0
 14 13  1  0
 15 14  1  0
 16 15  2  0
 17 16  1  0
 18 17  2  0
 19 18  1  0
 20 19  1  0
 21 15  1  0
 21 19  2  0
 22  8  1  0
 22 12  1  0
 23  6  2  0
 24 23  1  0
 25  5  1  0
 25 24  1  0
 26  2  1  0
 26 25  2  0
 27  3  1  0
 28  4  1  0
 29  7  1  0
 30  7  1  0
 31  9  1  0
 32  9  1  0
 33 10  1  0
 34 10  1  0
 12 35  1  6
 36 13  1  0
 37 13  1  0
 38 16  1  0
 39 17  1  0
 40 18  1  0
 41 22  1  0
 42 22  1  0
 43 23  1  0
 44 24  1  0
 45 26  1  0
M  END
>  <b_m_subgroup_collapsed>  (1071) 
0

>  <r_i_docking_score>  (1071) 
-6.7909767191256698

>  <s_m_subgroup_title>  (1071) 
glide-dock_SP_D22_pv

>  <s_m_subgroupid>  (1071) 
glide-dock_SP_D22_pv

>  <Molecule ChEMBL ID>  (1071) 
CHEMBL3792751

>  <Standard Type>  (1071) 
Ki

>  <Standard Value>  (1071) 
10000.0

>  <label>  (1071) 
0

$$$$
CHEMBL34291
     RDKit          3D

 45 47  0  0  1  0  0  0  0  0999 V2000
   12.4575    6.6791  -15.7138 C   0  0  0  0  0  0  0  0  0  0  0  0
   11.5016    6.0983  -14.8368 O   0  0  0  0  0  0  0  0  0  0  0  0
   11.1825    4.7605  -14.9804 C   0  0  0  0  0  0  0  0  0  0  0  0
   11.8112    3.9256  -15.9412 C   0  0  0  0  0  0  0  0  0  0  0  0
   11.4538    2.5692  -16.0773 C   0  0  0  0  0  0  0  0  0  0  0  0
   12.0799    1.7828  -17.0479 N   0  0  0  0  0  0  0  0  0  0  0  0
   10.4755    2.0174  -15.2269 C   0  0  0  0  0  0  0  0  0  0  0  0
   10.0435    0.3480  -15.3389 Cl  0  0  0  0  0  0  0  0  0  0  0  0
    9.8413    2.8341  -14.2743 C   0  0  0  0  0  0  0  0  0  0  0  0
   10.1775    4.2016  -14.1405 C   0  0  0  0  0  0  0  0  0  0  0  0
    9.4001    5.0306  -13.1496 C   0  0  0  0  0  0  0  0  0  0  0  0
    8.2091    4.7956  -12.9417 O   0  0  0  0  0  0  0  0  0  0  0  0
   10.0860    5.9808  -12.4933 N   0  0  0  0  0  0  0  0  0  0  0  0
    9.5382    6.9286  -11.5264 C   0  0  0  0  0  0  0  0  0  0  0  0
    9.6185    6.4040  -10.0801 C   0  0  2  0  0  0  0  0  0  0  0  0
    8.7090    5.2062   -9.7998 C   0  0  0  0  0  0  0  0  0  0  0  0
    8.5535    5.2512   -8.2892 C   0  0  0  0  0  0  0  0  0  0  0  0
    8.4866    6.6847   -7.9510 N   0  0  1  0  0  0  0  0  0  0  0  0
    9.0928    7.0461   -6.6552 C   0  0  0  0  0  0  0  0  0  0  0  0
   10.5063    7.5239   -6.9941 C   0  0  0  0  0  0  0  0  0  0  0  0
   10.3253    8.2117   -8.3476 C   0  0  0  0  0  0  0  0  0  0  0  0
    9.1825    7.4387   -9.0231 C   0  0  1  0  0  0  0  0  0  0  0  0
   12.5559    7.7406  -15.4798 H   0  0  0  0  0  0  0  0  0  0  0  0
   13.4394    6.2250  -15.5924 H   0  0  0  0  0  0  0  0  0  0  0  0
   12.1436    6.6010  -16.7554 H   0  0  0  0  0  0  0  0  0  0  0  0
   12.5748    4.3134  -16.5995 H   0  0  0  0  0  0  0  0  0  0  0  0
   11.9740    0.7801  -16.9940 H   0  0  0  0  0  0  0  0  0  0  0  0
   12.9537    2.0948  -17.4470 H   0  0  0  0  0  0  0  0  0  0  0  0
    9.0866    2.3988  -13.6327 H   0  0  0  0  0  0  0  0  0  0  0  0
   11.0454    6.1204  -12.7812 H   0  0  0  0  0  0  0  0  0  0  0  0
   10.1098    7.8550  -11.6130 H   0  0  0  0  0  0  0  0  0  0  0  0
    8.5086    7.1813  -11.7901 H   0  0  0  0  0  0  0  0  0  0  0  0
   10.6426    6.1038   -9.8609 H   0  0  0  0  0  0  0  0  0  0  0  0
    7.7358    5.3425  -10.2741 H   0  0  0  0  0  0  0  0  0  0  0  0
    9.1314    4.2633  -10.1498 H   0  0  0  0  0  0  0  0  0  0  0  0
    7.6861    4.7065   -7.9223 H   0  0  0  0  0  0  0  0  0  0  0  0
    9.4454    4.8098   -7.8472 H   0  0  0  0  0  0  0  0  0  0  0  0
    8.5094    7.8720   -6.2473 H   0  0  0  0  0  0  0  0  0  0  0  0
    9.0771    6.2293   -5.9326 H   0  0  0  0  0  0  0  0  0  0  0  0
   10.9229    8.1850   -6.2354 H   0  0  0  0  0  0  0  0  0  0  0  0
   11.1717    6.6671   -7.0940 H   0  0  0  0  0  0  0  0  0  0  0  0
   10.0180    9.2450   -8.1879 H   0  0  0  0  0  0  0  0  0  0  0  0
   11.2416    8.2313   -8.9400 H   0  0  0  0  0  0  0  0  0  0  0  0
    8.4865    8.1533   -9.4584 H   0  0  0  0  0  0  0  0  0  0  0  0
    7.4992    6.9722   -7.9581 H   0  0  0  0  0  0  0  0  0  0  0  0
  2  1  1  0
  3  2  1  0
  4  3  1  0
  5  4  2  0
  6  5  1  0
  7  5  1  0
  8  7  1  0
  9  7  2  0
 10  3  2  0
 10  9  1  0
 11 10  1  0
 12 11  2  0
 13 11  1  0
 14 13  1  0
 15 14  1  0
 16 15  1  0
 17 16  1  0
 18 17  1  0
 19 18  1  0
 20 19  1  0
 21 20  1  0
 22 15  1  0
 22 18  1  0
 22 21  1  0
 23  1  1  0
 24  1  1  0
 25  1  1  0
 26  4  1  0
 27  6  1  0
 28  6  1  0
 29  9  1  0
 30 13  1  0
 31 14  1  0
 32 14  1  0
 15 33  1  1
 34 16  1  0
 35 16  1  0
 36 17  1  0
 37 17  1  0
 38 19  1  0
 39 19  1  0
 40 20  1  0
 41 20  1  0
 42 21  1  0
 43 21  1  0
 22 44  1  6
 18 45  1  1
M  CHG  1  18   1
M  END
>  <b_m_subgroup_collapsed>  (1072) 
0

>  <r_i_docking_score>  (1072) 
-6.7897143782235503

>  <s_m_subgroup_title>  (1072) 
glide-dock_SP_D22_pv

>  <s_m_subgroupid>  (1072) 
glide-dock_SP_D22_pv

>  <Molecule ChEMBL ID>  (1072) 
CHEMBL34291

>  <Standard Type>  (1072) 
Ki

>  <Standard Value>  (1072) 
10000.0

>  <label>  (1072) 
0

$$$$
CHEMBL194755
     RDKit          3D

 58 60  0  0  1  0  0  0  0  0999 V2000
   11.8003   11.2192   -6.2464 C   0  0  0  0  0  0  0  0  0  0  0  0
   11.0233   10.0582   -6.3474 O   0  0  0  0  0  0  0  0  0  0  0  0
   11.3217    9.0844   -5.4284 C   0  0  0  0  0  0  0  0  0  0  0  0
   11.6436    9.3714   -4.0765 C   0  0  0  0  0  0  0  0  0  0  0  0
   11.9034    8.3308   -3.1661 C   0  0  0  0  0  0  0  0  0  0  0  0
   11.8174    6.9946   -3.5938 C   0  0  0  0  0  0  0  0  0  0  0  0
   11.5031    6.7137   -4.9361 C   0  0  0  0  0  0  0  0  0  0  0  0
   11.2816    7.7453   -5.8675 C   0  0  0  0  0  0  0  0  0  0  0  0
   11.0716    7.4371   -7.2249 N   0  0  0  0  0  0  0  0  0  0  0  0
    9.9974    6.5328   -7.6145 C   0  0  0  0  0  0  0  0  0  0  0  0
    9.1365    7.1652   -8.7305 C   0  0  0  0  0  0  0  0  0  0  0  0
    9.9959    7.6837   -9.8312 N   0  0  0  0  0  0  0  0  0  0  0  0
    9.2553    8.1414  -11.0329 C   0  0  0  0  0  0  0  0  0  0  0  0
    8.6388    6.9853  -11.8378 C   0  0  0  0  0  0  0  0  0  0  0  0
    9.6359    5.8849  -12.2457 C   0  0  0  0  0  0  0  0  0  0  0  0
    8.9289    4.7867  -13.0417 C   0  0  0  0  0  0  0  0  0  0  0  0
    9.8386    3.6971  -13.4037 N   0  0  0  0  0  0  0  0  0  0  0  0
    9.5602    2.7919  -14.8527 S   0  0  0  0  0  0  0  0  0  0  0  0
    9.2861    3.7498  -15.9340 O   0  0  0  0  0  0  0  0  0  0  0  0
   10.6642    1.8274  -14.9718 O   0  0  0  0  0  0  0  0  0  0  0  0
    8.0509    1.8857  -14.4949 C   0  0  0  0  0  0  0  0  0  0  0  0
    8.0581    0.4770  -14.5121 C   0  0  0  0  0  0  0  0  0  0  0  0
    6.8886   -0.2313  -14.1660 C   0  0  0  0  0  0  0  0  0  0  0  0
    5.7264    0.4578  -13.7770 C   0  0  0  0  0  0  0  0  0  0  0  0
    4.6066   -0.2262  -13.4468 F   0  0  0  0  0  0  0  0  0  0  0  0
    5.7281    1.8623  -13.7459 C   0  0  0  0  0  0  0  0  0  0  0  0
    6.8717    2.5773  -14.1510 C   0  0  0  0  0  0  0  0  0  0  0  0
   10.9608    8.6994   -9.3409 C   0  0  0  0  0  0  0  0  0  0  0  0
   11.8685    8.0963   -8.2595 C   0  0  0  0  0  0  0  0  0  0  0  0
   11.6860   11.8687   -7.1051 H   0  0  0  0  0  0  0  0  0  0  0  0
   11.4339   11.7715   -5.3995 H   0  0  0  0  0  0  0  0  0  0  0  0
   12.8557   10.9730   -6.1342 H   0  0  0  0  0  0  0  0  0  0  0  0
   11.6811   10.3854   -3.7105 H   0  0  0  0  0  0  0  0  0  0  0  0
   12.1379    8.5605   -2.1376 H   0  0  0  0  0  0  0  0  0  0  0  0
   11.9992    6.1865   -2.9006 H   0  0  0  0  0  0  0  0  0  0  0  0
   11.4758    5.6969   -5.2720 H   0  0  0  0  0  0  0  0  0  0  0  0
   10.4400    5.5982   -7.9632 H   0  0  0  0  0  0  0  0  0  0  0  0
    9.3677    6.2881   -6.7564 H   0  0  0  0  0  0  0  0  0  0  0  0
    8.4318    6.4198   -9.1005 H   0  0  0  0  0  0  0  0  0  0  0  0
    8.5371    7.9820   -8.3240 H   0  0  0  0  0  0  0  0  0  0  0  0
    8.4866    8.8591  -10.7446 H   0  0  0  0  0  0  0  0  0  0  0  0
    9.9386    8.6726  -11.6950 H   0  0  0  0  0  0  0  0  0  0  0  0
    7.8183    6.5434  -11.2786 H   0  0  0  0  0  0  0  0  0  0  0  0
    8.1737    7.4002  -12.7316 H   0  0  0  0  0  0  0  0  0  0  0  0
   10.4479    6.3087  -12.8362 H   0  0  0  0  0  0  0  0  0  0  0  0
   10.0855    5.4396  -11.3578 H   0  0  0  0  0  0  0  0  0  0  0  0
    8.1102    4.3771  -12.4474 H   0  0  0  0  0  0  0  0  0  0  0  0
    8.4987    5.2191  -13.9442 H   0  0  0  0  0  0  0  0  0  0  0  0
   10.0811    3.0914  -12.6178 H   0  0  0  0  0  0  0  0  0  0  0  0
    8.9503   -0.0652  -14.7854 H   0  0  0  0  0  0  0  0  0  0  0  0
    6.8857   -1.3115  -14.1907 H   0  0  0  0  0  0  0  0  0  0  0  0
    4.8365    2.3913  -13.4455 H   0  0  0  0  0  0  0  0  0  0  0  0
    6.8350    3.6544  -14.1716 H   0  0  0  0  0  0  0  0  0  0  0  0
   11.5818    9.0693  -10.1585 H   0  0  0  0  0  0  0  0  0  0  0  0
   10.4125    9.5548   -8.9468 H   0  0  0  0  0  0  0  0  0  0  0  0
   12.5251    8.8598   -7.8417 H   0  0  0  0  0  0  0  0  0  0  0  0
   12.5328    7.3724   -8.7195 H   0  0  0  0  0  0  0  0  0  0  0  0
   10.5545    6.9015  -10.1352 H   0  0  0  0  0  0  0  0  0  0  0  0
  2  1  1  0
  3  2  1  0
  4  3  2  0
  5  4  1  0
  6  5  2  0
  7  6  1  0
  8  3  1  0
  8  7  2  0
  9  8  1  0
 10  9  1  0
 11 10  1  0
 12 11  1  0
 13 12  1  0
 14 13  1  0
 15 14  1  0
 16 15  1  0
 17 16  1  0
 18 17  1  0
 19 18  2  0
 20 18  2  0
 21 18  1  0
 22 21  1  0
 23 22  2  0
 24 23  1  0
 25 24  1  0
 26 24  2  0
 27 21  2  0
 27 26  1  0
 28 12  1  0
 29  9  1  0
 29 28  1  0
 30  1  1  0
 31  1  1  0
 32  1  1  0
 33  4  1  0
 34  5  1  0
 35  6  1  0
 36  7  1  0
 37 10  1  0
 38 10  1  0
 39 11  1  0
 40 11  1  0
 41 13  1  0
 42 13  1  0
 43 14  1  0
 44 14  1  0
 45 15  1  0
 46 15  1  0
 47 16  1  0
 48 16  1  0
 49 17  1  0
 50 22  1  0
 51 23  1  0
 52 26  1  0
 53 27  1  0
 54 28  1  0
 55 28  1  0
 56 29  1  0
 57 29  1  0
 58 12  1  0
M  CHG  1  12   1
M  END
>  <b_m_subgroup_collapsed>  (1073) 
0

>  <r_i_docking_score>  (1073) 
-6.7879658822340598

>  <s_m_subgroup_title>  (1073) 
glide-dock_SP_D22_pv

>  <s_m_subgroupid>  (1073) 
glide-dock_SP_D22_pv

>  <Molecule ChEMBL ID>  (1073) 
CHEMBL194755

>  <Standard Type>  (1073) 
Ki

>  <Standard Value>  (1073) 
72.0

>  <label>  (1073) 
1

$$$$
CHEMBL5722940
     RDKit          3D

 36 38  0  0  1  0  0  0  0  0999 V2000
   11.6859   10.9697   -6.2424 O   0  0  0  0  0  0  0  0  0  0  0  0
   11.4579    9.7603   -6.2891 C   0  0  0  0  0  0  0  0  0  0  0  0
   11.1294    9.0988   -7.5697 C   0  0  0  0  0  0  0  0  0  0  0  0
   10.8844    7.7739   -7.6433 C   0  0  0  0  0  0  0  0  0  0  0  0
   10.5843    7.0574   -8.9485 C   0  0  0  0  0  0  0  0  0  0  0  0
    9.6421    7.8014   -9.7732 N   0  0  0  0  0  0  0  0  0  0  0  0
    9.5607    7.2665  -11.1266 C   0  0  0  0  0  0  0  0  0  0  0  0
    8.7004    5.9932  -11.2177 C   0  0  0  0  0  0  0  0  0  0  0  0
    8.5790    5.4472  -12.9425 S   0  0  0  0  0  0  0  0  0  0  0  0
    7.2797    4.2724  -13.0424 C   0  0  0  0  0  0  0  0  0  0  0  0
    6.1111    4.2529  -12.2475 C   0  0  0  0  0  0  0  0  0  0  0  0
    5.3554    3.2572  -12.6410 N   0  0  0  0  0  0  0  0  0  0  0  0
    6.0863    2.6977  -13.6416 N   0  0  0  0  0  0  0  0  0  0  0  0
    7.2660    3.3072  -13.9212 N   0  0  0  0  0  0  0  0  0  0  0  0
   10.9169    6.9731   -6.5142 N   0  0  0  0  0  0  0  0  0  0  0  0
   11.2859    7.4731   -5.2607 C   0  0  0  0  0  0  0  0  0  0  0  0
   11.4575    6.5918   -4.1771 C   0  0  0  0  0  0  0  0  0  0  0  0
   11.8678    7.0751   -2.9213 C   0  0  0  0  0  0  0  0  0  0  0  0
   12.0866    8.4516   -2.7404 C   0  0  0  0  0  0  0  0  0  0  0  0
   12.4855    8.9193   -1.5338 F   0  0  0  0  0  0  0  0  0  0  0  0
   11.9105    9.3421   -3.8176 C   0  0  0  0  0  0  0  0  0  0  0  0
   11.5411    8.8584   -5.0969 C   0  0  0  0  0  0  0  0  0  0  0  0
   11.1029    9.7098   -8.4607 H   0  0  0  0  0  0  0  0  0  0  0  0
   10.2107    6.0524   -8.7560 H   0  0  0  0  0  0  0  0  0  0  0  0
   11.5282    6.9673   -9.4861 H   0  0  0  0  0  0  0  0  0  0  0  0
    8.7093    7.7832   -9.3665 H   0  0  0  0  0  0  0  0  0  0  0  0
   10.5597    7.0925  -11.5290 H   0  0  0  0  0  0  0  0  0  0  0  0
    9.1050    8.0377  -11.7500 H   0  0  0  0  0  0  0  0  0  0  0  0
    7.7001    6.1721  -10.8258 H   0  0  0  0  0  0  0  0  0  0  0  0
    9.1346    5.1821  -10.6315 H   0  0  0  0  0  0  0  0  0  0  0  0
    5.8050    4.9128  -11.4472 H   0  0  0  0  0  0  0  0  0  0  0  0
   10.7117    5.9875   -6.5961 H   0  0  0  0  0  0  0  0  0  0  0  0
   11.2834    5.5419   -4.3154 H   0  0  0  0  0  0  0  0  0  0  0  0
   12.0024    6.3869   -2.0999 H   0  0  0  0  0  0  0  0  0  0  0  0
   12.0790   10.3901   -3.6451 H   0  0  0  0  0  0  0  0  0  0  0  0
    5.7633    1.8900  -14.1576 H   0  0  0  0  0  0  0  0  0  0  0  0
  2  1  2  0
  3  2  1  0
  4  3  2  0
  5  4  1  0
  6  5  1  0
  7  6  1  0
  8  7  1  0
  9  8  1  0
 10  9  1  0
 11 10  1  0
 12 11  2  0
 13 12  1  0
 14 10  2  0
 14 13  1  0
 15  4  1  0
 16 15  1  0
 17 16  2  0
 18 17  1  0
 19 18  2  0
 20 19  1  0
 21 19  1  0
 22  2  1  0
 22 16  1  0
 22 21  2  0
 23  3  1  0
 24  5  1  0
 25  5  1  0
 26  6  1  0
 27  7  1  0
 28  7  1  0
 29  8  1  0
 30  8  1  0
 31 11  1  0
 32 15  1  0
 33 17  1  0
 34 18  1  0
 35 21  1  0
 36 13  1  0
M  END
>  <b_m_subgroup_collapsed>  (1074) 
0

>  <r_i_docking_score>  (1074) 
-6.78695765660866

>  <s_m_subgroup_title>  (1074) 
glide-dock_SP_D22_pv

>  <s_m_subgroupid>  (1074) 
glide-dock_SP_D22_pv

>  <Molecule ChEMBL ID>  (1074) 
CHEMBL5722940

>  <Standard Type>  (1074) 
Ki

>  <Standard Value>  (1074) 
10000.0

>  <label>  (1074) 
0

$$$$
CHEMBL456675
     RDKit          3D

 64 67  0  0  1  0  0  0  0  0999 V2000
   13.2208   -0.8198  -19.6461 C   0  0  0  0  0  0  0  0  0  0  0  0
   12.1157   -0.7475  -18.7552 O   0  0  0  0  0  0  0  0  0  0  0  0
   11.9332    0.4243  -18.0532 C   0  0  0  0  0  0  0  0  0  0  0  0
   12.6758    1.6103  -18.2796 C   0  0  0  0  0  0  0  0  0  0  0  0
   12.4489    2.7552  -17.4927 C   0  0  0  0  0  0  0  0  0  0  0  0
   11.4793    2.7304  -16.4743 C   0  0  0  0  0  0  0  0  0  0  0  0
   10.7325    1.5588  -16.2419 C   0  0  0  0  0  0  0  0  0  0  0  0
    9.6879    1.5360  -15.1447 C   0  0  0  0  0  0  0  0  0  0  0  0
    8.2984    1.8843  -15.6950 C   0  0  0  0  0  0  0  0  0  0  0  0
    7.2475    1.9753  -14.6046 C   0  0  0  0  0  0  0  0  0  0  0  0
    6.4159    0.8647  -14.3580 C   0  0  0  0  0  0  0  0  0  0  0  0
    5.4135    0.9394  -13.3759 C   0  0  0  0  0  0  0  0  0  0  0  0
    5.2531    2.1204  -12.6311 C   0  0  0  0  0  0  0  0  0  0  0  0
    6.0848    3.2309  -12.8648 C   0  0  0  0  0  0  0  0  0  0  0  0
    7.1036    3.1642  -13.8483 C   0  0  0  0  0  0  0  0  0  0  0  0
    7.9776    4.1928  -14.1300 O   0  0  0  0  0  0  0  0  0  0  0  0
    7.9409    5.3910  -13.3680 C   0  0  0  0  0  0  0  0  0  0  0  0
    8.8007    5.2726  -12.1007 C   0  0  0  0  0  0  0  0  0  0  0  0
    9.0368    6.6660  -11.5005 C   0  0  0  0  0  0  0  0  0  0  0  0
    9.9544    6.6487  -10.3627 N   0  0  0  0  0  0  0  0  0  0  0  0
   10.4631    8.0116  -10.1827 C   0  0  0  0  0  0  0  0  0  0  0  0
   11.4654    8.0443   -9.0228 C   0  0  0  0  0  0  0  0  0  0  0  0
   10.8179    7.6005   -7.7930 N   0  0  0  0  0  0  0  0  0  0  0  0
   11.0910    8.2095   -6.5801 C   0  0  0  0  0  0  0  0  0  0  0  0
   11.2849    7.4182   -5.5215 N   0  0  0  0  0  0  0  0  0  0  0  0
   11.6386    8.0137   -4.3652 C   0  0  0  0  0  0  0  0  0  0  0  0
   11.7214    9.4140   -4.2512 C   0  0  0  0  0  0  0  0  0  0  0  0
   11.4680   10.1497   -5.4268 C   0  0  0  0  0  0  0  0  0  0  0  0
   11.1743    9.5399   -6.5880 N   0  0  0  0  0  0  0  0  0  0  0  0
   10.1817    6.2922   -7.9133 C   0  0  0  0  0  0  0  0  0  0  0  0
    9.2363    6.2711   -9.1357 C   0  0  0  0  0  0  0  0  0  0  0  0
   10.9515    0.4181  -17.0415 C   0  0  0  0  0  0  0  0  0  0  0  0
   13.2927   -1.8274  -20.0547 H   0  0  0  0  0  0  0  0  0  0  0  0
   13.1001   -0.1294  -20.4846 H   0  0  0  0  0  0  0  0  0  0  0  0
   14.1619   -0.6061  -19.1331 H   0  0  0  0  0  0  0  0  0  0  0  0
   13.4340    1.6636  -19.0468 H   0  0  0  0  0  0  0  0  0  0  0  0
   13.0227    3.6531  -17.6702 H   0  0  0  0  0  0  0  0  0  0  0  0
   11.3129    3.6131  -15.8736 H   0  0  0  0  0  0  0  0  0  0  0  0
    9.9721    2.2440  -14.3656 H   0  0  0  0  0  0  0  0  0  0  0  0
    9.6748    0.5519  -14.6727 H   0  0  0  0  0  0  0  0  0  0  0  0
    7.9939    1.1372  -16.4318 H   0  0  0  0  0  0  0  0  0  0  0  0
    8.3410    2.8335  -16.2314 H   0  0  0  0  0  0  0  0  0  0  0  0
    6.5319   -0.0442  -14.9298 H   0  0  0  0  0  0  0  0  0  0  0  0
    4.7671    0.0926  -13.1977 H   0  0  0  0  0  0  0  0  0  0  0  0
    4.4878    2.1721  -11.8745 H   0  0  0  0  0  0  0  0  0  0  0  0
    5.9293    4.1045  -12.2524 H   0  0  0  0  0  0  0  0  0  0  0  0
    6.9321    5.7302  -13.1350 H   0  0  0  0  0  0  0  0  0  0  0  0
    8.3570    6.1713  -14.0057 H   0  0  0  0  0  0  0  0  0  0  0  0
    9.7599    4.8208  -12.3566 H   0  0  0  0  0  0  0  0  0  0  0  0
    8.3195    4.6103  -11.3804 H   0  0  0  0  0  0  0  0  0  0  0  0
    8.0884    7.1293  -11.2331 H   0  0  0  0  0  0  0  0  0  0  0  0
    9.4674    7.2902  -12.2851 H   0  0  0  0  0  0  0  0  0  0  0  0
    9.6410    8.7085   -9.9972 H   0  0  0  0  0  0  0  0  0  0  0  0
   10.9691    8.3435  -11.0900 H   0  0  0  0  0  0  0  0  0  0  0  0
   11.8797    9.0473   -8.9286 H   0  0  0  0  0  0  0  0  0  0  0  0
   12.3046    7.3807   -9.2376 H   0  0  0  0  0  0  0  0  0  0  0  0
   11.8129    7.3725   -3.5161 H   0  0  0  0  0  0  0  0  0  0  0  0
   11.9711    9.8963   -3.3169 H   0  0  0  0  0  0  0  0  0  0  0  0
   11.5079   11.2259   -5.4468 H   0  0  0  0  0  0  0  0  0  0  0  0
   10.9432    5.5181   -8.0031 H   0  0  0  0  0  0  0  0  0  0  0  0
    9.6069    6.0694   -7.0137 H   0  0  0  0  0  0  0  0  0  0  0  0
    8.4084    6.9604   -8.9640 H   0  0  0  0  0  0  0  0  0  0  0  0
    8.8037    5.2759   -9.2430 H   0  0  0  0  0  0  0  0  0  0  0  0
   10.3783   -0.4794  -16.8653 H   0  0  0  0  0  0  0  0  0  0  0  0
  2  1  1  0
  3  2  1  0
  4  3  1  0
  5  4  2  0
  6  5  1  0
  7  6  2  0
  8  7  1  0
  9  8  1  0
 10  9  1  0
 11 10  2  0
 12 11  1  0
 13 12  2  0
 14 13  1  0
 15 10  1  0
 15 14  2  0
 16 15  1  0
 17 16  1  0
 18 17  1  0
 19 18  1  0
 20 19  1  0
 21 20  1  0
 22 21  1  0
 23 22  1  0
 24 23  1  0
 25 24  2  0
 26 25  1  0
 27 26  2  0
 28 27  1  0
 29 24  1  0
 29 28  2  0
 30 23  1  0
 31 20  1  0
 31 30  1  0
 32  3  2  0
 32  7  1  0
 33  1  1  0
 34  1  1  0
 35  1  1  0
 36  4  1  0
 37  5  1  0
 38  6  1  0
 39  8  1  0
 40  8  1  0
 41  9  1  0
 42  9  1  0
 43 11  1  0
 44 12  1  0
 45 13  1  0
 46 14  1  0
 47 17  1  0
 48 17  1  0
 49 18  1  0
 50 18  1  0
 51 19  1  0
 52 19  1  0
 53 21  1  0
 54 21  1  0
 55 22  1  0
 56 22  1  0
 57 26  1  0
 58 27  1  0
 59 28  1  0
 60 30  1  0
 61 30  1  0
 62 31  1  0
 63 31  1  0
 64 32  1  0
M  END
>  <b_m_subgroup_collapsed>  (1075) 
0

>  <r_i_docking_score>  (1075) 
-6.7860171017294997

>  <s_m_subgroup_title>  (1075) 
glide-dock_SP_D22_pv

>  <s_m_subgroupid>  (1075) 
glide-dock_SP_D22_pv

>  <Molecule ChEMBL ID>  (1075) 
CHEMBL456675

>  <Standard Type>  (1075) 
Ki

>  <Standard Value>  (1075) 
20000.0

>  <label>  (1075) 
0

$$$$
CHEMBL201086
     RDKit          3D

 25 26  0  0  1  0  0  0  0  0999 V2000
   10.6248   10.5627   -4.6526 O   0  0  0  0  0  0  0  0  0  0  0  0
   11.2861    9.6725   -4.1278 C   0  0  0  0  0  0  0  0  0  0  0  0
   11.6864    9.7092   -2.8353 O   0  0  0  0  0  0  0  0  0  0  0  0
   12.4524    8.6601   -2.2556 C   0  0  0  0  0  0  0  0  0  0  0  0
   11.8543    7.2900   -2.5967 C   0  0  0  0  0  0  0  0  0  0  0  0
   11.6868    7.1096   -4.1154 C   0  0  0  0  0  0  0  0  0  0  0  0
   11.7459    8.4364   -4.9178 C   0  0  1  0  0  0  0  0  0  0  0  0
   11.1325    8.3574   -6.3181 C   0  0  0  0  0  0  0  0  0  0  0  0
   11.8368    8.8868   -7.4240 C   0  0  0  0  0  0  0  0  0  0  0  0
   11.2742    8.8482   -8.7158 C   0  0  0  0  0  0  0  0  0  0  0  0
   10.0019    8.2804   -8.9158 C   0  0  0  0  0  0  0  0  0  0  0  0
    9.2936    7.7461   -7.8227 C   0  0  0  0  0  0  0  0  0  0  0  0
    9.8577    7.7835   -6.5322 C   0  0  0  0  0  0  0  0  0  0  0  0
   13.4743    8.7361   -2.6061 H   0  0  0  0  0  0  0  0  0  0  0  0
   12.4828    8.8035   -1.1753 H   0  0  0  0  0  0  0  0  0  0  0  0
   12.4688    6.4903   -2.1842 H   0  0  0  0  0  0  0  0  0  0  0  0
   10.8864    7.2046   -2.1061 H   0  0  0  0  0  0  0  0  0  0  0  0
   10.7667    6.5555   -4.2926 H   0  0  0  0  0  0  0  0  0  0  0  0
   12.4835    6.4662   -4.4849 H   0  0  0  0  0  0  0  0  0  0  0  0
   12.8069    8.6427   -5.0484 H   0  0  0  0  0  0  0  0  0  0  0  0
   12.8102    9.3342   -7.2864 H   0  0  0  0  0  0  0  0  0  0  0  0
   11.8195    9.2601   -9.5532 H   0  0  0  0  0  0  0  0  0  0  0  0
    9.5638    8.2536   -9.9020 H   0  0  0  0  0  0  0  0  0  0  0  0
    8.3184    7.3076   -7.9714 H   0  0  0  0  0  0  0  0  0  0  0  0
    9.2902    7.3765   -5.7111 H   0  0  0  0  0  0  0  0  0  0  0  0
  2  1  2  0
  3  2  1  0
  4  3  1  0
  5  4  1  0
  6  5  1  0
  7  2  1  0
  7  6  1  0
  8  7  1  0
  9  8  2  0
 10  9  1  0
 11 10  2  0
 12 11  1  0
 13  8  1  0
 13 12  2  0
 14  4  1  0
 15  4  1  0
 16  5  1  0
 17  5  1  0
 18  6  1  0
 19  6  1  0
  7 20  1  6
 21  9  1  0
 22 10  1  0
 23 11  1  0
 24 12  1  0
 25 13  1  0
M  END
>  <b_m_subgroup_collapsed>  (1076) 
0

>  <r_i_docking_score>  (1076) 
-6.7846054719199396

>  <s_m_subgroup_title>  (1076) 
glide-dock_SP_D22_pv

>  <s_m_subgroupid>  (1076) 
glide-dock_SP_D22_pv

>  <Molecule ChEMBL ID>  (1076) 
CHEMBL201086

>  <Standard Type>  (1076) 
Ki

>  <Standard Value>  (1076) 
10000.0

>  <label>  (1076) 
0

$$$$
CHEMBL102175
     RDKit          3D

 73 78  0  0  1  0  0  0  0  0999 V2000
   10.4697    7.3205   -6.1885 C   0  0  0  0  0  0  0  0  0  0  0  0
   11.1070    7.1271   -7.5702 C   0  0  0  0  0  0  0  0  0  0  0  0
   11.2429    8.4486   -8.3442 C   0  0  0  0  0  0  0  0  0  0  0  0
   11.8302    8.2999   -9.7658 C   0  0  0  0  0  0  0  0  0  0  0  0
   11.0939    7.4033  -10.5965 O   0  0  0  0  0  0  0  0  0  0  0  0
    9.8637    7.7275  -11.0400 C   0  0  0  0  0  0  0  0  0  0  0  0
    9.2860    8.7871  -10.7914 O   0  0  0  0  0  0  0  0  0  0  0  0
    9.2375    6.6465  -11.7970 C   0  0  0  0  0  0  0  0  0  0  0  0
    9.7581    5.5817  -12.4883 C   0  0  0  0  0  0  0  0  0  0  0  0
    8.6373    4.7908  -12.9287 C   0  0  0  0  0  0  0  0  0  0  0  0
    8.4966    3.5738  -13.6323 C   0  0  0  0  0  0  0  0  0  0  0  0
    7.2167    2.9960  -13.8476 C   0  0  0  0  0  0  0  0  0  0  0  0
    6.0587    3.6676  -13.4150 C   0  0  0  0  0  0  0  0  0  0  0  0
    6.1687    4.8937  -12.7374 C   0  0  0  0  0  0  0  0  0  0  0  0
    7.4433    5.4353  -12.4997 C   0  0  0  0  0  0  0  0  0  0  0  0
    7.8579    6.5721  -11.8469 N   0  0  0  0  0  0  0  0  0  0  0  0
    7.0884    1.7629  -14.4483 O   0  0  0  0  0  0  0  0  0  0  0  0
    8.2847    0.9892  -14.4566 C   0  0  0  0  0  0  0  0  0  0  0  0
    9.4412    1.8700  -14.9671 C   0  0  2  0  0  0  0  0  0  0  0  0
   10.7955    1.1318  -15.0549 C   0  0  0  0  0  0  0  0  0  0  0  0
   11.2256    0.7698  -16.4289 N   0  0  1  0  0  0  0  0  0  0  0  0
   10.3625   -0.2414  -17.0891 C   0  0  0  0  0  0  0  0  0  0  0  0
   11.0147   -0.7462  -18.3935 C   0  0  0  0  0  0  0  0  0  0  0  0
   11.3663    0.3902  -19.3849 C   0  0  2  0  0  0  0  0  0  0  0  0
   12.1885    1.4700  -18.6154 C   0  0  0  0  0  0  0  0  0  0  0  0
   11.5297    1.9313  -17.3024 C   0  0  0  0  0  0  0  0  0  0  0  0
   10.0976    0.9712  -20.0183 C   0  0  0  0  0  0  0  0  0  0  0  0
    9.2396    1.6141  -19.4182 O   0  0  0  0  0  0  0  0  0  0  0  0
   10.0691    0.6741  -21.3119 N   0  0  0  0  0  0  0  0  0  0  0  0
   11.2089   -0.1086  -21.7440 C   0  0  0  0  0  0  0  0  0  0  0  0
   12.0626   -0.1685  -20.5539 N   0  0  0  0  0  0  0  0  0  0  0  0
   13.4409    0.0430  -20.7296 C   0  0  0  0  0  0  0  0  0  0  0  0
   13.9346    1.1434  -21.4721 C   0  0  0  0  0  0  0  0  0  0  0  0
   15.3214    1.3544  -21.5978 C   0  0  0  0  0  0  0  0  0  0  0  0
   16.2268    0.4701  -20.9838 C   0  0  0  0  0  0  0  0  0  0  0  0
   15.7441   -0.6257  -20.2457 C   0  0  0  0  0  0  0  0  0  0  0  0
   14.3576   -0.8358  -20.1152 C   0  0  0  0  0  0  0  0  0  0  0  0
    9.6404    2.9382  -14.0507 O   0  0  0  0  0  0  0  0  0  0  0  0
   10.4018    6.3715   -5.6559 H   0  0  0  0  0  0  0  0  0  0  0  0
   11.0553    8.0054   -5.5748 H   0  0  0  0  0  0  0  0  0  0  0  0
    9.4594    7.7244   -6.2744 H   0  0  0  0  0  0  0  0  0  0  0  0
   10.5022    6.4216   -8.1429 H   0  0  0  0  0  0  0  0  0  0  0  0
   12.0865    6.6659   -7.4468 H   0  0  0  0  0  0  0  0  0  0  0  0
   11.8810    9.1280   -7.7766 H   0  0  0  0  0  0  0  0  0  0  0  0
   10.2699    8.9370   -8.3946 H   0  0  0  0  0  0  0  0  0  0  0  0
   12.8543    7.9301   -9.6983 H   0  0  0  0  0  0  0  0  0  0  0  0
   11.8899    9.2773  -10.2489 H   0  0  0  0  0  0  0  0  0  0  0  0
   10.7997    5.3465  -12.6474 H   0  0  0  0  0  0  0  0  0  0  0  0
    5.0873    3.2257  -13.5734 H   0  0  0  0  0  0  0  0  0  0  0  0
    5.2901    5.4078  -12.3804 H   0  0  0  0  0  0  0  0  0  0  0  0
    7.2553    7.1922  -11.2740 H   0  0  0  0  0  0  0  0  0  0  0  0
    8.1378    0.1274  -15.1075 H   0  0  0  0  0  0  0  0  0  0  0  0
    8.4860    0.6052  -13.4522 H   0  0  0  0  0  0  0  0  0  0  0  0
    9.1609    2.3035  -15.9262 H   0  0  0  0  0  0  0  0  0  0  0  0
   10.7865    0.2441  -14.4212 H   0  0  0  0  0  0  0  0  0  0  0  0
   11.5757    1.7721  -14.6403 H   0  0  0  0  0  0  0  0  0  0  0  0
   10.2111   -1.0839  -16.4145 H   0  0  0  0  0  0  0  0  0  0  0  0
    9.3735    0.1745  -17.2849 H   0  0  0  0  0  0  0  0  0  0  0  0
   10.3509   -1.4697  -18.8686 H   0  0  0  0  0  0  0  0  0  0  0  0
   11.9219   -1.2989  -18.1470 H   0  0  0  0  0  0  0  0  0  0  0  0
   13.1713    1.0771  -18.3518 H   0  0  0  0  0  0  0  0  0  0  0  0
   12.3677    2.3367  -19.2522 H   0  0  0  0  0  0  0  0  0  0  0  0
   12.2171    2.5995  -16.7802 H   0  0  0  0  0  0  0  0  0  0  0  0
   10.6345    2.5183  -17.5080 H   0  0  0  0  0  0  0  0  0  0  0  0
    9.3300    0.9586  -21.9385 H   0  0  0  0  0  0  0  0  0  0  0  0
   11.6791    0.3487  -22.6154 H   0  0  0  0  0  0  0  0  0  0  0  0
   10.8881   -1.1137  -22.0224 H   0  0  0  0  0  0  0  0  0  0  0  0
   13.2546    1.8439  -21.9326 H   0  0  0  0  0  0  0  0  0  0  0  0
   15.6910    2.1982  -22.1639 H   0  0  0  0  0  0  0  0  0  0  0  0
   17.2920    0.6328  -21.0809 H   0  0  0  0  0  0  0  0  0  0  0  0
   16.4392   -1.3071  -19.7789 H   0  0  0  0  0  0  0  0  0  0  0  0
   14.0014   -1.6803  -19.5440 H   0  0  0  0  0  0  0  0  0  0  0  0
   12.1195    0.3157  -16.2968 H   0  0  0  0  0  0  0  0  0  0  0  0
  2  1  1  0
  3  2  1  0
  4  3  1  0
  5  4  1  0
  6  5  1  0
  7  6  2  0
  8  6  1  0
  9  8  2  0
 10  9  1  0
 11 10  2  0
 12 11  1  0
 13 12  2  0
 14 13  1  0
 15 10  1  0
 15 14  2  0
 16  8  1  0
 16 15  1  0
 17 12  1  0
 18 17  1  0
 19 18  1  0
 20 19  1  0
 21 20  1  0
 22 21  1  0
 23 22  1  0
 24 23  1  0
 25 24  1  0
 26 21  1  0
 26 25  1  0
 27 24  1  0
 28 27  2  0
 29 27  1  0
 30 29  1  0
 24 31  1  6
 31 30  1  0
 32 31  1  0
 33 32  2  0
 34 33  1  0
 35 34  2  0
 36 35  1  0
 37 32  1  0
 37 36  2  0
 38 11  1  0
 38 19  1  0
 39  1  1  0
 40  1  1  0
 41  1  1  0
 42  2  1  0
 43  2  1  0
 44  3  1  0
 45  3  1  0
 46  4  1  0
 47  4  1  0
 48  9  1  0
 49 13  1  0
 50 14  1  0
 51 16  1  0
 52 18  1  0
 53 18  1  0
 19 54  1  6
 55 20  1  0
 56 20  1  0
 57 22  1  0
 58 22  1  0
 59 23  1  0
 60 23  1  0
 61 25  1  0
 62 25  1  0
 63 26  1  0
 64 26  1  0
 65 29  1  0
 66 30  1  0
 67 30  1  0
 68 33  1  0
 69 34  1  0
 70 35  1  0
 71 36  1  0
 72 37  1  0
 21 73  1  1
M  CHG  1  21   1
M  END
>  <b_m_subgroup_collapsed>  (1077) 
0

>  <r_i_docking_score>  (1077) 
-6.7842207376998704

>  <s_m_subgroup_title>  (1077) 
glide-dock_SP_D22_pv

>  <s_m_subgroupid>  (1077) 
glide-dock_SP_D22_pv

>  <Molecule ChEMBL ID>  (1077) 
CHEMBL102175

>  <Standard Type>  (1077) 
Ki

>  <Standard Value>  (1077) 
5.7

>  <label>  (1077) 
1

$$$$
CHEMBL45156
     RDKit          3D

 41 42  0  0  1  0  0  0  0  0999 V2000
    4.8848    2.9919  -13.0458 F   0  0  0  0  0  0  0  0  0  0  0  0
    5.8522    3.8478  -13.3654 C   0  0  0  0  0  0  0  0  0  0  0  0
    6.3763    4.5302  -12.0967 C   0  0  0  0  0  0  0  0  0  0  0  0
    7.5971    5.4177  -12.3890 C   0  0  0  0  0  0  0  0  0  0  0  0
    8.0873    6.1723  -11.2067 N   0  0  2  0  0  0  0  0  0  0  0  0
    9.0264    7.2547  -11.6023 C   0  0  0  0  0  0  0  0  0  0  0  0
    9.4117    8.1340  -10.3975 C   0  0  0  0  0  0  0  0  0  0  0  0
   10.0146    7.2933   -9.2607 C   0  0  1  0  0  0  0  0  0  0  0  0
   10.3532    8.1465   -8.0256 C   0  0  0  0  0  0  0  0  0  0  0  0
   10.9771    7.2826   -7.0909 O   0  0  0  0  0  0  0  0  0  0  0  0
   11.2856    7.7554   -5.8406 C   0  0  0  0  0  0  0  0  0  0  0  0
   11.6858    6.7892   -4.8998 C   0  0  0  0  0  0  0  0  0  0  0  0
   12.0550    7.1444   -3.5938 C   0  0  0  0  0  0  0  0  0  0  0  0
   12.0144    8.4941   -3.2163 C   0  0  0  0  0  0  0  0  0  0  0  0
   12.4861    8.9713   -1.4476 Br  0  0  0  0  0  0  0  0  0  0  0  0
   11.6035    9.4784   -4.1366 C   0  0  0  0  0  0  0  0  0  0  0  0
   11.2412    9.1177   -5.4514 C   0  0  0  0  0  0  0  0  0  0  0  0
    9.0488    6.1449   -8.9103 C   0  0  0  0  0  0  0  0  0  0  0  0
    8.6826    5.3127  -10.1479 C   0  0  0  0  0  0  0  0  0  0  0  0
    5.4375    4.5714  -14.0660 H   0  0  0  0  0  0  0  0  0  0  0  0
    6.6285    3.2761  -13.8714 H   0  0  0  0  0  0  0  0  0  0  0  0
    6.6314    3.7562  -11.3742 H   0  0  0  0  0  0  0  0  0  0  0  0
    5.5831    5.1275  -11.6467 H   0  0  0  0  0  0  0  0  0  0  0  0
    7.3172    6.1376  -13.1575 H   0  0  0  0  0  0  0  0  0  0  0  0
    8.4136    4.8208  -12.7985 H   0  0  0  0  0  0  0  0  0  0  0  0
    8.5625    7.8845  -12.3628 H   0  0  0  0  0  0  0  0  0  0  0  0
    9.9207    6.8167  -12.0486 H   0  0  0  0  0  0  0  0  0  0  0  0
    8.5331    8.6708  -10.0353 H   0  0  0  0  0  0  0  0  0  0  0  0
   10.1258    8.8959  -10.7140 H   0  0  0  0  0  0  0  0  0  0  0  0
   10.9480    6.8560   -9.6222 H   0  0  0  0  0  0  0  0  0  0  0  0
    9.4473    8.5865   -7.6072 H   0  0  0  0  0  0  0  0  0  0  0  0
   11.0347    8.9547   -8.2985 H   0  0  0  0  0  0  0  0  0  0  0  0
   11.7140    5.7609   -5.2005 H   0  0  0  0  0  0  0  0  0  0  0  0
   12.3624    6.3863   -2.8901 H   0  0  0  0  0  0  0  0  0  0  0  0
   11.5578   10.5120   -3.8292 H   0  0  0  0  0  0  0  0  0  0  0  0
   10.9337    9.8876   -6.1408 H   0  0  0  0  0  0  0  0  0  0  0  0
    9.4936    5.4892   -8.1593 H   0  0  0  0  0  0  0  0  0  0  0  0
    8.1401    6.5515   -8.4631 H   0  0  0  0  0  0  0  0  0  0  0  0
    7.9865    4.5329   -9.8466 H   0  0  0  0  0  0  0  0  0  0  0  0
    9.5665    4.8044  -10.5410 H   0  0  0  0  0  0  0  0  0  0  0  0
    7.2985    6.6796  -10.7883 H   0  0  0  0  0  0  0  0  0  0  0  0
  2  1  1  0
  3  2  1  0
  4  3  1  0
  5  4  1  0
  6  5  1  0
  7  6  1  0
  8  7  1  0
  9  8  1  0
 10  9  1  0
 11 10  1  0
 12 11  1  0
 13 12  2  0
 14 13  1  0
 15 14  1  0
 16 14  2  0
 17 11  2  0
 17 16  1  0
 18  8  1  0
 19  5  1  0
 19 18  1  0
 20  2  1  0
 21  2  1  0
 22  3  1  0
 23  3  1  0
 24  4  1  0
 25  4  1  0
 26  6  1  0
 27  6  1  0
 28  7  1  0
 29  7  1  0
  8 30  1  6
 31  9  1  0
 32  9  1  0
 33 12  1  0
 34 13  1  0
 35 16  1  0
 36 17  1  0
 37 18  1  0
 38 18  1  0
 39 19  1  0
 40 19  1  0
  5 41  1  1
M  CHG  1   5   1
M  END
>  <b_m_subgroup_collapsed>  (1078) 
0

>  <r_i_docking_score>  (1078) 
-6.7826925713688402

>  <s_m_subgroup_title>  (1078) 
glide-dock_SP_D22_pv

>  <s_m_subgroupid>  (1078) 
glide-dock_SP_D22_pv

>  <Molecule ChEMBL ID>  (1078) 
CHEMBL45156

>  <Standard Type>  (1078) 
Ki

>  <Standard Value>  (1078) 
10000.0

>  <label>  (1078) 
0

$$$$
CHEMBL595151
     RDKit          3D

 47 50  0  0  1  0  0  0  0  0999 V2000
   11.0422    3.5906  -14.3311 C   0  0  0  0  0  0  0  0  0  0  0  0
    9.6470    3.7042  -13.9459 N   0  0  0  0  0  0  0  0  0  0  0  0
    9.0644    4.7008  -13.2330 C   0  0  0  0  0  0  0  0  0  0  0  0
    9.8893    5.8284  -12.6731 C   0  0  0  0  0  0  0  0  0  0  0  0
    9.3645    6.4786  -11.4760 N   0  0  0  0  0  0  0  0  0  0  0  0
   10.1612    7.6808  -11.2114 C   0  0  0  0  0  0  0  0  0  0  0  0
    9.6575    8.4137   -9.9561 C   0  0  0  0  0  0  0  0  0  0  0  0
    9.6861    7.4963   -8.8220 N   0  0  0  0  0  0  0  0  0  0  0  0
   10.2764    7.8268   -7.5845 C   0  0  0  0  0  0  0  0  0  0  0  0
   10.4399    6.8708   -6.5562 C   0  0  0  0  0  0  0  0  0  0  0  0
   11.0444    7.2538   -5.3479 C   0  0  0  0  0  0  0  0  0  0  0  0
   11.4780    8.5828   -5.1959 C   0  0  0  0  0  0  0  0  0  0  0  0
   12.1371    9.0737   -3.9271 C   0  0  0  0  0  0  0  0  0  0  0  0
   13.2225    9.7723   -4.2477 F   0  0  0  0  0  0  0  0  0  0  0  0
   11.2884    9.8666   -3.2846 F   0  0  0  0  0  0  0  0  0  0  0  0
   12.4861    8.0697   -3.1216 F   0  0  0  0  0  0  0  0  0  0  0  0
   11.2818    9.4677   -6.2715 C   0  0  0  0  0  0  0  0  0  0  0  0
   10.7024    9.1003   -7.4296 N   0  0  0  0  0  0  0  0  0  0  0  0
    8.9213    6.2758   -9.0574 C   0  0  0  0  0  0  0  0  0  0  0  0
    9.4524    5.5785  -10.3186 C   0  0  0  0  0  0  0  0  0  0  0  0
    7.7461    4.5946  -13.0623 N   0  0  0  0  0  0  0  0  0  0  0  0
    7.4641    3.3727  -13.6373 C   0  0  0  0  0  0  0  0  0  0  0  0
    6.2563    2.6424  -13.6836 C   0  0  0  0  0  0  0  0  0  0  0  0
    6.2272    1.3486  -14.2468 C   0  0  0  0  0  0  0  0  0  0  0  0
    7.3879    0.7940  -14.8219 C   0  0  0  0  0  0  0  0  0  0  0  0
    8.5961    1.5177  -14.8137 C   0  0  0  0  0  0  0  0  0  0  0  0
    8.6332    2.7862  -14.2005 C   0  0  0  0  0  0  0  0  0  0  0  0
   11.2131    2.6598  -14.8752 H   0  0  0  0  0  0  0  0  0  0  0  0
   11.3177    4.4295  -14.9722 H   0  0  0  0  0  0  0  0  0  0  0  0
   11.6766    3.5921  -13.4471 H   0  0  0  0  0  0  0  0  0  0  0  0
   10.0185    6.5721  -13.4469 H   0  0  0  0  0  0  0  0  0  0  0  0
   10.8869    5.4600  -12.4524 H   0  0  0  0  0  0  0  0  0  0  0  0
   10.0869    8.3541  -12.0648 H   0  0  0  0  0  0  0  0  0  0  0  0
   11.2132    7.4217  -11.0948 H   0  0  0  0  0  0  0  0  0  0  0  0
    8.6331    8.7606  -10.1050 H   0  0  0  0  0  0  0  0  0  0  0  0
   10.2682    9.3012   -9.8007 H   0  0  0  0  0  0  0  0  0  0  0  0
   10.1309    5.8444   -6.6527 H   0  0  0  0  0  0  0  0  0  0  0  0
   11.1714    6.5299   -4.5579 H   0  0  0  0  0  0  0  0  0  0  0  0
   11.5933   10.5013   -6.2015 H   0  0  0  0  0  0  0  0  0  0  0  0
    8.9251    5.5762   -8.2266 H   0  0  0  0  0  0  0  0  0  0  0  0
    7.8826    6.5528   -9.1954 H   0  0  0  0  0  0  0  0  0  0  0  0
    8.8724    4.6731  -10.4991 H   0  0  0  0  0  0  0  0  0  0  0  0
   10.4860    5.2763  -10.1485 H   0  0  0  0  0  0  0  0  0  0  0  0
    5.3664    3.0678  -13.2445 H   0  0  0  0  0  0  0  0  0  0  0  0
    5.3081    0.7838  -14.2489 H   0  0  0  0  0  0  0  0  0  0  0  0
    7.3546   -0.1931  -15.2612 H   0  0  0  0  0  0  0  0  0  0  0  0
    9.4909    1.0848  -15.2359 H   0  0  0  0  0  0  0  0  0  0  0  0
  2  1  1  0
  3  2  1  0
  4  3  1  0
  5  4  1  0
  6  5  1  0
  7  6  1  0
  8  7  1  0
  9  8  1  0
 10  9  2  0
 11 10  1  0
 12 11  2  0
 13 12  1  0
 14 13  1  0
 15 13  1  0
 16 13  1  0
 17 12  1  0
 18  9  1  0
 18 17  2  0
 19  8  1  0
 20  5  1  0
 20 19  1  0
 21  3  2  0
 22 21  1  0
 23 22  2  0
 24 23  1  0
 25 24  2  0
 26 25  1  0
 27  2  1  0
 27 22  1  0
 27 26  2  0
 28  1  1  0
 29  1  1  0
 30  1  1  0
 31  4  1  0
 32  4  1  0
 33  6  1  0
 34  6  1  0
 35  7  1  0
 36  7  1  0
 37 10  1  0
 38 11  1  0
 39 17  1  0
 40 19  1  0
 41 19  1  0
 42 20  1  0
 43 20  1  0
 44 23  1  0
 45 24  1  0
 46 25  1  0
 47 26  1  0
M  END
>  <b_m_subgroup_collapsed>  (1079) 
0

>  <r_i_docking_score>  (1079) 
-6.7813717098546098

>  <s_m_subgroup_title>  (1079) 
glide-dock_SP_D22_pv

>  <s_m_subgroupid>  (1079) 
glide-dock_SP_D22_pv

>  <Molecule ChEMBL ID>  (1079) 
CHEMBL595151

>  <Standard Type>  (1079) 
Ki

>  <Standard Value>  (1079) 
10000.0

>  <label>  (1079) 
0

$$$$
CHEMBL88937
     RDKit          3D

 42 45  0  0  1  0  0  0  0  0999 V2000
   12.0897    9.3661   -2.6328 Cl  0  0  0  0  0  0  0  0  0  0  0  0
   11.7567    8.8009   -4.2209 C   0  0  0  0  0  0  0  0  0  0  0  0
   11.5704    9.7249   -5.2624 C   0  0  0  0  0  0  0  0  0  0  0  0
   11.2363    9.2721   -6.5487 C   0  0  0  0  0  0  0  0  0  0  0  0
   11.0796    7.8929   -6.8116 C   0  0  0  0  0  0  0  0  0  0  0  0
   10.7128    7.4711   -8.1001 N   0  0  0  0  0  0  0  0  0  0  0  0
   10.0951    6.1714   -8.3395 C   0  0  0  0  0  0  0  0  0  0  0  0
    9.1683    6.2431   -9.5729 C   0  0  0  0  0  0  0  0  0  0  0  0
    9.8688    6.7855  -10.7471 N   0  0  0  0  0  0  0  0  0  0  0  0
    8.9440    6.9521  -11.8660 C   0  0  0  0  0  0  0  0  0  0  0  0
    8.4411    5.6679  -12.5089 C   0  0  0  0  0  0  0  0  0  0  0  0
    7.1189    5.2937  -12.4147 C   0  0  0  0  0  0  0  0  0  0  0  0
    6.6508    4.1369  -13.0842 C   0  0  0  0  0  0  0  0  0  0  0  0
    7.5064    3.3713  -13.8466 C   0  0  0  0  0  0  0  0  0  0  0  0
    8.8732    3.7468  -13.9413 C   0  0  0  0  0  0  0  0  0  0  0  0
    9.9758    3.2459  -14.5778 C   0  0  0  0  0  0  0  0  0  0  0  0
   11.0161    4.1477  -14.2468 C   0  0  0  0  0  0  0  0  0  0  0  0
   10.6362    5.1434  -13.4788 N   0  0  0  0  0  0  0  0  0  0  0  0
    9.2977    4.9081  -13.2572 N   0  0  0  0  0  0  0  0  0  0  0  0
   10.3796    8.1193  -10.4182 C   0  0  0  0  0  0  0  0  0  0  0  0
   11.3847    8.0290   -9.2652 C   0  0  0  0  0  0  0  0  0  0  0  0
   11.2858    6.9716   -5.7584 C   0  0  0  0  0  0  0  0  0  0  0  0
   11.6420    7.4213   -4.4724 C   0  0  0  0  0  0  0  0  0  0  0  0
   11.6738   10.7823   -5.0780 H   0  0  0  0  0  0  0  0  0  0  0  0
   11.0750   10.0019   -7.3258 H   0  0  0  0  0  0  0  0  0  0  0  0
    9.5083    5.8604   -7.4746 H   0  0  0  0  0  0  0  0  0  0  0  0
   10.8780    5.4270   -8.4912 H   0  0  0  0  0  0  0  0  0  0  0  0
    8.3107    6.8702   -9.3316 H   0  0  0  0  0  0  0  0  0  0  0  0
    8.7769    5.2503   -9.7973 H   0  0  0  0  0  0  0  0  0  0  0  0
    9.4461    7.5220  -12.6467 H   0  0  0  0  0  0  0  0  0  0  0  0
    8.0878    7.5566  -11.5608 H   0  0  0  0  0  0  0  0  0  0  0  0
    6.4305    5.9020  -11.8337 H   0  0  0  0  0  0  0  0  0  0  0  0
    5.6064    3.8527  -13.0017 H   0  0  0  0  0  0  0  0  0  0  0  0
    7.1555    2.4838  -14.3617 H   0  0  0  0  0  0  0  0  0  0  0  0
   10.0454    2.3621  -15.1938 H   0  0  0  0  0  0  0  0  0  0  0  0
   12.0474    4.0919  -14.5647 H   0  0  0  0  0  0  0  0  0  0  0  0
   10.8757    8.5481  -11.2886 H   0  0  0  0  0  0  0  0  0  0  0  0
    9.5596    8.7890  -10.1517 H   0  0  0  0  0  0  0  0  0  0  0  0
   11.8167    9.0097   -9.0735 H   0  0  0  0  0  0  0  0  0  0  0  0
   12.2132    7.3760   -9.5436 H   0  0  0  0  0  0  0  0  0  0  0  0
   11.1902    5.9105   -5.9286 H   0  0  0  0  0  0  0  0  0  0  0  0
   11.7912    6.7077   -3.6752 H   0  0  0  0  0  0  0  0  0  0  0  0
  2  1  1  0
  3  2  1  0
  4  3  2  0
  5  4  1  0
  6  5  1  0
  7  6  1  0
  8  7  1  0
  9  8  1  0
 10  9  1  0
 11 10  1  0
 12 11  2  0
 13 12  1  0
 14 13  2  0
 15 14  1  0
 16 15  2  0
 17 16  1  0
 18 17  2  0
 19 11  1  0
 19 15  1  0
 19 18  1  0
 20  9  1  0
 21  6  1  0
 21 20  1  0
 22  5  2  0
 23  2  2  0
 23 22  1  0
 24  3  1  0
 25  4  1  0
 26  7  1  0
 27  7  1  0
 28  8  1  0
 29  8  1  0
 30 10  1  0
 31 10  1  0
 32 12  1  0
 33 13  1  0
 34 14  1  0
 35 16  1  0
 36 17  1  0
 37 20  1  0
 38 20  1  0
 39 21  1  0
 40 21  1  0
 41 22  1  0
 42 23  1  0
M  END
>  <b_m_subgroup_collapsed>  (1080) 
0

>  <r_i_docking_score>  (1080) 
-6.7797962879644604

>  <s_m_subgroup_title>  (1080) 
glide-dock_SP_D22_pv

>  <s_m_subgroupid>  (1080) 
glide-dock_SP_D22_pv

>  <Molecule ChEMBL ID>  (1080) 
CHEMBL88937

>  <Standard Type>  (1080) 
Ki

>  <Standard Value>  (1080) 
31000.0

>  <label>  (1080) 
0

$$$$
CHEMBL4170001
     RDKit          3D

 55 58  0  0  1  0  0  0  0  0999 V2000
    5.0165    1.3427  -13.0936 C   0  0  0  0  0  0  0  0  0  0  0  0
    6.3069    0.8738  -13.4482 O   0  0  0  0  0  0  0  0  0  0  0  0
    6.6254    1.0224  -14.8232 C   0  0  2  0  0  0  0  0  0  0  0  0
    7.6584   -0.0419  -15.2053 C   0  0  0  0  0  0  0  0  0  0  0  0
    9.0099    0.2433  -14.5384 C   0  0  0  0  0  0  0  0  0  0  0  0
    9.4954    1.6747  -14.8068 C   0  0  0  0  0  0  0  0  0  0  0  0
    8.4744    2.6726  -14.3973 N   0  0  1  0  0  0  0  0  0  0  0  0
    8.9604    4.0722  -14.5149 C   0  0  0  0  0  0  0  0  0  0  0  0
    8.7972    4.8537  -13.2417 C   0  0  0  0  0  0  0  0  0  0  0  0
    9.8985    5.4810  -12.6768 N   0  0  0  0  0  0  0  0  0  0  0  0
    9.4358    6.1293  -11.6079 C   0  0  0  0  0  0  0  0  0  0  0  0
   10.1722    6.9674  -10.6693 C   0  0  0  0  0  0  0  0  0  0  0  0
   11.4701    7.3997  -11.0041 C   0  0  0  0  0  0  0  0  0  0  0  0
   12.2166    8.1743  -10.0997 C   0  0  0  0  0  0  0  0  0  0  0  0
   11.6572    8.5519   -8.8656 C   0  0  0  0  0  0  0  0  0  0  0  0
   10.3504    8.1378   -8.5215 C   0  0  0  0  0  0  0  0  0  0  0  0
    9.7824    8.5034   -7.3263 O   0  0  0  0  0  0  0  0  0  0  0  0
   10.5280    8.3401   -6.1853 C   0  0  0  0  0  0  0  0  0  0  0  0
   10.8858    7.0514   -5.7393 C   0  0  0  0  0  0  0  0  0  0  0  0
   11.6637    6.8978   -4.5754 C   0  0  0  0  0  0  0  0  0  0  0  0
   12.0760    8.0278   -3.8440 C   0  0  0  0  0  0  0  0  0  0  0  0
   11.7029    9.3144   -4.2762 C   0  0  0  0  0  0  0  0  0  0  0  0
   10.9394    9.4749   -5.4511 C   0  0  0  0  0  0  0  0  0  0  0  0
    9.6094    7.3512   -9.4308 C   0  0  0  0  0  0  0  0  0  0  0  0
    8.1034    5.9509  -11.4294 O   0  0  0  0  0  0  0  0  0  0  0  0
    7.7009    5.1672  -12.4730 C   0  0  0  0  0  0  0  0  0  0  0  0
    6.2421    4.8678  -12.5332 C   0  0  0  0  0  0  0  0  0  0  0  0
    7.1767    2.4400  -15.0913 C   0  0  0  0  0  0  0  0  0  0  0  0
    4.8861    1.2843  -12.0131 H   0  0  0  0  0  0  0  0  0  0  0  0
    4.8685    2.3809  -13.3879 H   0  0  0  0  0  0  0  0  0  0  0  0
    4.2421    0.7367  -13.5661 H   0  0  0  0  0  0  0  0  0  0  0  0
    5.7320    0.8436  -15.4217 H   0  0  0  0  0  0  0  0  0  0  0  0
    7.7844   -0.0619  -16.2880 H   0  0  0  0  0  0  0  0  0  0  0  0
    7.2824   -1.0248  -14.9074 H   0  0  0  0  0  0  0  0  0  0  0  0
    9.7565   -0.4825  -14.8605 H   0  0  0  0  0  0  0  0  0  0  0  0
    8.8873    0.1222  -13.4683 H   0  0  0  0  0  0  0  0  0  0  0  0
    9.7315    1.7989  -15.8662 H   0  0  0  0  0  0  0  0  0  0  0  0
   10.4173    1.8474  -14.2514 H   0  0  0  0  0  0  0  0  0  0  0  0
    8.4863    4.5863  -15.3498 H   0  0  0  0  0  0  0  0  0  0  0  0
   10.0213    4.0661  -14.7824 H   0  0  0  0  0  0  0  0  0  0  0  0
   11.9084    7.1294  -11.9537 H   0  0  0  0  0  0  0  0  0  0  0  0
   13.2106    8.5072  -10.3613 H   0  0  0  0  0  0  0  0  0  0  0  0
   12.2335    9.1616   -8.1856 H   0  0  0  0  0  0  0  0  0  0  0  0
   10.5680    6.1799   -6.2900 H   0  0  0  0  0  0  0  0  0  0  0  0
   11.9356    5.9089   -4.2349 H   0  0  0  0  0  0  0  0  0  0  0  0
   12.6643    7.9102   -2.9468 H   0  0  0  0  0  0  0  0  0  0  0  0
   12.0075   10.1740   -3.7002 H   0  0  0  0  0  0  0  0  0  0  0  0
   10.6624   10.4653   -5.7873 H   0  0  0  0  0  0  0  0  0  0  0  0
    8.6073    7.0400   -9.1650 H   0  0  0  0  0  0  0  0  0  0  0  0
    5.8574    4.9716  -13.5481 H   0  0  0  0  0  0  0  0  0  0  0  0
    6.0401    3.8582  -12.1739 H   0  0  0  0  0  0  0  0  0  0  0  0
    5.6866    5.5595  -11.8989 H   0  0  0  0  0  0  0  0  0  0  0  0
    6.4522    3.1904  -14.7891 H   0  0  0  0  0  0  0  0  0  0  0  0
    7.3175    2.5682  -16.1655 H   0  0  0  0  0  0  0  0  0  0  0  0
    8.3110    2.5164  -13.4116 H   0  0  0  0  0  0  0  0  0  0  0  0
  2  1  1  0
  3  2  1  0
  4  3  1  0
  5  4  1  0
  6  5  1  0
  7  6  1  0
  8  7  1  0
  9  8  1  0
 10  9  1  0
 11 10  2  0
 12 11  1  0
 13 12  2  0
 14 13  1  0
 15 14  2  0
 16 15  1  0
 17 16  1  0
 18 17  1  0
 19 18  2  0
 20 19  1  0
 21 20  2  0
 22 21  1  0
 23 18  1  0
 23 22  2  0
 24 12  1  0
 24 16  2  0
 25 11  1  0
 26  9  2  0
 26 25  1  0
 27 26  1  0
 28  3  1  0
 28  7  1  0
 29  1  1  0
 30  1  1  0
 31  1  1  0
  3 32  1  6
 33  4  1  0
 34  4  1  0
 35  5  1  0
 36  5  1  0
 37  6  1  0
 38  6  1  0
 39  8  1  0
 40  8  1  0
 41 13  1  0
 42 14  1  0
 43 15  1  0
 44 19  1  0
 45 20  1  0
 46 21  1  0
 47 22  1  0
 48 23  1  0
 49 24  1  0
 50 27  1  0
 51 27  1  0
 52 27  1  0
 53 28  1  0
 54 28  1  0
  7 55  1  1
M  CHG  1   7   1
M  END
>  <b_m_subgroup_collapsed>  (1081) 
0

>  <r_i_docking_score>  (1081) 
-6.7777561609565398

>  <s_m_subgroup_title>  (1081) 
glide-dock_SP_D22_pv

>  <s_m_subgroupid>  (1081) 
glide-dock_SP_D22_pv

>  <Molecule ChEMBL ID>  (1081) 
CHEMBL4170001

>  <Standard Type>  (1081) 
Ki

>  <Standard Value>  (1081) 
10000.0

>  <label>  (1081) 
0

$$$$
CHEMBL3085825
     RDKit          3D

 61 63  0  0  1  0  0  0  0  0999 V2000
   12.0854    9.4570   -2.4509 C   0  0  0  0  0  0  0  0  0  0  0  0
   11.7257    8.2008   -3.1069 N   0  0  0  0  0  0  0  0  0  0  0  0
   11.6240    7.0502   -2.2133 C   0  0  0  0  0  0  0  0  0  0  0  0
   11.6859    8.0377   -4.4451 C   0  0  0  0  0  0  0  0  0  0  0  0
   11.7309    6.9274   -4.9665 O   0  0  0  0  0  0  0  0  0  0  0  0
   11.5375    9.1804   -5.1401 N   0  0  0  0  0  0  0  0  0  0  0  0
   11.7709    9.3813   -6.5712 C   0  0  0  0  0  0  0  0  0  0  0  0
   10.6653    8.8867   -7.5450 C   0  0  1  0  0  0  0  0  0  0  0  0
   11.1215    9.1161   -9.0036 C   0  0  0  0  0  0  0  0  0  0  0  0
   10.1015    8.6296  -10.0398 C   0  0  0  0  0  0  0  0  0  0  0  0
    9.7246    7.1547   -9.8303 C   0  0  2  0  0  0  0  0  0  0  0  0
    8.6451    6.7165  -10.8365 C   0  0  0  0  0  0  0  0  0  0  0  0
    9.1652    5.8817  -11.9306 N   0  0  0  0  0  0  0  0  0  0  0  0
    8.2625    5.9598  -13.1039 C   0  0  0  0  0  0  0  0  0  0  0  0
    8.7981    5.1120  -14.2593 C   0  0  0  0  0  0  0  0  0  0  0  0
    9.0925    3.7620  -13.8277 N   0  0  0  0  0  0  0  0  0  0  0  0
    8.4203    2.6302  -14.3233 C   0  0  0  0  0  0  0  0  0  0  0  0
    9.1781    1.7180  -15.0872 C   0  0  0  0  0  0  0  0  0  0  0  0
    8.6160    0.5050  -15.5219 C   0  0  0  0  0  0  0  0  0  0  0  0
    7.2992    0.1731  -15.1586 C   0  0  0  0  0  0  0  0  0  0  0  0
    6.5338    1.0620  -14.3838 C   0  0  0  0  0  0  0  0  0  0  0  0
    4.9660    0.5637  -13.8466 Cl  0  0  0  0  0  0  0  0  0  0  0  0
    7.0681    2.3153  -14.0048 C   0  0  0  0  0  0  0  0  0  0  0  0
    6.0861    3.3731  -13.0508 Cl  0  0  0  0  0  0  0  0  0  0  0  0
    9.9379    3.6188  -12.6596 C   0  0  0  0  0  0  0  0  0  0  0  0
    9.3956    4.4757  -11.5035 C   0  0  0  0  0  0  0  0  0  0  0  0
    9.2210    6.9644   -8.3961 C   0  0  0  0  0  0  0  0  0  0  0  0
   10.2509    7.4118   -7.3669 C   0  0  0  0  0  0  0  0  0  0  0  0
   11.3638   10.2420   -2.6759 H   0  0  0  0  0  0  0  0  0  0  0  0
   12.1305    9.3556   -1.3657 H   0  0  0  0  0  0  0  0  0  0  0  0
   13.0698    9.7722   -2.7939 H   0  0  0  0  0  0  0  0  0  0  0  0
   12.5850    6.8432   -1.7449 H   0  0  0  0  0  0  0  0  0  0  0  0
   10.8857    7.2675   -1.4474 H   0  0  0  0  0  0  0  0  0  0  0  0
   11.2927    6.1356   -2.7056 H   0  0  0  0  0  0  0  0  0  0  0  0
   11.4317   10.0187   -4.5900 H   0  0  0  0  0  0  0  0  0  0  0  0
   12.7425    8.9726   -6.8432 H   0  0  0  0  0  0  0  0  0  0  0  0
   11.8803   10.4592   -6.6894 H   0  0  0  0  0  0  0  0  0  0  0  0
    9.7729    9.4885   -7.3718 H   0  0  0  0  0  0  0  0  0  0  0  0
   11.2861   10.1752   -9.1782 H   0  0  0  0  0  0  0  0  0  0  0  0
   12.0762    8.6174   -9.1775 H   0  0  0  0  0  0  0  0  0  0  0  0
   10.5052    8.7646  -11.0434 H   0  0  0  0  0  0  0  0  0  0  0  0
    9.2077    9.2535   -9.9760 H   0  0  0  0  0  0  0  0  0  0  0  0
   10.6246    6.5505   -9.9499 H   0  0  0  0  0  0  0  0  0  0  0  0
    8.2035    7.6047  -11.2912 H   0  0  0  0  0  0  0  0  0  0  0  0
    7.8335    6.1717  -10.3476 H   0  0  0  0  0  0  0  0  0  0  0  0
    8.1132    6.9837  -13.4400 H   0  0  0  0  0  0  0  0  0  0  0  0
    7.2710    5.6358  -12.8012 H   0  0  0  0  0  0  0  0  0  0  0  0
    9.7078    5.5527  -14.6686 H   0  0  0  0  0  0  0  0  0  0  0  0
    8.0775    5.0974  -15.0468 H   0  0  0  0  0  0  0  0  0  0  0  0
   10.2068    1.9415  -15.3294 H   0  0  0  0  0  0  0  0  0  0  0  0
    9.2049   -0.1899  -16.1024 H   0  0  0  0  0  0  0  0  0  0  0  0
    6.8838   -0.7805  -15.4521 H   0  0  0  0  0  0  0  0  0  0  0  0
   10.0030    2.5735  -12.3709 H   0  0  0  0  0  0  0  0  0  0  0  0
   10.9418    3.9412  -12.9332 H   0  0  0  0  0  0  0  0  0  0  0  0
   10.0837    4.4300  -10.6596 H   0  0  0  0  0  0  0  0  0  0  0  0
    8.4424    4.0734  -11.1591 H   0  0  0  0  0  0  0  0  0  0  0  0
    8.3215    7.5525   -8.2431 H   0  0  0  0  0  0  0  0  0  0  0  0
    8.9535    5.9219   -8.2185 H   0  0  0  0  0  0  0  0  0  0  0  0
    9.7877    7.2689   -6.3917 H   0  0  0  0  0  0  0  0  0  0  0  0
   11.1247    6.7612   -7.4252 H   0  0  0  0  0  0  0  0  0  0  0  0
   10.0516    6.2688  -12.2184 H   0  0  0  0  0  0  0  0  0  0  0  0
  2  1  1  0
  3  2  1  0
  4  2  1  0
  5  4  2  0
  6  4  1  0
  7  6  1  0
  8  7  1  0
  9  8  1  0
 10  9  1  0
 11 10  1  0
 12 11  1  0
 13 12  1  0
 14 13  1  0
 15 14  1  0
 16 15  1  0
 17 16  1  0
 18 17  2  0
 19 18  1  0
 20 19  2  0
 21 20  1  0
 22 21  1  0
 23 17  1  0
 23 21  2  0
 24 23  1  0
 25 16  1  0
 26 13  1  0
 26 25  1  0
 27 11  1  0
 28  8  1  0
 28 27  1  0
 29  1  1  0
 30  1  1  0
 31  1  1  0
 32  3  1  0
 33  3  1  0
 34  3  1  0
 35  6  1  0
 36  7  1  0
 37  7  1  0
  8 38  1  1
 39  9  1  0
 40  9  1  0
 41 10  1  0
 42 10  1  0
 11 43  1  1
 44 12  1  0
 45 12  1  0
 46 14  1  0
 47 14  1  0
 48 15  1  0
 49 15  1  0
 50 18  1  0
 51 19  1  0
 52 20  1  0
 53 25  1  0
 54 25  1  0
 55 26  1  0
 56 26  1  0
 57 27  1  0
 58 27  1  0
 59 28  1  0
 60 28  1  0
 61 13  1  0
M  CHG  1  13   1
M  END
>  <b_m_subgroup_collapsed>  (1082) 
0

>  <r_i_docking_score>  (1082) 
-6.7756256463473701

>  <s_m_subgroup_title>  (1082) 
glide-dock_SP_D22_pv

>  <s_m_subgroupid>  (1082) 
glide-dock_SP_D22_pv

>  <Molecule ChEMBL ID>  (1082) 
CHEMBL3085825

>  <Standard Type>  (1082) 
Ki

>  <Standard Value>  (1082) 
42.66

>  <label>  (1082) 
1

$$$$
CHEMBL4079495
     RDKit          3D

 48 50  0  0  1  0  0  0  0  0999 V2000
    9.8640    2.0000  -14.8704 C   0  0  0  0  0  0  0  0  0  0  0  0
    8.4443    2.0652  -14.8224 O   0  0  0  0  0  0  0  0  0  0  0  0
    7.8738    3.0623  -14.0618 C   0  0  0  0  0  0  0  0  0  0  0  0
    6.4851    2.9805  -13.8380 C   0  0  0  0  0  0  0  0  0  0  0  0
    5.8235    3.9367  -13.0428 C   0  0  0  0  0  0  0  0  0  0  0  0
    6.5476    4.9972  -12.4685 C   0  0  0  0  0  0  0  0  0  0  0  0
    7.9343    5.1021  -12.6946 C   0  0  0  0  0  0  0  0  0  0  0  0
    8.7229    6.2421  -12.0858 C   0  0  0  0  0  0  0  0  0  0  0  0
    9.4582    5.8276  -10.8023 C   0  0  0  0  0  0  0  0  0  0  0  0
   10.3429    6.9574  -10.3549 C   0  0  0  0  0  0  0  0  0  0  0  0
   11.3952    7.3772  -11.0711 N   0  0  0  0  0  0  0  0  0  0  0  0
   12.0863    8.4785  -10.4109 C   0  0  0  0  0  0  0  0  0  0  0  0
   11.2537    8.6973   -9.1448 C   0  0  0  0  0  0  0  0  0  0  0  0
   10.1916    7.6848   -9.2323 N   0  0  0  0  0  0  0  0  0  0  0  0
    9.1315    7.5714   -8.2098 C   0  0  0  0  0  0  0  0  0  0  0  0
    9.6020    6.8655   -6.9196 C   0  0  0  0  0  0  0  0  0  0  0  0
   10.4980    7.6635   -5.9772 C   0  0  0  0  0  0  0  0  0  0  0  0
   10.5184    9.0762   -5.9763 C   0  0  0  0  0  0  0  0  0  0  0  0
   11.2978    9.7823   -5.0458 C   0  0  0  0  0  0  0  0  0  0  0  0
   12.0848    9.0852   -4.1110 C   0  0  0  0  0  0  0  0  0  0  0  0
   12.0836    7.6780   -4.1050 C   0  0  0  0  0  0  0  0  0  0  0  0
   11.2861    6.9724   -5.0320 C   0  0  0  0  0  0  0  0  0  0  0  0
    8.5937    4.1367  -13.4843 C   0  0  0  0  0  0  0  0  0  0  0  0
   10.1655    1.1138  -15.4288 H   0  0  0  0  0  0  0  0  0  0  0  0
   10.2857    2.8688  -15.3755 H   0  0  0  0  0  0  0  0  0  0  0  0
   10.2930    1.9188  -13.8684 H   0  0  0  0  0  0  0  0  0  0  0  0
    5.9228    2.1564  -14.2511 H   0  0  0  0  0  0  0  0  0  0  0  0
    4.7604    3.8574  -12.8701 H   0  0  0  0  0  0  0  0  0  0  0  0
    6.0419    5.7295  -11.8529 H   0  0  0  0  0  0  0  0  0  0  0  0
    8.0612    7.0856  -11.8757 H   0  0  0  0  0  0  0  0  0  0  0  0
    9.4435    6.5816  -12.8297 H   0  0  0  0  0  0  0  0  0  0  0  0
   10.0837    4.9504  -10.9912 H   0  0  0  0  0  0  0  0  0  0  0  0
    8.7452    5.5327  -10.0305 H   0  0  0  0  0  0  0  0  0  0  0  0
   13.1142    8.2022  -10.1728 H   0  0  0  0  0  0  0  0  0  0  0  0
   12.1021    9.3671  -11.0430 H   0  0  0  0  0  0  0  0  0  0  0  0
   10.8330    9.7003   -9.1135 H   0  0  0  0  0  0  0  0  0  0  0  0
   11.8648    8.5453   -8.2563 H   0  0  0  0  0  0  0  0  0  0  0  0
    8.3116    6.9972   -8.6317 H   0  0  0  0  0  0  0  0  0  0  0  0
    8.6962    8.5487   -8.0046 H   0  0  0  0  0  0  0  0  0  0  0  0
   10.1163    5.9410   -7.1879 H   0  0  0  0  0  0  0  0  0  0  0  0
    8.7209    6.5650   -6.3498 H   0  0  0  0  0  0  0  0  0  0  0  0
    9.9327    9.6441   -6.6789 H   0  0  0  0  0  0  0  0  0  0  0  0
   11.2889   10.8635   -5.0475 H   0  0  0  0  0  0  0  0  0  0  0  0
   12.6880    9.6303   -3.3975 H   0  0  0  0  0  0  0  0  0  0  0  0
   12.6842    7.1402   -3.3874 H   0  0  0  0  0  0  0  0  0  0  0  0
   11.2767    5.8914   -5.0000 H   0  0  0  0  0  0  0  0  0  0  0  0
    9.6571    4.2407  -13.6375 H   0  0  0  0  0  0  0  0  0  0  0  0
   11.6866    6.9970  -11.9615 H   0  0  0  0  0  0  0  0  0  0  0  0
  2  1  1  0
  3  2  1  0
  4  3  1  0
  5  4  2  0
  6  5  1  0
  7  6  2  0
  8  7  1  0
  9  8  1  0
 10  9  1  0
 11 10  2  0
 12 11  1  0
 13 12  1  0
 14 10  1  0
 14 13  1  0
 15 14  1  0
 16 15  1  0
 17 16  1  0
 18 17  2  0
 19 18  1  0
 20 19  2  0
 21 20  1  0
 22 17  1  0
 22 21  2  0
 23  3  2  0
 23  7  1  0
 24  1  1  0
 25  1  1  0
 26  1  1  0
 27  4  1  0
 28  5  1  0
 29  6  1  0
 30  8  1  0
 31  8  1  0
 32  9  1  0
 33  9  1  0
 34 12  1  0
 35 12  1  0
 36 13  1  0
 37 13  1  0
 38 15  1  0
 39 15  1  0
 40 16  1  0
 41 16  1  0
 42 18  1  0
 43 19  1  0
 44 20  1  0
 45 21  1  0
 46 22  1  0
 47 23  1  0
 48 11  1  0
M  CHG  1  11   1
M  END
>  <b_m_subgroup_collapsed>  (1083) 
0

>  <r_i_docking_score>  (1083) 
-6.7724053902460204

>  <s_m_subgroup_title>  (1083) 
glide-dock_SP_D22_pv

>  <s_m_subgroupid>  (1083) 
glide-dock_SP_D22_pv

>  <Molecule ChEMBL ID>  (1083) 
CHEMBL4079495

>  <Standard Type>  (1083) 
Ki

>  <Standard Value>  (1083) 
10000.0

>  <label>  (1083) 
0

$$$$
CHEMBL283528
     RDKit          3D

 54 56  0  0  1  0  0  0  0  0999 V2000
   12.0825    7.2687   -2.6996 C   0  0  0  0  0  0  0  0  0  0  0  0
   11.4375    6.6625   -3.9506 C   0  0  0  0  0  0  0  0  0  0  0  0
   11.1598    7.7021   -5.0456 C   0  0  0  0  0  0  0  0  0  0  0  0
   10.5638    7.0595   -6.3080 C   0  0  0  0  0  0  0  0  0  0  0  0
   10.2690    8.0597   -7.3650 N   0  0  1  0  0  0  0  0  0  0  0  0
   11.4447    8.7727   -7.9250 C   0  0  0  0  0  0  0  0  0  0  0  0
   11.0895    9.1259   -9.3764 C   0  0  0  0  0  0  0  0  0  0  0  0
    9.6147    8.7471   -9.5125 C   0  0  0  0  0  0  0  0  0  0  0  0
    9.4443    7.6014   -8.5093 C   0  0  1  0  0  0  0  0  0  0  0  0
    9.8877    6.2134   -9.0432 C   0  0  0  0  0  0  0  0  0  0  0  0
    9.1363    5.7547  -10.2027 N   0  0  0  0  0  0  0  0  0  0  0  0
    9.5436    5.8649  -11.4771 C   0  0  0  0  0  0  0  0  0  0  0  0
   10.4858    6.5722  -11.8357 O   0  0  0  0  0  0  0  0  0  0  0  0
    8.8362    4.9479  -12.4304 C   0  0  0  0  0  0  0  0  0  0  0  0
    7.4350    4.8274  -12.3522 C   0  0  0  0  0  0  0  0  0  0  0  0
    6.7583    3.9303  -13.1888 C   0  0  0  0  0  0  0  0  0  0  0  0
    5.0548    3.7691  -13.0469 Cl  0  0  0  0  0  0  0  0  0  0  0  0
    7.4667    3.1462  -14.1151 C   0  0  0  0  0  0  0  0  0  0  0  0
    8.8732    3.2510  -14.2197 C   0  0  0  0  0  0  0  0  0  0  0  0
    9.5586    4.1822  -13.3846 C   0  0  0  0  0  0  0  0  0  0  0  0
   10.9313    4.3223  -13.4492 O   0  0  0  0  0  0  0  0  0  0  0  0
   11.5512    3.8270  -14.6261 C   0  0  0  0  0  0  0  0  0  0  0  0
   11.0442    2.4115  -14.9051 C   0  0  0  0  0  0  0  0  0  0  0  0
    9.6031    2.4319  -15.1112 N   0  0  0  0  0  0  0  0  0  0  0  0
    8.9681    1.2595  -15.7070 C   0  0  0  0  0  0  0  0  0  0  0  0
   12.2819    6.4964   -1.9557 H   0  0  0  0  0  0  0  0  0  0  0  0
   13.0286    7.7526   -2.9410 H   0  0  0  0  0  0  0  0  0  0  0  0
   11.4310    8.0133   -2.2408 H   0  0  0  0  0  0  0  0  0  0  0  0
   10.5055    6.1725   -3.6708 H   0  0  0  0  0  0  0  0  0  0  0  0
   12.0861    5.8796   -4.3427 H   0  0  0  0  0  0  0  0  0  0  0  0
   12.0861    8.2177   -5.2919 H   0  0  0  0  0  0  0  0  0  0  0  0
   10.4864    8.4699   -4.6666 H   0  0  0  0  0  0  0  0  0  0  0  0
    9.6331    6.5554   -6.0404 H   0  0  0  0  0  0  0  0  0  0  0  0
   11.2448    6.2955   -6.6861 H   0  0  0  0  0  0  0  0  0  0  0  0
   12.3367    8.1434   -7.9055 H   0  0  0  0  0  0  0  0  0  0  0  0
   11.6520    9.6642   -7.3315 H   0  0  0  0  0  0  0  0  0  0  0  0
   11.6896    8.5257  -10.0613 H   0  0  0  0  0  0  0  0  0  0  0  0
   11.2805   10.1715   -9.6147 H   0  0  0  0  0  0  0  0  0  0  0  0
    9.3142    8.5126  -10.5317 H   0  0  0  0  0  0  0  0  0  0  0  0
    8.9919    9.5846   -9.1973 H   0  0  0  0  0  0  0  0  0  0  0  0
    8.4079    7.5336   -8.1865 H   0  0  0  0  0  0  0  0  0  0  0  0
    9.7292    5.4535   -8.2765 H   0  0  0  0  0  0  0  0  0  0  0  0
   10.9554    6.1939   -9.2651 H   0  0  0  0  0  0  0  0  0  0  0  0
    8.3174    5.1888  -10.0228 H   0  0  0  0  0  0  0  0  0  0  0  0
    6.8702    5.4156  -11.6412 H   0  0  0  0  0  0  0  0  0  0  0  0
    6.9071    2.4579  -14.7304 H   0  0  0  0  0  0  0  0  0  0  0  0
   11.3417    4.4940  -15.4652 H   0  0  0  0  0  0  0  0  0  0  0  0
   12.6307    3.8248  -14.4809 H   0  0  0  0  0  0  0  0  0  0  0  0
   11.5410    2.0078  -15.7872 H   0  0  0  0  0  0  0  0  0  0  0  0
   11.2822    1.7533  -14.0680 H   0  0  0  0  0  0  0  0  0  0  0  0
    8.1827    1.5605  -16.4034 H   0  0  0  0  0  0  0  0  0  0  0  0
    9.6926    0.6633  -16.2610 H   0  0  0  0  0  0  0  0  0  0  0  0
    8.5319    0.6230  -14.9369 H   0  0  0  0  0  0  0  0  0  0  0  0
    9.7027    8.7720   -6.9288 H   0  0  0  0  0  0  0  0  0  0  0  0
  2  1  1  0
  3  2  1  0
  4  3  1  0
  5  4  1  0
  6  5  1  0
  7  6  1  0
  8  7  1  0
  9  5  1  0
  9  8  1  0
 10  9  1  0
 11 10  1  0
 12 11  1  0
 13 12  2  0
 14 12  1  0
 15 14  1  0
 16 15  2  0
 17 16  1  0
 18 16  1  0
 19 18  2  0
 20 14  2  0
 20 19  1  0
 21 20  1  0
 22 21  1  0
 23 22  1  0
 24 19  1  0
 24 23  1  0
 25 24  1  0
 26  1  1  0
 27  1  1  0
 28  1  1  0
 29  2  1  0
 30  2  1  0
 31  3  1  0
 32  3  1  0
 33  4  1  0
 34  4  1  0
 35  6  1  0
 36  6  1  0
 37  7  1  0
 38  7  1  0
 39  8  1  0
 40  8  1  0
  9 41  1  1
 42 10  1  0
 43 10  1  0
 44 11  1  0
 45 15  1  0
 46 18  1  0
 47 22  1  0
 48 22  1  0
 49 23  1  0
 50 23  1  0
 51 25  1  0
 52 25  1  0
 53 25  1  0
  5 54  1  1
M  CHG  1   5   1
M  END
>  <b_m_subgroup_collapsed>  (1084) 
0

>  <r_i_docking_score>  (1084) 
-6.77118998841752

>  <s_m_subgroup_title>  (1084) 
glide-dock_SP_D22_pv

>  <s_m_subgroupid>  (1084) 
glide-dock_SP_D22_pv

>  <Molecule ChEMBL ID>  (1084) 
CHEMBL283528

>  <Standard Type>  (1084) 
Ki

>  <Standard Value>  (1084) 
12.0

>  <label>  (1084) 
1

$$$$
CHEMBL2420769
     RDKit          3D

 37 39  0  0  1  0  0  0  0  0999 V2000
   11.7525    8.3994   -4.1007 C   0  0  0  0  0  0  0  0  0  0  0  0
   11.6860    7.0742   -4.5651 C   0  0  0  0  0  0  0  0  0  0  0  0
   11.1621    6.7977   -5.8438 C   0  0  0  0  0  0  0  0  0  0  0  0
   10.6716    7.8289   -6.6803 C   0  0  0  0  0  0  0  0  0  0  0  0
   10.1545    7.5298   -7.9672 N   0  0  0  0  0  0  0  0  0  0  0  0
    9.2801    6.3627   -8.1240 C   0  0  0  0  0  0  0  0  0  0  0  0
    9.1999    5.8953   -9.5976 C   0  0  0  0  0  0  0  0  0  0  0  0
    8.8860    7.0142  -10.5270 N   0  0  0  0  0  0  0  0  0  0  0  0
    8.8860    6.6464  -11.9671 C   0  0  0  0  0  0  0  0  0  0  0  0
    7.9276    5.5785  -12.3852 C   0  0  0  0  0  0  0  0  0  0  0  0
    6.5583    5.5660  -12.2921 C   0  0  0  0  0  0  0  0  0  0  0  0
    5.9643    4.4125  -12.8836 C   0  0  0  0  0  0  0  0  0  0  0  0
    6.8860    3.5722  -13.4469 C   0  0  0  0  0  0  0  0  0  0  0  0
    8.5078    4.1723  -13.2369 S   0  0  0  0  0  0  0  0  0  0  0  0
    9.7800    8.1776  -10.3169 C   0  0  0  0  0  0  0  0  0  0  0  0
    9.8241    8.6361   -8.8576 C   0  0  0  0  0  0  0  0  0  0  0  0
   10.7517    9.1595   -6.1901 C   0  0  0  0  0  0  0  0  0  0  0  0
   11.2860    9.4426   -4.9179 C   0  0  0  0  0  0  0  0  0  0  0  0
   12.1583    8.6148   -3.1227 H   0  0  0  0  0  0  0  0  0  0  0  0
   12.0477    6.2655   -3.9465 H   0  0  0  0  0  0  0  0  0  0  0  0
   11.1682    5.7723   -6.1759 H   0  0  0  0  0  0  0  0  0  0  0  0
    8.2838    6.6332   -7.7707 H   0  0  0  0  0  0  0  0  0  0  0  0
    9.5971    5.5212   -7.5121 H   0  0  0  0  0  0  0  0  0  0  0  0
    8.4422    5.1160   -9.6908 H   0  0  0  0  0  0  0  0  0  0  0  0
   10.1501    5.4465   -9.8867 H   0  0  0  0  0  0  0  0  0  0  0  0
    9.8980    6.3570  -12.2552 H   0  0  0  0  0  0  0  0  0  0  0  0
    8.6540    7.5395  -12.5490 H   0  0  0  0  0  0  0  0  0  0  0  0
    5.9599    6.3467  -11.8469 H   0  0  0  0  0  0  0  0  0  0  0  0
    4.8964    4.2499  -12.8899 H   0  0  0  0  0  0  0  0  0  0  0  0
    6.7146    2.6394  -13.9641 H   0  0  0  0  0  0  0  0  0  0  0  0
   10.7902    7.9205  -10.6407 H   0  0  0  0  0  0  0  0  0  0  0  0
    9.4468    9.0027  -10.9444 H   0  0  0  0  0  0  0  0  0  0  0  0
    8.8656    9.0669   -8.5620 H   0  0  0  0  0  0  0  0  0  0  0  0
   10.5777    9.4200   -8.7908 H   0  0  0  0  0  0  0  0  0  0  0  0
   10.3997    9.9978   -6.7675 H   0  0  0  0  0  0  0  0  0  0  0  0
   11.3257   10.4629   -4.5656 H   0  0  0  0  0  0  0  0  0  0  0  0
    7.9327    7.3303  -10.3006 H   0  0  0  0  0  0  0  0  0  0  0  0
  2  1  2  0
  3  2  1  0
  4  3  2  0
  5  4  1  0
  6  5  1  0
  7  6  1  0
  8  7  1  0
  9  8  1  0
 10  9  1  0
 11 10  2  0
 12 11  1  0
 13 12  2  0
 14 10  1  0
 14 13  1  0
 15  8  1  0
 16  5  1  0
 16 15  1  0
 17  4  1  0
 18  1  1  0
 18 17  2  0
 19  1  1  0
 20  2  1  0
 21  3  1  0
 22  6  1  0
 23  6  1  0
 24  7  1  0
 25  7  1  0
 26  9  1  0
 27  9  1  0
 28 11  1  0
 29 12  1  0
 30 13  1  0
 31 15  1  0
 32 15  1  0
 33 16  1  0
 34 16  1  0
 35 17  1  0
 36 18  1  0
 37  8  1  0
M  CHG  1   8   1
M  END
>  <b_m_subgroup_collapsed>  (1085) 
0

>  <r_i_docking_score>  (1085) 
-6.7705683409133499

>  <s_m_subgroup_title>  (1085) 
glide-dock_SP_D22_pv

>  <s_m_subgroupid>  (1085) 
glide-dock_SP_D22_pv

>  <Molecule ChEMBL ID>  (1085) 
CHEMBL2420769

>  <Standard Type>  (1085) 
Ki

>  <Standard Value>  (1085) 
10000.0

>  <label>  (1085) 
0

$$$$
CHEMBL1081254
     RDKit          3D

 61 65  0  0  1  0  0  0  0  0999 V2000
   12.3864    8.7495   -2.1669 C   0  0  0  0  0  0  0  0  0  0  0  0
   11.9742    9.5582   -3.2577 O   0  0  0  0  0  0  0  0  0  0  0  0
   11.5901    8.9302   -4.4223 C   0  0  0  0  0  0  0  0  0  0  0  0
   11.0439    9.7359   -5.4403 C   0  0  0  0  0  0  0  0  0  0  0  0
   10.5949    9.1573   -6.6436 C   0  0  0  0  0  0  0  0  0  0  0  0
   10.6957    7.7757   -6.8858 C   0  0  0  0  0  0  0  0  0  0  0  0
   10.2257    7.2034   -8.1674 C   0  0  0  0  0  0  0  0  0  0  0  0
    9.6761    5.9071   -8.2076 C   0  0  0  0  0  0  0  0  0  0  0  0
    9.2611    5.3175   -9.4139 C   0  0  0  0  0  0  0  0  0  0  0  0
    9.3633    6.0262  -10.6276 C   0  0  0  0  0  0  0  0  0  0  0  0
    8.8780    5.3776  -11.8992 C   0  0  0  0  0  0  0  0  0  0  0  0
    7.8295    4.7328  -11.8573 O   0  0  0  0  0  0  0  0  0  0  0  0
    9.6161    5.4791  -13.0385 N   0  0  0  0  0  0  0  0  0  0  0  0
   10.9846    6.0076  -13.1816 C   0  0  0  0  0  0  0  0  0  0  0  0
   11.9353    4.9506  -13.7729 C   0  0  0  0  0  0  0  0  0  0  0  0
   11.3973    4.3060  -14.9828 N   0  0  0  0  0  0  0  0  0  0  0  0
   12.1062    4.3085  -16.1439 C   0  0  0  0  0  0  0  0  0  0  0  0
   13.1262    4.9780  -16.3100 O   0  0  0  0  0  0  0  0  0  0  0  0
   11.6375    3.4381  -17.2731 C   0  0  0  0  0  0  0  0  0  0  0  0
   11.3486    4.0117  -18.5298 C   0  0  0  0  0  0  0  0  0  0  0  0
   10.9154    3.2075  -19.6029 C   0  0  0  0  0  0  0  0  0  0  0  0
   10.7745    1.8097  -19.4570 C   0  0  0  0  0  0  0  0  0  0  0  0
   10.3623    0.7410  -20.3240 C   0  0  0  0  0  0  0  0  0  0  0  0
   10.4398   -0.4133  -19.5908 C   0  0  0  0  0  0  0  0  0  0  0  0
   10.8841   -0.1099  -18.3144 N   0  0  0  0  0  0  0  0  0  0  0  0
   11.0984    1.2479  -18.1858 C   0  0  0  0  0  0  0  0  0  0  0  0
   11.5325    2.0407  -17.1099 C   0  0  0  0  0  0  0  0  0  0  0  0
   10.0099    3.8144  -14.8289 C   0  0  1  0  0  0  0  0  0  0  0  0
    9.9340    2.5618  -13.9410 C   0  0  0  0  0  0  0  0  0  0  0  0
    9.1191    4.9621  -14.3196 C   0  0  0  0  0  0  0  0  0  0  0  0
    9.8292    7.3618  -10.5899 C   0  0  0  0  0  0  0  0  0  0  0  0
   10.2828    7.9271   -9.3814 C   0  0  0  0  0  0  0  0  0  0  0  0
   11.2511    6.9727   -5.8629 C   0  0  0  0  0  0  0  0  0  0  0  0
   11.6861    7.5356   -4.6458 C   0  0  0  0  0  0  0  0  0  0  0  0
   12.6197    9.3823   -1.3124 H   0  0  0  0  0  0  0  0  0  0  0  0
   11.5965    8.0615   -1.8627 H   0  0  0  0  0  0  0  0  0  0  0  0
   13.2810    8.1784   -2.4139 H   0  0  0  0  0  0  0  0  0  0  0  0
   10.9484   10.8007   -5.2893 H   0  0  0  0  0  0  0  0  0  0  0  0
   10.1431    9.7726   -7.4008 H   0  0  0  0  0  0  0  0  0  0  0  0
    9.5566    5.3651   -7.2870 H   0  0  0  0  0  0  0  0  0  0  0  0
    8.8456    4.3200   -9.4016 H   0  0  0  0  0  0  0  0  0  0  0  0
   10.9747    6.8723  -13.8428 H   0  0  0  0  0  0  0  0  0  0  0  0
   11.4227    6.3529  -12.2499 H   0  0  0  0  0  0  0  0  0  0  0  0
   12.8946    5.4323  -13.9452 H   0  0  0  0  0  0  0  0  0  0  0  0
   12.1390    4.1723  -13.0466 H   0  0  0  0  0  0  0  0  0  0  0  0
   11.4513    5.0782  -18.6704 H   0  0  0  0  0  0  0  0  0  0  0  0
   10.6898    3.6658  -20.5537 H   0  0  0  0  0  0  0  0  0  0  0  0
   10.0525    0.8405  -21.3539 H   0  0  0  0  0  0  0  0  0  0  0  0
   10.2097   -1.4276  -19.8785 H   0  0  0  0  0  0  0  0  0  0  0  0
   11.0093   -0.8027  -17.5897 H   0  0  0  0  0  0  0  0  0  0  0  0
   11.7949    1.5737  -16.1718 H   0  0  0  0  0  0  0  0  0  0  0  0
    9.5916    3.5348  -15.7968 H   0  0  0  0  0  0  0  0  0  0  0  0
    8.9192    2.1651  -13.9175 H   0  0  0  0  0  0  0  0  0  0  0  0
   10.5855    1.7676  -14.2972 H   0  0  0  0  0  0  0  0  0  0  0  0
   10.2143    2.7801  -12.9135 H   0  0  0  0  0  0  0  0  0  0  0  0
    8.0808    4.6285  -14.2689 H   0  0  0  0  0  0  0  0  0  0  0  0
    9.1187    5.7700  -15.0465 H   0  0  0  0  0  0  0  0  0  0  0  0
    9.8568    7.9566  -11.4905 H   0  0  0  0  0  0  0  0  0  0  0  0
   10.6764    8.9335   -9.4010 H   0  0  0  0  0  0  0  0  0  0  0  0
   11.3547    5.9077   -6.0072 H   0  0  0  0  0  0  0  0  0  0  0  0
   12.0920    6.8686   -3.8987 H   0  0  0  0  0  0  0  0  0  0  0  0
  2  1  1  0
  3  2  1  0
  4  3  1  0
  5  4  2  0
  6  5  1  0
  7  6  1  0
  8  7  1  0
  9  8  2  0
 10  9  1  0
 11 10  1  0
 12 11  2  0
 13 11  1  0
 14 13  1  0
 15 14  1  0
 16 15  1  0
 17 16  1  0
 18 17  2  0
 19 17  1  0
 20 19  2  0
 21 20  1  0
 22 21  2  0
 23 22  1  0
 24 23  2  0
 25 24  1  0
 26 22  1  0
 26 25  1  0
 27 19  1  0
 27 26  2  0
 28 16  1  0
 29 28  1  0
 30 13  1  0
 30 28  1  0
 31 10  2  0
 32  7  2  0
 32 31  1  0
 33  6  2  0
 34  3  2  0
 34 33  1  0
 35  1  1  0
 36  1  1  0
 37  1  1  0
 38  4  1  0
 39  5  1  0
 40  8  1  0
 41  9  1  0
 42 14  1  0
 43 14  1  0
 44 15  1  0
 45 15  1  0
 46 20  1  0
 47 21  1  0
 48 23  1  0
 49 24  1  0
 50 25  1  0
 51 27  1  0
 28 52  1  6
 53 29  1  0
 54 29  1  0
 55 29  1  0
 56 30  1  0
 57 30  1  0
 58 31  1  0
 59 32  1  0
 60 33  1  0
 61 34  1  0
M  END
>  <b_m_subgroup_collapsed>  (1086) 
0

>  <r_i_docking_score>  (1086) 
-6.7664732594009296

>  <s_m_subgroup_title>  (1086) 
glide-dock_SP_D22_pv

>  <s_m_subgroupid>  (1086) 
glide-dock_SP_D22_pv

>  <Molecule ChEMBL ID>  (1086) 
CHEMBL1081254

>  <Standard Type>  (1086) 
Ki

>  <Standard Value>  (1086) 
10000.0

>  <label>  (1086) 
0

$$$$
CHEMBL3936289
     RDKit          3D

 50 53  0  0  1  0  0  0  0  0999 V2000
    9.1415    5.7549  -13.2453 C   0  0  0  0  0  0  0  0  0  0  0  0
    9.4154    5.6131  -11.7980 N   0  0  2  0  0  0  0  0  0  0  0  0
    8.2285    5.0453  -11.1046 C   0  0  0  0  0  0  0  0  0  0  0  0
    8.5278    4.7911   -9.6271 C   0  0  0  0  0  0  0  0  0  0  0  0
    8.8779    6.1212   -8.9696 C   0  0  1  0  0  0  0  0  0  0  0  0
    8.9611    5.9983   -7.4502 C   0  0  0  0  0  0  0  0  0  0  0  0
    9.5395    7.2846   -6.9049 C   0  0  0  0  0  0  0  0  0  0  0  0
    8.8880    8.0845   -6.2480 O   0  0  0  0  0  0  0  0  0  0  0  0
   10.9514    7.5891   -7.3797 C   0  0  2  0  0  0  0  0  0  0  0  0
   11.5667    8.7549   -6.5698 C   0  0  0  0  0  0  0  0  0  0  0  0
   11.6766    8.5320   -5.0604 C   0  0  0  0  0  0  0  0  0  0  0  0
   11.7596    9.6664   -4.2373 C   0  0  0  0  0  0  0  0  0  0  0  0
   11.9931    9.5324   -2.8591 C   0  0  0  0  0  0  0  0  0  0  0  0
   12.0869    8.2564   -2.2775 C   0  0  0  0  0  0  0  0  0  0  0  0
   11.9463    7.1092   -3.0809 C   0  0  0  0  0  0  0  0  0  0  0  0
   11.7431    7.2456   -4.4689 C   0  0  0  0  0  0  0  0  0  0  0  0
   10.8203    7.8342   -8.9031 C   0  0  1  0  0  0  0  0  0  0  0  0
   12.1564    8.1773   -9.5739 C   0  0  0  0  0  0  0  0  0  0  0  0
   11.9145    8.5134  -11.0382 C   0  0  0  0  0  0  0  0  0  0  0  0
   11.2456    7.3739  -11.8197 C   0  0  0  0  0  0  0  0  0  0  0  0
    9.9477    6.8555  -11.1429 C   0  0  2  0  0  0  0  0  0  0  0  0
   10.1868    6.6087   -9.6263 C   0  0  2  0  0  0  0  0  0  0  0  0
    8.4188    6.5543  -13.4181 H   0  0  0  0  0  0  0  0  0  0  0  0
    8.7250    4.8324  -13.6533 H   0  0  0  0  0  0  0  0  0  0  0  0
   10.0528    5.9570  -13.8073 H   0  0  0  0  0  0  0  0  0  0  0  0
    7.3786    5.7246  -11.2016 H   0  0  0  0  0  0  0  0  0  0  0  0
    7.9352    4.1084  -11.5782 H   0  0  0  0  0  0  0  0  0  0  0  0
    7.6870    4.3159   -9.1346 H   0  0  0  0  0  0  0  0  0  0  0  0
    9.3592    4.0940   -9.5171 H   0  0  0  0  0  0  0  0  0  0  0  0
    8.0862    6.8384   -9.1750 H   0  0  0  0  0  0  0  0  0  0  0  0
    7.9828    5.7992   -7.0106 H   0  0  0  0  0  0  0  0  0  0  0  0
    9.6357    5.1891   -7.1888 H   0  0  0  0  0  0  0  0  0  0  0  0
   11.5612    6.6981   -7.2285 H   0  0  0  0  0  0  0  0  0  0  0  0
   12.5757    8.9687   -6.9180 H   0  0  0  0  0  0  0  0  0  0  0  0
   10.9947    9.6664   -6.7521 H   0  0  0  0  0  0  0  0  0  0  0  0
   11.6696   10.6392   -4.6865 H   0  0  0  0  0  0  0  0  0  0  0  0
   12.0871   10.4153   -2.2458 H   0  0  0  0  0  0  0  0  0  0  0  0
   12.2545    8.1723   -1.2151 H   0  0  0  0  0  0  0  0  0  0  0  0
   12.0075    6.1255   -2.6389 H   0  0  0  0  0  0  0  0  0  0  0  0
   11.6734    6.3498   -5.0674 H   0  0  0  0  0  0  0  0  0  0  0  0
   10.1555    8.6907   -9.0413 H   0  0  0  0  0  0  0  0  0  0  0  0
   12.6105    9.0401   -9.0962 H   0  0  0  0  0  0  0  0  0  0  0  0
   12.8788    7.3725   -9.4784 H   0  0  0  0  0  0  0  0  0  0  0  0
   11.2495    9.3692  -11.0466 H   0  0  0  0  0  0  0  0  0  0  0  0
   12.8492    8.8156  -11.5126 H   0  0  0  0  0  0  0  0  0  0  0  0
   11.0239    7.7389  -12.8215 H   0  0  0  0  0  0  0  0  0  0  0  0
   11.9719    6.5792  -11.9543 H   0  0  0  0  0  0  0  0  0  0  0  0
    9.1863    7.6331  -11.2391 H   0  0  0  0  0  0  0  0  0  0  0  0
   10.8912    5.7903   -9.5208 H   0  0  0  0  0  0  0  0  0  0  0  0
   10.1357    4.9117  -11.7110 H   0  0  0  0  0  0  0  0  0  0  0  0
  2  1  1  0
  3  2  1  0
  4  3  1  0
  5  4  1  0
  6  5  1  0
  7  6  1  0
  8  7  2  0
  9  7  1  0
 10  9  1  0
 11 10  1  0
 12 11  2  0
 13 12  1  0
 14 13  2  0
 15 14  1  0
 16 11  1  0
 16 15  2  0
 17  9  1  0
 18 17  1  0
 19 18  1  0
 20 19  1  0
 21  2  1  0
 21 20  1  0
 22  5  1  0
 22 17  1  0
 22 21  1  0
 23  1  1  0
 24  1  1  0
 25  1  1  0
 26  3  1  0
 27  3  1  0
 28  4  1  0
 29  4  1  0
  5 30  1  1
 31  6  1  0
 32  6  1  0
  9 33  1  6
 34 10  1  0
 35 10  1  0
 36 12  1  0
 37 13  1  0
 38 14  1  0
 39 15  1  0
 40 16  1  0
 17 41  1  1
 42 18  1  0
 43 18  1  0
 44 19  1  0
 45 19  1  0
 46 20  1  0
 47 20  1  0
 21 48  1  1
 22 49  1  6
  2 50  1  6
M  CHG  1   2   1
M  END
>  <b_m_subgroup_collapsed>  (1087) 
0

>  <r_i_docking_score>  (1087) 
-6.7661109829112798

>  <s_m_subgroup_title>  (1087) 
glide-dock_SP_D22_pv

>  <s_m_subgroupid>  (1087) 
glide-dock_SP_D22_pv

>  <Molecule ChEMBL ID>  (1087) 
CHEMBL3936289

>  <Standard Type>  (1087) 
Ki

>  <Standard Value>  (1087) 
10000.0

>  <label>  (1087) 
0

$$$$
CHEMBL5909593
     RDKit          3D

 56 57  0  0  1  0  0  0  0  0999 V2000
    6.2889    2.0277  -14.0311 C   0  0  0  0  0  0  0  0  0  0  0  0
    7.3199    2.9706  -14.2825 O   0  0  0  0  0  0  0  0  0  0  0  0
    8.6138    2.3808  -14.3728 C   0  0  0  0  0  0  0  0  0  0  0  0
    9.7526    3.3995  -14.6711 C   0  0  0  0  0  0  0  0  0  0  0  0
   11.0800    2.6039  -14.6510 C   0  0  0  0  0  0  0  0  0  0  0  0
    9.6030    4.0309  -16.0704 C   0  0  0  0  0  0  0  0  0  0  0  0
    9.8103    4.5444  -13.6270 C   0  0  0  0  0  0  0  0  0  0  0  0
   10.8916    5.0311  -13.2965 O   0  0  0  0  0  0  0  0  0  0  0  0
    8.6513    5.0039  -13.1265 N   0  0  0  0  0  0  0  0  0  0  0  0
    8.5360    6.0596  -12.1282 C   0  0  0  0  0  0  0  0  0  0  0  0
    8.7398    5.4723  -10.7192 C   0  0  0  0  0  0  0  0  0  0  0  0
    8.8860    6.4912   -9.6476 N   0  0  2  0  0  0  0  0  0  0  0  0
   10.1611    7.2557   -9.7825 C   0  0  0  0  0  0  0  0  0  0  0  0
   10.4435    8.1796   -8.5916 C   0  0  0  0  0  0  0  0  0  0  0  0
   10.4272    7.3726   -7.2866 C   0  0  1  0  0  0  0  0  0  0  0  0
   10.8802    8.1387   -6.0526 C   0  0  0  0  0  0  0  0  0  0  0  0
   10.8538    9.5473   -5.9831 C   0  0  0  0  0  0  0  0  0  0  0  0
   11.2838   10.1704   -4.8012 C   0  0  0  0  0  0  0  0  0  0  0  0
   11.7578    9.3720   -3.7436 C   0  0  0  0  0  0  0  0  0  0  0  0
   11.7562    7.9737   -3.9098 C   0  0  0  0  0  0  0  0  0  0  0  0
   12.2609    7.0586   -2.8153 C   0  0  0  0  0  0  0  0  0  0  0  0
   11.3146    7.3677   -5.0322 N   0  0  0  0  0  0  0  0  0  0  0  0
    9.0234    6.7787   -7.1314 C   0  0  0  0  0  0  0  0  0  0  0  0
    8.7128    5.8456   -8.3128 C   0  0  0  0  0  0  0  0  0  0  0  0
    5.3510    2.5528  -13.8509 H   0  0  0  0  0  0  0  0  0  0  0  0
    6.1543    1.3631  -14.8850 H   0  0  0  0  0  0  0  0  0  0  0  0
    6.4842    1.4183  -13.1500 H   0  0  0  0  0  0  0  0  0  0  0  0
    8.5952    1.6192  -15.1543 H   0  0  0  0  0  0  0  0  0  0  0  0
    8.8433    1.8552  -13.4477 H   0  0  0  0  0  0  0  0  0  0  0  0
   11.0713    1.8020  -15.3895 H   0  0  0  0  0  0  0  0  0  0  0  0
   11.9423    3.2337  -14.8762 H   0  0  0  0  0  0  0  0  0  0  0  0
   11.2569    2.1435  -13.6786 H   0  0  0  0  0  0  0  0  0  0  0  0
    9.2812    3.2980  -16.8103 H   0  0  0  0  0  0  0  0  0  0  0  0
    8.8864    4.8496  -16.0734 H   0  0  0  0  0  0  0  0  0  0  0  0
   10.5461    4.4528  -16.4196 H   0  0  0  0  0  0  0  0  0  0  0  0
    7.8041    4.5436  -13.4424 H   0  0  0  0  0  0  0  0  0  0  0  0
    7.5491    6.5186  -12.2048 H   0  0  0  0  0  0  0  0  0  0  0  0
    9.2562    6.8413  -12.3652 H   0  0  0  0  0  0  0  0  0  0  0  0
    9.6110    4.8140  -10.6992 H   0  0  0  0  0  0  0  0  0  0  0  0
    7.8775    4.8394  -10.4974 H   0  0  0  0  0  0  0  0  0  0  0  0
   10.1452    7.8639  -10.6857 H   0  0  0  0  0  0  0  0  0  0  0  0
   10.9872    6.5555   -9.8920 H   0  0  0  0  0  0  0  0  0  0  0  0
    9.7010    8.9788   -8.5635 H   0  0  0  0  0  0  0  0  0  0  0  0
   11.4159    8.6548   -8.7294 H   0  0  0  0  0  0  0  0  0  0  0  0
   11.1366    6.5497   -7.3968 H   0  0  0  0  0  0  0  0  0  0  0  0
   10.5028   10.1534   -6.8018 H   0  0  0  0  0  0  0  0  0  0  0  0
   11.2557   11.2443   -4.7188 H   0  0  0  0  0  0  0  0  0  0  0  0
   12.1096    9.8271   -2.8283 H   0  0  0  0  0  0  0  0  0  0  0  0
   12.2660    7.5656   -1.8504 H   0  0  0  0  0  0  0  0  0  0  0  0
   11.6296    6.1737   -2.7299 H   0  0  0  0  0  0  0  0  0  0  0  0
   13.2771    6.7377   -3.0441 H   0  0  0  0  0  0  0  0  0  0  0  0
    8.9577    6.2096   -6.2040 H   0  0  0  0  0  0  0  0  0  0  0  0
    8.2764    7.5712   -7.0566 H   0  0  0  0  0  0  0  0  0  0  0  0
    7.6888    5.4780   -8.2189 H   0  0  0  0  0  0  0  0  0  0  0  0
    9.3643    4.9717   -8.2518 H   0  0  0  0  0  0  0  0  0  0  0  0
    8.1099    7.1421   -9.7545 H   0  0  0  0  0  0  0  0  0  0  0  0
  2  1  1  0
  3  2  1  0
  4  3  1  0
  5  4  1  0
  6  4  1  0
  7  4  1  0
  8  7  2  0
  9  7  1  0
 10  9  1  0
 11 10  1  0
 12 11  1  0
 13 12  1  0
 14 13  1  0
 15 14  1  0
 16 15  1  0
 17 16  2  0
 18 17  1  0
 19 18  2  0
 20 19  1  0
 21 20  1  0
 22 16  1  0
 22 20  2  0
 23 15  1  0
 24 12  1  0
 24 23  1  0
 25  1  1  0
 26  1  1  0
 27  1  1  0
 28  3  1  0
 29  3  1  0
 30  5  1  0
 31  5  1  0
 32  5  1  0
 33  6  1  0
 34  6  1  0
 35  6  1  0
 36  9  1  0
 37 10  1  0
 38 10  1  0
 39 11  1  0
 40 11  1  0
 41 13  1  0
 42 13  1  0
 43 14  1  0
 44 14  1  0
 15 45  1  6
 46 17  1  0
 47 18  1  0
 48 19  1  0
 49 21  1  0
 50 21  1  0
 51 21  1  0
 52 23  1  0
 53 23  1  0
 54 24  1  0
 55 24  1  0
 12 56  1  6
M  CHG  1  12   1
M  END
>  <b_m_subgroup_collapsed>  (1088) 
0

>  <r_i_docking_score>  (1088) 
-6.76481609818949

>  <s_m_subgroup_title>  (1088) 
glide-dock_SP_D22_pv

>  <s_m_subgroupid>  (1088) 
glide-dock_SP_D22_pv

>  <Molecule ChEMBL ID>  (1088) 
CHEMBL5909593

>  <Standard Type>  (1088) 
Ki

>  <Standard Value>  (1088) 
80.0

>  <label>  (1088) 
1

$$$$
CHEMBL325109
     RDKit          3D

 50 52  0  0  1  0  0  0  0  0999 V2000
   12.0349    3.7717  -14.9626 C   0  0  0  0  0  0  0  0  0  0  0  0
   11.5052    4.5122  -13.8734 O   0  0  0  0  0  0  0  0  0  0  0  0
   10.1483    4.4407  -13.6261 C   0  0  0  0  0  0  0  0  0  0  0  0
    9.3330    3.4160  -14.1697 C   0  0  0  0  0  0  0  0  0  0  0  0
    7.9558    3.3607  -13.8890 C   0  0  0  0  0  0  0  0  0  0  0  0
    7.1815    2.3436  -14.4505 N   0  0  0  0  0  0  0  0  0  0  0  0
    7.3725    4.3264  -13.0459 C   0  0  0  0  0  0  0  0  0  0  0  0
    5.6880    4.2634  -12.6684 Cl  0  0  0  0  0  0  0  0  0  0  0  0
    8.1675    5.3525  -12.5055 C   0  0  0  0  0  0  0  0  0  0  0  0
    9.5546    5.4205  -12.7847 C   0  0  0  0  0  0  0  0  0  0  0  0
   10.3626    6.5725  -12.2462 C   0  0  0  0  0  0  0  0  0  0  0  0
   11.2937    7.0629  -12.8840 O   0  0  0  0  0  0  0  0  0  0  0  0
   10.0105    7.0077  -11.0277 N   0  0  0  0  0  0  0  0  0  0  0  0
   10.5188    8.2262  -10.4069 C   0  0  0  0  0  0  0  0  0  0  0  0
   11.7638    7.9968   -9.5308 C   0  0  0  0  0  0  0  0  0  0  0  0
   11.4166    7.3858   -8.1625 C   0  0  0  0  0  0  0  0  0  0  0  0
   10.4154    8.1988   -7.4686 N   0  0  0  0  0  0  0  0  0  0  0  0
   10.1225    7.5933   -6.1739 C   0  0  0  0  0  0  0  0  0  0  0  0
   11.1013    7.9211   -5.0523 C   0  0  0  0  0  0  0  0  0  0  0  0
   11.2855    9.2614   -4.6482 C   0  0  0  0  0  0  0  0  0  0  0  0
   11.9617    9.5502   -3.4464 C   0  0  0  0  0  0  0  0  0  0  0  0
   12.4861    8.5070   -2.6633 C   0  0  0  0  0  0  0  0  0  0  0  0
   12.3681    7.1737   -3.0972 C   0  0  0  0  0  0  0  0  0  0  0  0
   11.6815    6.8830   -4.2920 C   0  0  0  0  0  0  0  0  0  0  0  0
    9.1771    8.2146   -8.2537 C   0  0  0  0  0  0  0  0  0  0  0  0
    9.4103    8.9045   -9.6055 C   0  0  0  0  0  0  0  0  0  0  0  0
   13.0758    4.0560  -15.1167 H   0  0  0  0  0  0  0  0  0  0  0  0
   12.0097    2.7000  -14.7664 H   0  0  0  0  0  0  0  0  0  0  0  0
   11.4958    3.9808  -15.8878 H   0  0  0  0  0  0  0  0  0  0  0  0
    9.7507    2.6531  -14.8077 H   0  0  0  0  0  0  0  0  0  0  0  0
    7.6276    1.5307  -14.8507 H   0  0  0  0  0  0  0  0  0  0  0  0
    6.2378    2.2022  -14.1179 H   0  0  0  0  0  0  0  0  0  0  0  0
    7.6895    6.0965  -11.8822 H   0  0  0  0  0  0  0  0  0  0  0  0
    9.2381    6.5488  -10.5664 H   0  0  0  0  0  0  0  0  0  0  0  0
   10.7945    8.9167  -11.1979 H   0  0  0  0  0  0  0  0  0  0  0  0
   12.2585    8.9554   -9.3667 H   0  0  0  0  0  0  0  0  0  0  0  0
   12.4862    7.3722  -10.0562 H   0  0  0  0  0  0  0  0  0  0  0  0
   12.3189    7.3209   -7.5552 H   0  0  0  0  0  0  0  0  0  0  0  0
   11.0463    6.3675   -8.2957 H   0  0  0  0  0  0  0  0  0  0  0  0
   10.0052    6.5123   -6.2707 H   0  0  0  0  0  0  0  0  0  0  0  0
    9.1508    7.9602   -5.8470 H   0  0  0  0  0  0  0  0  0  0  0  0
   10.8351   10.0617   -5.2173 H   0  0  0  0  0  0  0  0  0  0  0  0
   12.0515   10.5701   -3.0973 H   0  0  0  0  0  0  0  0  0  0  0  0
   12.9916    8.7349   -1.7364 H   0  0  0  0  0  0  0  0  0  0  0  0
   12.7763    6.3697   -2.5022 H   0  0  0  0  0  0  0  0  0  0  0  0
   11.5387    5.8528   -4.5846 H   0  0  0  0  0  0  0  0  0  0  0  0
    8.7969    7.2017   -8.3998 H   0  0  0  0  0  0  0  0  0  0  0  0
    8.4048    8.7647   -7.7139 H   0  0  0  0  0  0  0  0  0  0  0  0
    9.6996    9.9362   -9.4469 H   0  0  0  0  0  0  0  0  0  0  0  0
    8.4861    8.9441  -10.1826 H   0  0  0  0  0  0  0  0  0  0  0  0
  2  1  1  0
  3  2  1  0
  4  3  1  0
  5  4  2  0
  6  5  1  0
  7  5  1  0
  8  7  1  0
  9  7  2  0
 10  3  2  0
 10  9  1  0
 11 10  1  0
 12 11  2  0
 13 11  1  0
 14 13  1  0
 15 14  1  0
 16 15  1  0
 17 16  1  0
 18 17  1  0
 19 18  1  0
 20 19  2  0
 21 20  1  0
 22 21  2  0
 23 22  1  0
 24 19  1  0
 24 23  2  0
 25 17  1  0
 26 14  1  0
 26 25  1  0
 27  1  1  0
 28  1  1  0
 29  1  1  0
 30  4  1  0
 31  6  1  0
 32  6  1  0
 33  9  1  0
 34 13  1  0
 35 14  1  0
 36 15  1  0
 37 15  1  0
 38 16  1  0
 39 16  1  0
 40 18  1  0
 41 18  1  0
 42 20  1  0
 43 21  1  0
 44 22  1  0
 45 23  1  0
 46 24  1  0
 47 25  1  0
 48 25  1  0
 49 26  1  0
 50 26  1  0
M  END
>  <b_m_subgroup_collapsed>  (1089) 
0

>  <r_i_docking_score>  (1089) 
-6.7634717186483

>  <s_m_subgroup_title>  (1089) 
glide-dock_SP_D22_pv

>  <s_m_subgroupid>  (1089) 
glide-dock_SP_D22_pv

>  <Molecule ChEMBL ID>  (1089) 
CHEMBL325109

>  <Standard Type>  (1089) 
Ki

>  <Standard Value>  (1089) 
12.0

>  <label>  (1089) 
1

$$$$
CHEMBL540285
     RDKit          3D

 44 45  0  0  1  0  0  0  0  0999 V2000
    8.5435    8.7959  -12.1678 C   0  0  0  0  0  0  0  0  0  0  0  0
    8.3969    7.2651  -12.1781 C   0  0  0  0  0  0  0  0  0  0  0  0
    8.8861    6.5804  -10.9505 N   0  0  0  0  0  0  0  0  0  0  0  0
    8.6589    5.1043  -11.0119 C   0  0  0  0  0  0  0  0  0  0  0  0
    9.3873    4.3968  -12.1741 C   0  0  0  0  0  0  0  0  0  0  0  0
   10.2754    6.9579  -10.5429 C   0  0  0  0  0  0  0  0  0  0  0  0
   10.7090    6.5068   -9.1222 C   0  0  0  0  0  0  0  0  0  0  0  0
    9.8247    6.9111   -7.9206 C   0  0  1  0  0  0  0  0  0  0  0  0
    8.5577    6.0552   -7.7475 C   0  0  0  0  0  0  0  0  0  0  0  0
   10.5844    6.7423   -6.7205 O   0  0  0  0  0  0  0  0  0  0  0  0
   10.7015    7.9547   -6.0825 C   0  0  0  0  0  0  0  0  0  0  0  0
   11.3545    8.0541   -4.7724 C   0  0  0  0  0  0  0  0  0  0  0  0
   11.6869    6.8730   -4.0800 C   0  0  0  0  0  0  0  0  0  0  0  0
   12.2382    6.9432   -2.7848 C   0  0  0  0  0  0  0  0  0  0  0  0
   12.4552    8.1956   -2.1813 C   0  0  0  0  0  0  0  0  0  0  0  0
   12.1054    9.3723   -2.8654 C   0  0  0  0  0  0  0  0  0  0  0  0
   11.5719    9.3086   -4.1641 C   0  0  0  0  0  0  0  0  0  0  0  0
   10.1395    8.9634   -6.7522 C   0  0  0  0  0  0  0  0  0  0  0  0
    9.5241    8.3977   -7.9157 C   0  0  0  0  0  0  0  0  0  0  0  0
    8.8864    8.9787   -8.7829 O   0  0  0  0  0  0  0  0  0  0  0  0
    8.0815    9.2414  -13.0429 H   0  0  0  0  0  0  0  0  0  0  0  0
    8.0851    9.2511  -11.2883 H   0  0  0  0  0  0  0  0  0  0  0  0
    9.5870    9.0959  -12.2076 H   0  0  0  0  0  0  0  0  0  0  0  0
    8.9165    6.8718  -13.0459 H   0  0  0  0  0  0  0  0  0  0  0  0
    7.3414    7.0207  -12.3036 H   0  0  0  0  0  0  0  0  0  0  0  0
    8.9637    4.6360  -10.0783 H   0  0  0  0  0  0  0  0  0  0  0  0
    7.5860    4.9182  -11.0887 H   0  0  0  0  0  0  0  0  0  0  0  0
    9.2874    3.3180  -12.0901 H   0  0  0  0  0  0  0  0  0  0  0  0
    8.9723    4.6676  -13.1438 H   0  0  0  0  0  0  0  0  0  0  0  0
   10.4565    4.6058  -12.1949 H   0  0  0  0  0  0  0  0  0  0  0  0
   10.4114    8.0371  -10.5782 H   0  0  0  0  0  0  0  0  0  0  0  0
   10.9797    6.5749  -11.2815 H   0  0  0  0  0  0  0  0  0  0  0  0
   11.6847    6.9704   -8.9594 H   0  0  0  0  0  0  0  0  0  0  0  0
   10.8858    5.4337   -9.0816 H   0  0  0  0  0  0  0  0  0  0  0  0
    7.8588    6.1722   -8.5733 H   0  0  0  0  0  0  0  0  0  0  0  0
    8.8116    4.9973   -7.6957 H   0  0  0  0  0  0  0  0  0  0  0  0
    8.0293    6.3187   -6.8288 H   0  0  0  0  0  0  0  0  0  0  0  0
   11.5015    5.9055   -4.5267 H   0  0  0  0  0  0  0  0  0  0  0  0
   12.4856    6.0347   -2.2576 H   0  0  0  0  0  0  0  0  0  0  0  0
   12.8696    8.2546   -1.1873 H   0  0  0  0  0  0  0  0  0  0  0  0
   12.2508   10.3323   -2.3956 H   0  0  0  0  0  0  0  0  0  0  0  0
   11.3145   10.2303   -4.6634 H   0  0  0  0  0  0  0  0  0  0  0  0
   10.0887   10.0049   -6.4847 H   0  0  0  0  0  0  0  0  0  0  0  0
    8.2567    6.9421  -10.2401 H   0  0  0  0  0  0  0  0  0  0  0  0
  2  1  1  0
  3  2  1  0
  4  3  1  0
  5  4  1  0
  6  3  1  0
  7  6  1  0
  8  7  1  6
  9  8  1  0
 10  8  1  0
 11 10  1  0
 12 11  1  0
 13 12  2  0
 14 13  1  0
 15 14  2  0
 16 15  1  0
 17 12  1  0
 17 16  2  0
 18 11  2  0
 19  8  1  0
 19 18  1  0
 20 19  2  0
 21  1  1  0
 22  1  1  0
 23  1  1  0
 24  2  1  0
 25  2  1  0
 26  4  1  0
 27  4  1  0
 28  5  1  0
 29  5  1  0
 30  5  1  0
 31  6  1  0
 32  6  1  0
 33  7  1  0
 34  7  1  0
 35  9  1  0
 36  9  1  0
 37  9  1  0
 38 13  1  0
 39 14  1  0
 40 15  1  0
 41 16  1  0
 42 17  1  0
 43 18  1  0
 44  3  1  0
M  CHG  1   3   1
M  END
>  <b_m_subgroup_collapsed>  (1090) 
0

>  <r_i_docking_score>  (1090) 
-6.7596842946422999

>  <s_m_subgroup_title>  (1090) 
glide-dock_SP_D22_pv

>  <s_m_subgroupid>  (1090) 
glide-dock_SP_D22_pv

>  <Molecule ChEMBL ID>  (1090) 
CHEMBL540285

>  <Standard Type>  (1090) 
Ki

>  <Standard Value>  (1090) 
10000.0

>  <label>  (1090) 
0

$$$$
CHEMBL1224698
     RDKit          3D

 57 60  0  0  1  0  0  0  0  0999 V2000
    9.6910   -0.1573  -16.0629 C   0  0  0  0  0  0  0  0  0  0  0  0
    9.0720    0.8369  -15.4056 C   0  0  0  0  0  0  0  0  0  0  0  0
    9.0629    2.2825  -15.8684 C   0  0  0  0  0  0  0  0  0  0  0  0
    9.9061    3.1178  -14.9811 N   0  0  1  0  0  0  0  0  0  0  0  0
   11.2867    2.6101  -14.7979 C   0  0  0  0  0  0  0  0  0  0  0  0
   12.1128    3.8112  -14.4163 C   0  0  1  0  0  0  0  0  0  0  0  0
   12.6319    4.8356  -15.3912 C   0  0  0  0  0  0  0  0  0  0  0  0
   11.2931    5.0326  -14.6989 C   0  0  2  0  0  0  0  0  0  0  0  0
   11.0880    5.9064  -13.4830 C   0  0  0  0  0  0  0  0  0  0  0  0
    9.9367    5.7783  -12.6729 C   0  0  0  0  0  0  0  0  0  0  0  0
    9.7956    6.5325  -11.4966 C   0  0  0  0  0  0  0  0  0  0  0  0
   10.8493    7.3570  -11.0403 C   0  0  0  0  0  0  0  0  0  0  0  0
   10.8331    7.9819   -9.7896 N   0  0  0  0  0  0  0  0  0  0  0  0
    9.5762    7.9934   -8.5974 S   0  0  0  0  0  0  0  0  0  0  0  0
    8.8859    9.2749   -8.7806 O   0  0  0  0  0  0  0  0  0  0  0  0
    8.8859    6.6979   -8.6730 O   0  0  0  0  0  0  0  0  0  0  0  0
   10.4442    8.0263   -7.0556 C   0  0  0  0  0  0  0  0  0  0  0  0
   10.6592    6.8052   -6.4044 C   0  0  0  0  0  0  0  0  0  0  0  0
   11.2859    6.7875   -5.1536 C   0  0  0  0  0  0  0  0  0  0  0  0
   11.7101    7.9878   -4.5424 C   0  0  0  0  0  0  0  0  0  0  0  0
   12.4814    7.9310   -3.2246 C   0  0  0  0  0  0  0  0  0  0  0  0
   12.1191    6.7388   -2.3216 C   0  0  0  0  0  0  0  0  0  0  0  0
   12.4143    9.2408   -2.4228 C   0  0  0  0  0  0  0  0  0  0  0  0
   11.4987    9.2141   -5.2238 C   0  0  0  0  0  0  0  0  0  0  0  0
   10.8655    9.2362   -6.4795 C   0  0  0  0  0  0  0  0  0  0  0  0
   11.9877    7.5072  -11.8519 C   0  0  0  0  0  0  0  0  0  0  0  0
   12.0857    6.8226  -13.0770 C   0  0  0  0  0  0  0  0  0  0  0  0
   10.0217    4.5425  -15.3789 C   0  0  0  0  0  0  0  0  0  0  0  0
   10.2166    0.0186  -16.9912 H   0  0  0  0  0  0  0  0  0  0  0  0
    9.6860   -1.1628  -15.6756 H   0  0  0  0  0  0  0  0  0  0  0  0
    8.5581    0.6172  -14.4790 H   0  0  0  0  0  0  0  0  0  0  0  0
    9.4305    2.3422  -16.8950 H   0  0  0  0  0  0  0  0  0  0  0  0
    8.0361    2.6491  -15.8681 H   0  0  0  0  0  0  0  0  0  0  0  0
   11.3151    1.8542  -14.0117 H   0  0  0  0  0  0  0  0  0  0  0  0
   11.6860    2.1768  -15.7172 H   0  0  0  0  0  0  0  0  0  0  0  0
   12.6011    3.7725  -13.4469 H   0  0  0  0  0  0  0  0  0  0  0  0
   13.4935    5.4211  -15.0783 H   0  0  0  0  0  0  0  0  0  0  0  0
   12.6359    4.5504  -16.4418 H   0  0  0  0  0  0  0  0  0  0  0  0
    9.1361    5.1016  -12.9272 H   0  0  0  0  0  0  0  0  0  0  0  0
    8.8759    6.4152  -10.9469 H   0  0  0  0  0  0  0  0  0  0  0  0
   11.6209    8.5802   -9.5906 H   0  0  0  0  0  0  0  0  0  0  0  0
   10.3381    5.8771   -6.8537 H   0  0  0  0  0  0  0  0  0  0  0  0
   11.4427    5.8243   -4.6959 H   0  0  0  0  0  0  0  0  0  0  0  0
   13.5113    7.7715   -3.5281 H   0  0  0  0  0  0  0  0  0  0  0  0
   12.3007    5.7747   -2.7925 H   0  0  0  0  0  0  0  0  0  0  0  0
   12.7617    6.7458   -1.4470 H   0  0  0  0  0  0  0  0  0  0  0  0
   11.0795    6.7749   -1.9920 H   0  0  0  0  0  0  0  0  0  0  0  0
   12.8859   10.0604   -2.9621 H   0  0  0  0  0  0  0  0  0  0  0  0
   11.3819    9.5231   -2.2230 H   0  0  0  0  0  0  0  0  0  0  0  0
   12.9303    9.1544   -1.4660 H   0  0  0  0  0  0  0  0  0  0  0  0
   11.8228   10.1556   -4.8103 H   0  0  0  0  0  0  0  0  0  0  0  0
   10.6951   10.1718   -6.9879 H   0  0  0  0  0  0  0  0  0  0  0  0
   12.8002    8.1480  -11.5391 H   0  0  0  0  0  0  0  0  0  0  0  0
   12.9741    6.9701  -13.6687 H   0  0  0  0  0  0  0  0  0  0  0  0
   10.1630    4.6092  -16.4588 H   0  0  0  0  0  0  0  0  0  0  0  0
    9.1395    5.1349  -15.1375 H   0  0  0  0  0  0  0  0  0  0  0  0
    9.4863    3.1076  -14.0620 H   0  0  0  0  0  0  0  0  0  0  0  0
  2  1  2  0
  3  2  1  0
  4  3  1  0
  5  4  1  0
  6  5  1  0
  7  6  1  0
  8  6  1  0
  8  7  1  0
  8  9  1  1
 10  9  1  0
 11 10  2  0
 12 11  1  0
 13 12  1  0
 14 13  1  0
 15 14  2  0
 16 14  2  0
 17 14  1  0
 18 17  1  0
 19 18  2  0
 20 19  1  0
 21 20  1  0
 22 21  1  0
 23 21  1  0
 24 20  2  0
 25 17  2  0
 25 24  1  0
 26 12  2  0
 27  9  2  0
 27 26  1  0
 28  4  1  0
 28  8  1  0
 29  1  1  0
 30  1  1  0
 31  2  1  0
 32  3  1  0
 33  3  1  0
 34  5  1  0
 35  5  1  0
  6 36  1  1
 37  7  1  0
 38  7  1  0
 39 10  1  0
 40 11  1  0
 41 13  1  0
 42 18  1  0
 43 19  1  0
 44 21  1  0
 45 22  1  0
 46 22  1  0
 47 22  1  0
 48 23  1  0
 49 23  1  0
 50 23  1  0
 51 24  1  0
 52 25  1  0
 53 26  1  0
 54 27  1  0
 55 28  1  0
 56 28  1  0
  4 57  1  1
M  CHG  1   4   1
M  END
>  <b_m_subgroup_collapsed>  (1091) 
0

>  <r_i_docking_score>  (1091) 
-6.7573470435223602

>  <s_m_subgroup_title>  (1091) 
glide-dock_SP_D22_pv

>  <s_m_subgroupid>  (1091) 
glide-dock_SP_D22_pv

>  <Molecule ChEMBL ID>  (1091) 
CHEMBL1224698

>  <Standard Type>  (1091) 
Ki

>  <Standard Value>  (1091) 
63.1

>  <label>  (1091) 
1

$$$$
CHEMBL376445
     RDKit          3D

 56 59  0  0  1  0  0  0  0  0999 V2000
    9.6691    8.8861   -9.9966 O   0  0  0  0  0  0  0  0  0  0  0  0
   10.0235    7.8730   -9.3937 C   0  0  0  0  0  0  0  0  0  0  0  0
   10.0886    6.6622   -9.9672 N   0  0  0  0  0  0  0  0  0  0  0  0
    9.7165    6.3918  -11.3521 C   0  0  0  0  0  0  0  0  0  0  0  0
    8.3648    5.6733  -11.4109 C   0  0  0  0  0  0  0  0  0  0  0  0
    7.7382    5.7177  -12.8116 C   0  0  0  0  0  0  0  0  0  0  0  0
    6.4816    4.8358  -12.9494 C   0  0  0  0  0  0  0  0  0  0  0  0
    6.7459    3.3725  -13.0186 N   0  0  0  0  0  0  0  0  0  0  0  0
    7.6621    2.9615  -14.1246 C   0  0  0  0  0  0  0  0  0  0  0  0
    7.8132    1.4314  -14.2729 C   0  0  0  0  0  0  0  0  0  0  0  0
    6.5065    0.7940  -14.2810 N   0  0  0  0  0  0  0  0  0  0  0  0
    6.0508   -0.0318  -15.3344 C   0  0  0  0  0  0  0  0  0  0  0  0
    5.3894   -1.2345  -14.9948 C   0  0  0  0  0  0  0  0  0  0  0  0
    4.8860   -2.0920  -15.9886 C   0  0  0  0  0  0  0  0  0  0  0  0
    5.0093   -1.7521  -17.3429 C   0  0  0  0  0  0  0  0  0  0  0  0
    5.6556   -0.5600  -17.7075 C   0  0  0  0  0  0  0  0  0  0  0  0
    5.7677   -0.1560  -19.3849 Cl  0  0  0  0  0  0  0  0  0  0  0  0
    6.1889    0.2971  -16.7165 C   0  0  0  0  0  0  0  0  0  0  0  0
    6.9418    1.7644  -17.2440 Cl  0  0  0  0  0  0  0  0  0  0  0  0
    5.6375    1.0947  -13.1531 C   0  0  0  0  0  0  0  0  0  0  0  0
    5.4640    2.6174  -13.0101 C   0  0  0  0  0  0  0  0  0  0  0  0
   10.4324    7.9533   -7.9779 C   0  0  0  0  0  0  0  0  0  0  0  0
   10.9118    7.0211   -7.0773 C   0  0  0  0  0  0  0  0  0  0  0  0
   11.1784    7.7299   -5.8543 C   0  0  0  0  0  0  0  0  0  0  0  0
   11.6859    7.4422   -4.5611 C   0  0  0  0  0  0  0  0  0  0  0  0
   11.8049    8.4695   -3.5963 C   0  0  0  0  0  0  0  0  0  0  0  0
   12.4857    8.1365   -1.8609 Br  0  0  0  0  0  0  0  0  0  0  0  0
   11.4074    9.7810   -3.8908 C   0  0  0  0  0  0  0  0  0  0  0  0
   10.9096   10.0989   -5.1621 C   0  0  0  0  0  0  0  0  0  0  0  0
   10.8137    9.0735   -6.1102 C   0  0  0  0  0  0  0  0  0  0  0  0
   10.3632    9.1917   -7.3982 O   0  0  0  0  0  0  0  0  0  0  0  0
   10.3863    5.8850   -9.3987 H   0  0  0  0  0  0  0  0  0  0  0  0
   10.4857    5.7786  -11.8218 H   0  0  0  0  0  0  0  0  0  0  0  0
    9.6739    7.3155  -11.9328 H   0  0  0  0  0  0  0  0  0  0  0  0
    7.6848    6.1569  -10.7098 H   0  0  0  0  0  0  0  0  0  0  0  0
    8.4867    4.6451  -11.0700 H   0  0  0  0  0  0  0  0  0  0  0  0
    8.4776    5.4960  -13.5790 H   0  0  0  0  0  0  0  0  0  0  0  0
    7.4456    6.7518  -13.0013 H   0  0  0  0  0  0  0  0  0  0  0  0
    5.9250    5.1187  -13.8411 H   0  0  0  0  0  0  0  0  0  0  0  0
    5.8176    5.0442  -12.1079 H   0  0  0  0  0  0  0  0  0  0  0  0
    8.6550    3.3861  -13.9848 H   0  0  0  0  0  0  0  0  0  0  0  0
    7.2642    3.3687  -15.0468 H   0  0  0  0  0  0  0  0  0  0  0  0
    8.3916    1.0188  -13.4470 H   0  0  0  0  0  0  0  0  0  0  0  0
    8.3895    1.1789  -15.1620 H   0  0  0  0  0  0  0  0  0  0  0  0
    5.2874   -1.5279  -13.9610 H   0  0  0  0  0  0  0  0  0  0  0  0
    4.4073   -3.0199  -15.7195 H   0  0  0  0  0  0  0  0  0  0  0  0
    4.6072   -2.4101  -18.0999 H   0  0  0  0  0  0  0  0  0  0  0  0
    4.6564    0.6359  -13.2773 H   0  0  0  0  0  0  0  0  0  0  0  0
    6.0723    0.6697  -12.2473 H   0  0  0  0  0  0  0  0  0  0  0  0
    4.8873    2.8416  -12.1121 H   0  0  0  0  0  0  0  0  0  0  0  0
    4.8861    2.9886  -13.8467 H   0  0  0  0  0  0  0  0  0  0  0  0
   11.0747    5.9677   -7.2433 H   0  0  0  0  0  0  0  0  0  0  0  0
   11.9818    6.4338   -4.3128 H   0  0  0  0  0  0  0  0  0  0  0  0
   11.4979   10.5459   -3.1330 H   0  0  0  0  0  0  0  0  0  0  0  0
   10.6110   11.1043   -5.4097 H   0  0  0  0  0  0  0  0  0  0  0  0
    7.2178    3.1284  -12.1601 H   0  0  0  0  0  0  0  0  0  0  0  0
  2  1  2  0
  3  2  1  0
  4  3  1  0
  5  4  1  0
  6  5  1  0
  7  6  1  0
  8  7  1  0
  9  8  1  0
 10  9  1  0
 11 10  1  0
 12 11  1  0
 13 12  2  0
 14 13  1  0
 15 14  2  0
 16 15  1  0
 17 16  1  0
 18 12  1  0
 18 16  2  0
 19 18  1  0
 20 11  1  0
 21  8  1  0
 21 20  1  0
 22  2  1  0
 23 22  2  0
 24 23  1  0
 25 24  2  0
 26 25  1  0
 27 26  1  0
 28 26  2  0
 29 28  1  0
 30 24  1  0
 30 29  2  0
 31 22  1  0
 31 30  1  0
 32  3  1  0
 33  4  1  0
 34  4  1  0
 35  5  1  0
 36  5  1  0
 37  6  1  0
 38  6  1  0
 39  7  1  0
 40  7  1  0
 41  9  1  0
 42  9  1  0
 43 10  1  0
 44 10  1  0
 45 13  1  0
 46 14  1  0
 47 15  1  0
 48 20  1  0
 49 20  1  0
 50 21  1  0
 51 21  1  0
 52 23  1  0
 53 25  1  0
 54 28  1  0
 55 29  1  0
 56  8  1  0
M  CHG  1   8   1
M  END
>  <b_m_subgroup_collapsed>  (1092) 
0

>  <r_i_docking_score>  (1092) 
-6.75355234571167

>  <s_m_subgroup_title>  (1092) 
glide-dock_SP_D22_pv

>  <s_m_subgroupid>  (1092) 
glide-dock_SP_D22_pv

>  <Molecule ChEMBL ID>  (1092) 
CHEMBL376445

>  <Standard Type>  (1092) 
Ki

>  <Standard Value>  (1092) 
10000.0

>  <label>  (1092) 
0

$$$$
CHEMBL836
     RDKit          3D

 57 58  0  0  1  0  0  0  0  0999 V2000
   11.7599    7.6902   -1.8473 C   0  0  0  0  0  0  0  0  0  0  0  0
   12.2591    6.6672   -2.8717 C   0  0  0  0  0  0  0  0  0  0  0  0
   11.3879    6.5871   -3.9955 O   0  0  0  0  0  0  0  0  0  0  0  0
   11.3626    7.6609   -4.8643 C   0  0  0  0  0  0  0  0  0  0  0  0
   12.2388    8.7660   -4.7446 C   0  0  0  0  0  0  0  0  0  0  0  0
   12.2251    9.7875   -5.6920 C   0  0  0  0  0  0  0  0  0  0  0  0
   11.2968    9.7724   -6.7329 C   0  0  0  0  0  0  0  0  0  0  0  0
   10.3914    8.7150   -6.8483 C   0  0  0  0  0  0  0  0  0  0  0  0
   10.4267    7.6434   -5.9238 C   0  0  0  0  0  0  0  0  0  0  0  0
    9.5677    6.5724   -5.9864 O   0  0  0  0  0  0  0  0  0  0  0  0
    8.6628    6.4685   -7.0792 C   0  0  0  0  0  0  0  0  0  0  0  0
    9.4331    5.9565   -8.3110 C   0  0  0  0  0  0  0  0  0  0  0  0
    8.8858    6.5102   -9.5656 N   0  0  0  0  0  0  0  0  0  0  0  0
    9.8641    6.7379  -10.6471 C   0  0  2  0  0  0  0  0  0  0  0  0
   10.7717    7.9488  -10.3491 C   0  0  0  0  0  0  0  0  0  0  0  0
    9.1404    6.9396  -11.9854 C   0  0  0  0  0  0  0  0  0  0  0  0
    8.3932    5.7133  -12.4871 C   0  0  0  0  0  0  0  0  0  0  0  0
    7.0567    5.4843  -12.1067 C   0  0  0  0  0  0  0  0  0  0  0  0
    6.3578    4.3583  -12.5742 C   0  0  0  0  0  0  0  0  0  0  0  0
    6.9792    3.4351  -13.4483 C   0  0  0  0  0  0  0  0  0  0  0  0
    6.3317    2.3103  -13.9105 O   0  0  0  0  0  0  0  0  0  0  0  0
    5.2997    1.7670  -13.0952 C   0  0  0  0  0  0  0  0  0  0  0  0
    8.3166    3.6843  -13.8476 C   0  0  0  0  0  0  0  0  0  0  0  0
    9.1799    2.5676  -14.9604 S   0  0  0  0  0  0  0  0  0  0  0  0
    8.9492    1.0259  -14.2469 N   0  0  0  0  0  0  0  0  0  0  0  0
    8.4877    2.5680  -16.2580 O   0  0  0  0  0  0  0  0  0  0  0  0
   10.6207    2.8532  -14.8802 O   0  0  0  0  0  0  0  0  0  0  0  0
    9.0202    4.8078  -13.3645 C   0  0  0  0  0  0  0  0  0  0  0  0
   12.4888    7.8008   -1.0474 H   0  0  0  0  0  0  0  0  0  0  0  0
   11.5923    8.6870   -2.2483 H   0  0  0  0  0  0  0  0  0  0  0  0
   10.8089    7.3520   -1.4463 H   0  0  0  0  0  0  0  0  0  0  0  0
   12.2888    5.6946   -2.3907 H   0  0  0  0  0  0  0  0  0  0  0  0
   13.2857    6.8735   -3.1703 H   0  0  0  0  0  0  0  0  0  0  0  0
   12.9860    8.8393   -3.9729 H   0  0  0  0  0  0  0  0  0  0  0  0
   12.9514   10.5724   -5.6186 H   0  0  0  0  0  0  0  0  0  0  0  0
   11.2861   10.5723   -7.4468 H   0  0  0  0  0  0  0  0  0  0  0  0
    9.6959    8.7581   -7.6700 H   0  0  0  0  0  0  0  0  0  0  0  0
    7.8685    5.7718   -6.8190 H   0  0  0  0  0  0  0  0  0  0  0  0
    8.1450    7.4120   -7.2501 H   0  0  0  0  0  0  0  0  0  0  0  0
   10.4866    6.2165   -8.2209 H   0  0  0  0  0  0  0  0  0  0  0  0
    9.4093    4.8672   -8.3516 H   0  0  0  0  0  0  0  0  0  0  0  0
    8.1898    5.8608   -9.9078 H   0  0  0  0  0  0  0  0  0  0  0  0
   10.4860    5.8477  -10.7326 H   0  0  0  0  0  0  0  0  0  0  0  0
   11.4674    8.1270  -11.1696 H   0  0  0  0  0  0  0  0  0  0  0  0
   10.1882    8.8602  -10.2122 H   0  0  0  0  0  0  0  0  0  0  0  0
   11.3801    7.8068   -9.4570 H   0  0  0  0  0  0  0  0  0  0  0  0
    8.4531    7.7857  -11.9300 H   0  0  0  0  0  0  0  0  0  0  0  0
    9.8978    7.2055  -12.7166 H   0  0  0  0  0  0  0  0  0  0  0  0
    6.5491    6.1723  -11.4480 H   0  0  0  0  0  0  0  0  0  0  0  0
    5.3374    4.2297  -12.2478 H   0  0  0  0  0  0  0  0  0  0  0  0
    4.9826    0.8102  -13.5098 H   0  0  0  0  0  0  0  0  0  0  0  0
    5.6560    1.5841  -12.0802 H   0  0  0  0  0  0  0  0  0  0  0  0
    4.4202    2.4086  -13.0471 H   0  0  0  0  0  0  0  0  0  0  0  0
    9.2579    0.2801  -14.8682 H   0  0  0  0  0  0  0  0  0  0  0  0
    9.4338    0.9719  -13.3434 H   0  0  0  0  0  0  0  0  0  0  0  0
   10.0405    4.9801  -13.6749 H   0  0  0  0  0  0  0  0  0  0  0  0
    8.3762    7.3712   -9.3926 H   0  0  0  0  0  0  0  0  0  0  0  0
  2  1  1  0
  3  2  1  0
  4  3  1  0
  5  4  2  0
  6  5  1  0
  7  6  2  0
  8  7  1  0
  9  4  1  0
  9  8  2  0
 10  9  1  0
 11 10  1  0
 12 11  1  0
 13 12  1  0
 14 13  1  0
 15 14  1  0
 16 14  1  0
 17 16  1  0
 18 17  1  0
 19 18  2  0
 20 19  1  0
 21 20  1  0
 22 21  1  0
 23 20  2  0
 24 23  1  0
 25 24  1  0
 26 24  2  0
 27 24  2  0
 28 17  2  0
 28 23  1  0
 29  1  1  0
 30  1  1  0
 31  1  1  0
 32  2  1  0
 33  2  1  0
 34  5  1  0
 35  6  1  0
 36  7  1  0
 37  8  1  0
 38 11  1  0
 39 11  1  0
 40 12  1  0
 41 12  1  0
 42 13  1  0
 14 43  1  6
 44 15  1  0
 45 15  1  0
 46 15  1  0
 47 16  1  0
 48 16  1  0
 49 18  1  0
 50 19  1  0
 51 22  1  0
 52 22  1  0
 53 22  1  0
 54 25  1  0
 55 25  1  0
 56 28  1  0
 57 13  1  0
M  CHG  1  13   1
M  END
>  <b_m_subgroup_collapsed>  (1093) 
0

>  <r_i_docking_score>  (1093) 
-6.7532238786979102

>  <s_m_subgroup_title>  (1093) 
glide-dock_SP_D22_pv

>  <s_m_subgroupid>  (1093) 
glide-dock_SP_D22_pv

>  <Molecule ChEMBL ID>  (1093) 
CHEMBL836

>  <Standard Type>  (1093) 
Ki

>  <Standard Value>  (1093) 
13.0

>  <label>  (1093) 
1

$$$$
CHEMBL201241
     RDKit          3D

 46 50  0  0  1  0  0  0  0  0999 V2000
    5.2859    4.5698  -13.4468 C   0  0  0  0  0  0  0  0  0  0  0  0
    6.0915    3.4697  -13.7777 C   0  0  0  0  0  0  0  0  0  0  0  0
    7.4529    3.4816  -13.4468 C   0  0  0  0  0  0  0  0  0  0  0  0
    8.0247    4.5742  -12.7586 C   0  0  0  0  0  0  0  0  0  0  0  0
    9.4423    4.4926  -12.1934 C   0  0  2  0  0  0  0  0  0  0  0  0
    9.6862    5.5514  -11.0784 C   0  0  0  0  0  0  0  0  0  0  0  0
   10.1623    6.9195  -11.6318 C   0  0  0  0  0  0  0  0  0  0  0  0
   11.2656    6.7946  -12.6973 C   0  0  0  0  0  0  0  0  0  0  0  0
   10.8857    5.8197  -13.7538 N   0  0  1  0  0  0  0  0  0  0  0  0
   11.8059    5.8604  -14.9261 C   0  0  0  0  0  0  0  0  0  0  0  0
   11.2184    5.0771  -16.1183 C   0  0  0  0  0  0  0  0  0  0  0  0
   10.8214    3.7136  -15.6629 C   0  0  0  0  0  0  0  0  0  0  0  0
   10.5450    3.4531  -14.3492 C   0  0  0  0  0  0  0  0  0  0  0  0
   10.3276    2.0908  -14.2166 N   0  0  0  0  0  0  0  0  0  0  0  0
   10.3388    1.4653  -15.4468 C   0  0  0  0  0  0  0  0  0  0  0  0
   10.1083    0.1331  -15.8336 C   0  0  0  0  0  0  0  0  0  0  0  0
   10.2311   -0.2230  -17.1887 C   0  0  0  0  0  0  0  0  0  0  0  0
   10.5825    0.7544  -18.1403 C   0  0  0  0  0  0  0  0  0  0  0  0
   10.8018    2.0914  -17.7442 C   0  0  0  0  0  0  0  0  0  0  0  0
   10.6757    2.4813  -16.3891 C   0  0  0  0  0  0  0  0  0  0  0  0
   10.6215    4.4529  -13.2173 C   0  0  2  0  0  0  0  0  0  0  0  0
    7.1979    5.6771  -12.4541 C   0  0  0  0  0  0  0  0  0  0  0  0
    5.8465    5.6701  -12.7813 C   0  0  0  0  0  0  0  0  0  0  0  0
    4.2396    4.5724  -13.7130 H   0  0  0  0  0  0  0  0  0  0  0  0
    5.6740    2.5988  -14.2533 H   0  0  0  0  0  0  0  0  0  0  0  0
    8.0132    2.5901  -13.6562 H   0  0  0  0  0  0  0  0  0  0  0  0
    9.4592    3.5249  -11.6922 H   0  0  0  0  0  0  0  0  0  0  0  0
    8.8310    5.6583  -10.4074 H   0  0  0  0  0  0  0  0  0  0  0  0
   10.4631    5.1892  -10.4118 H   0  0  0  0  0  0  0  0  0  0  0  0
    9.3386    7.4788  -12.0693 H   0  0  0  0  0  0  0  0  0  0  0  0
   10.5182    7.5378  -10.8057 H   0  0  0  0  0  0  0  0  0  0  0  0
   11.4118    7.7715  -13.1561 H   0  0  0  0  0  0  0  0  0  0  0  0
   12.2242    6.5433  -12.2484 H   0  0  0  0  0  0  0  0  0  0  0  0
   11.9895    6.8919  -15.2310 H   0  0  0  0  0  0  0  0  0  0  0  0
   12.7724    5.4420  -14.6355 H   0  0  0  0  0  0  0  0  0  0  0  0
   10.3534    5.6028  -16.5238 H   0  0  0  0  0  0  0  0  0  0  0  0
   11.9514    5.0197  -16.9244 H   0  0  0  0  0  0  0  0  0  0  0  0
   10.1565    1.6342  -13.3216 H   0  0  0  0  0  0  0  0  0  0  0  0
    9.8475   -0.6142  -15.0984 H   0  0  0  0  0  0  0  0  0  0  0  0
   10.0573   -1.2431  -17.4993 H   0  0  0  0  0  0  0  0  0  0  0  0
   10.6799    0.4784  -19.1800 H   0  0  0  0  0  0  0  0  0  0  0  0
   11.0655    2.8291  -18.4889 H   0  0  0  0  0  0  0  0  0  0  0  0
   11.5039    4.1752  -12.6472 H   0  0  0  0  0  0  0  0  0  0  0  0
    7.5195    6.5407  -11.8985 H   0  0  0  0  0  0  0  0  0  0  0  0
    5.2784    6.5429  -12.5139 H   0  0  0  0  0  0  0  0  0  0  0  0
    9.9916    6.1305  -14.1068 H   0  0  0  0  0  0  0  0  0  0  0  0
  2  1  2  0
  3  2  1  0
  4  3  2  0
  5  4  1  0
  6  5  1  0
  7  6  1  0
  8  7  1  0
  9  8  1  0
 10  9  1  0
 11 10  1  0
 12 11  1  0
 13 12  2  0
 14 13  1  0
 15 14  1  0
 16 15  2  0
 17 16  1  0
 18 17  2  0
 19 18  1  0
 20 12  1  0
 20 15  1  0
 20 19  2  0
 21  5  1  0
 21  9  1  0
 21 13  1  0
 22  4  1  0
 23  1  1  0
 23 22  2  0
 24  1  1  0
 25  2  1  0
 26  3  1  0
  5 27  1  1
 28  6  1  0
 29  6  1  0
 30  7  1  0
 31  7  1  0
 32  8  1  0
 33  8  1  0
 34 10  1  0
 35 10  1  0
 36 11  1  0
 37 11  1  0
 38 14  1  0
 39 16  1  0
 40 17  1  0
 41 18  1  0
 42 19  1  0
 21 43  1  1
 44 22  1  0
 45 23  1  0
  9 46  1  6
M  CHG  1   9   1
M  END
>  <b_m_subgroup_collapsed>  (1094) 
0

>  <r_i_docking_score>  (1094) 
-6.7523435691758502

>  <s_m_subgroup_title>  (1094) 
glide-dock_SP_D22_pv

>  <s_m_subgroupid>  (1094) 
glide-dock_SP_D22_pv

>  <Molecule ChEMBL ID>  (1094) 
CHEMBL201241

>  <Standard Type>  (1094) 
Ki

>  <Standard Value>  (1094) 
10000.0

>  <label>  (1094) 
0

$$$$
CHEMBL3695424
     RDKit          3D

 81 85  0  0  1  0  0  0  0  0999 V2000
    3.5289   -1.4328  -15.6961 C   0  0  0  0  0  0  0  0  0  0  0  0
    4.6329   -1.5162  -16.7721 C   0  0  0  0  0  0  0  0  0  0  0  0
    3.9540   -1.3339  -18.1507 C   0  0  0  0  0  0  0  0  0  0  0  0
    5.2864   -2.9108  -16.7496 C   0  0  0  0  0  0  0  0  0  0  0  0
    5.7105   -0.4602  -16.4843 C   0  0  0  0  0  0  0  0  0  0  0  0
    6.1950    0.4142  -17.4836 C   0  0  0  0  0  0  0  0  0  0  0  0
    7.1826    1.3692  -17.1805 C   0  0  0  0  0  0  0  0  0  0  0  0
    7.6953    1.4781  -15.8719 C   0  0  0  0  0  0  0  0  0  0  0  0
    8.6616    2.5719  -15.5410 C   0  0  0  0  0  0  0  0  0  0  0  0
    9.4548    3.0081  -16.3754 O   0  0  0  0  0  0  0  0  0  0  0  0
    8.4695    3.1112  -14.3314 N   0  0  0  0  0  0  0  0  0  0  0  0
    8.9477    4.4120  -13.9078 C   0  0  1  0  0  0  0  0  0  0  0  0
    8.1036    4.8831  -12.7175 C   0  0  0  0  0  0  0  0  0  0  0  0
    8.5320    6.2827  -12.2739 C   0  0  0  0  0  0  0  0  0  0  0  0
   10.0447    6.3604  -11.9836 C   0  0  2  0  0  0  0  0  0  0  0  0
   10.4714    7.8048  -11.7077 C   0  0  0  0  0  0  0  0  0  0  0  0
    9.9134    8.4495  -10.4388 C   0  0  0  0  0  0  0  0  0  0  0  0
    9.9732    7.5960   -9.2285 N   0  0  2  0  0  0  0  0  0  0  0  0
    9.0515    8.1225   -8.2101 C   0  0  0  0  0  0  0  0  0  0  0  0
    8.9724    7.2398   -6.9669 C   0  0  0  0  0  0  0  0  0  0  0  0
   10.3449    6.8617   -6.3765 C   0  0  2  0  0  0  0  0  0  0  0  0
   10.9802    7.8894   -5.4465 C   0  0  0  0  0  0  0  0  0  0  0  0
   10.9383    9.2677   -5.7152 C   0  0  0  0  0  0  0  0  0  0  0  0
   11.3659   10.1760   -4.7417 C   0  0  0  0  0  0  0  0  0  0  0  0
   11.9103    9.7725   -3.5068 C   0  0  0  0  0  0  0  0  0  0  0  0
   12.0355    8.4069   -3.2748 C   0  0  0  0  0  0  0  0  0  0  0  0
   11.5844    7.5095   -4.2251 C   0  0  0  0  0  0  0  0  0  0  0  0
   11.6857    6.1693   -3.6421 C   0  0  0  0  0  0  0  0  0  0  0  0
   12.3227    6.4116   -2.2592 C   0  0  0  0  0  0  0  0  0  0  0  0
   12.4854    7.8279   -2.1233 O   0  0  0  0  0  0  0  0  0  0  0  0
   11.2868    6.3925   -7.4831 C   0  0  0  0  0  0  0  0  0  0  0  0
   11.3343    7.3768   -8.6753 C   0  0  0  0  0  0  0  0  0  0  0  0
   10.8989    5.7863  -13.1373 C   0  0  0  0  0  0  0  0  0  0  0  0
   10.4331    4.3804  -13.5316 C   0  0  0  0  0  0  0  0  0  0  0  0
    7.2593    0.5733  -14.8819 C   0  0  0  0  0  0  0  0  0  0  0  0
    6.2714   -0.3790  -15.1890 C   0  0  0  0  0  0  0  0  0  0  0  0
    3.8956   -1.5758  -14.6819 H   0  0  0  0  0  0  0  0  0  0  0  0
    3.0030   -0.4784  -15.7229 H   0  0  0  0  0  0  0  0  0  0  0  0
    2.8016   -2.2243  -15.8481 H   0  0  0  0  0  0  0  0  0  0  0  0
    4.6516   -1.4639  -18.9773 H   0  0  0  0  0  0  0  0  0  0  0  0
    3.1558   -2.0625  -18.3036 H   0  0  0  0  0  0  0  0  0  0  0  0
    3.5060   -0.3452  -18.2470 H   0  0  0  0  0  0  0  0  0  0  0  0
    5.6671   -3.1770  -15.7627 H   0  0  0  0  0  0  0  0  0  0  0  0
    4.5795   -3.6854  -17.0463 H   0  0  0  0  0  0  0  0  0  0  0  0
    6.1225   -2.9557  -17.4477 H   0  0  0  0  0  0  0  0  0  0  0  0
    5.8212    0.3763  -18.4942 H   0  0  0  0  0  0  0  0  0  0  0  0
    7.5274    2.0399  -17.9544 H   0  0  0  0  0  0  0  0  0  0  0  0
    7.7780    2.6767  -13.7411 H   0  0  0  0  0  0  0  0  0  0  0  0
    8.8094    5.1157  -14.7310 H   0  0  0  0  0  0  0  0  0  0  0  0
    8.2023    4.1867  -11.8826 H   0  0  0  0  0  0  0  0  0  0  0  0
    7.0490    4.8974  -12.9968 H   0  0  0  0  0  0  0  0  0  0  0  0
    7.9624    6.5676  -11.3896 H   0  0  0  0  0  0  0  0  0  0  0  0
    8.2586    6.9968  -13.0473 H   0  0  0  0  0  0  0  0  0  0  0  0
   10.2380    5.7460  -11.1058 H   0  0  0  0  0  0  0  0  0  0  0  0
   10.0870    8.4024  -12.5397 H   0  0  0  0  0  0  0  0  0  0  0  0
   11.5591    7.8865  -11.7045 H   0  0  0  0  0  0  0  0  0  0  0  0
    8.8790    8.7331  -10.6445 H   0  0  0  0  0  0  0  0  0  0  0  0
   10.4499    9.3737  -10.2436 H   0  0  0  0  0  0  0  0  0  0  0  0
    8.0860    8.1249   -8.6605 H   0  0  0  0  0  0  0  0  0  0  0  0
    9.2416    9.1714   -8.0031 H   0  0  0  0  0  0  0  0  0  0  0  0
    8.4655    6.3178   -7.2558 H   0  0  0  0  0  0  0  0  0  0  0  0
    8.3186    7.7165   -6.2440 H   0  0  0  0  0  0  0  0  0  0  0  0
   10.1465    6.0043   -5.7451 H   0  0  0  0  0  0  0  0  0  0  0  0
   10.5595    9.6807   -6.6264 H   0  0  0  0  0  0  0  0  0  0  0  0
   11.2858   11.2307   -4.9639 H   0  0  0  0  0  0  0  0  0  0  0  0
   12.2116   10.4965   -2.7625 H   0  0  0  0  0  0  0  0  0  0  0  0
   10.6792    5.7740   -3.5510 H   0  0  0  0  0  0  0  0  0  0  0  0
   12.2840    5.5300   -4.2841 H   0  0  0  0  0  0  0  0  0  0  0  0
   13.2859    5.9089   -2.1865 H   0  0  0  0  0  0  0  0  0  0  0  0
   11.6987    6.0160   -1.4544 H   0  0  0  0  0  0  0  0  0  0  0  0
   12.2709    6.2034   -7.0477 H   0  0  0  0  0  0  0  0  0  0  0  0
   10.9272    5.4277   -7.8453 H   0  0  0  0  0  0  0  0  0  0  0  0
   11.9769    6.9811   -9.4611 H   0  0  0  0  0  0  0  0  0  0  0  0
   11.7689    8.3293   -8.3700 H   0  0  0  0  0  0  0  0  0  0  0  0
   10.8850    6.4385  -14.0111 H   0  0  0  0  0  0  0  0  0  0  0  0
   11.9478    5.7644  -12.8479 H   0  0  0  0  0  0  0  0  0  0  0  0
   10.5792    3.6925  -12.6997 H   0  0  0  0  0  0  0  0  0  0  0  0
   11.0323    4.0087  -14.3635 H   0  0  0  0  0  0  0  0  0  0  0  0
    7.6688    0.6072  -13.8821 H   0  0  0  0  0  0  0  0  0  0  0  0
    5.9641   -1.0700  -14.4207 H   0  0  0  0  0  0  0  0  0  0  0  0
    9.5979    6.6955   -9.4904 H   0  0  0  0  0  0  0  0  0  0  0  0
  2  1  1  0
  3  2  1  0
  4  2  1  0
  5  2  1  0
  6  5  1  0
  7  6  2  0
  8  7  1  0
  9  8  1  0
 10  9  2  0
 11  9  1  0
 12 11  1  0
 13 12  1  0
 14 13  1  0
 15 14  1  0
 16 15  1  0
 17 16  1  0
 18 17  1  0
 19 18  1  0
 20 19  1  0
 21 20  1  0
 22 21  1  0
 23 22  2  0
 24 23  1  0
 25 24  2  0
 26 25  1  0
 27 22  1  0
 27 26  2  0
 28 27  1  0
 29 28  1  0
 30 26  1  0
 30 29  1  0
 31 21  1  0
 32 18  1  0
 32 31  1  0
 33 15  1  0
 34 12  1  0
 34 33  1  0
 35  8  2  0
 36  5  2  0
 36 35  1  0
 37  1  1  0
 38  1  1  0
 39  1  1  0
 40  3  1  0
 41  3  1  0
 42  3  1  0
 43  4  1  0
 44  4  1  0
 45  4  1  0
 46  6  1  0
 47  7  1  0
 48 11  1  0
 12 49  1  6
 50 13  1  0
 51 13  1  0
 52 14  1  0
 53 14  1  0
 15 54  1  1
 55 16  1  0
 56 16  1  0
 57 17  1  0
 58 17  1  0
 59 19  1  0
 60 19  1  0
 61 20  1  0
 62 20  1  0
 21 63  1  1
 64 23  1  0
 65 24  1  0
 66 25  1  0
 67 28  1  0
 68 28  1  0
 69 29  1  0
 70 29  1  0
 71 31  1  0
 72 31  1  0
 73 32  1  0
 74 32  1  0
 75 33  1  0
 76 33  1  0
 77 34  1  0
 78 34  1  0
 79 35  1  0
 80 36  1  0
 18 81  1  6
M  CHG  1  18   1
M  END
>  <b_m_subgroup_collapsed>  (1095) 
0

>  <r_i_docking_score>  (1095) 
-6.7507842037988404

>  <s_m_subgroup_title>  (1095) 
glide-dock_SP_D22_pv

>  <s_m_subgroupid>  (1095) 
glide-dock_SP_D22_pv

>  <Molecule ChEMBL ID>  (1095) 
CHEMBL3695424

>  <Standard Type>  (1095) 
Ki

>  <Standard Value>  (1095) 
10000000.0

>  <label>  (1095) 
0

$$$$
CHEMBL5272965
     RDKit          3D

 63 67  0  0  1  0  0  0  0  0999 V2000
   11.7453    7.4415  -11.5050 C   0  0  0  0  0  0  0  0  0  0  0  0
   10.6658    8.0864  -10.6148 C   0  0  2  0  0  0  0  0  0  0  0  0
   11.3112    9.0652   -9.6006 C   0  0  0  0  0  0  0  0  0  0  0  0
   10.9475    8.4853   -8.2691 C   0  0  0  0  0  0  0  0  0  0  0  0
   11.3249    8.9671   -7.0036 C   0  0  0  0  0  0  0  0  0  0  0  0
   10.8888    8.2587   -5.8638 C   0  0  0  0  0  0  0  0  0  0  0  0
   10.0868    7.1046   -6.0070 C   0  0  0  0  0  0  0  0  0  0  0  0
    9.7065    6.6422   -7.2858 C   0  0  0  0  0  0  0  0  0  0  0  0
   10.1666    7.3448   -8.4182 C   0  0  0  0  0  0  0  0  0  0  0  0
    9.9568    7.0763   -9.7933 N   0  0  0  0  0  0  0  0  0  0  0  0
    9.2823    6.0088  -10.2887 C   0  0  0  0  0  0  0  0  0  0  0  0
    9.1524    4.9387   -9.6939 O   0  0  0  0  0  0  0  0  0  0  0  0
    8.7767    6.2234  -11.5153 N   0  0  0  0  0  0  0  0  0  0  0  0
    8.0871    5.2572  -12.3602 C   0  0  0  0  0  0  0  0  0  0  0  0
    9.0363    4.1565  -12.8607 C   0  0  0  0  0  0  0  0  0  0  0  0
    8.4636    3.3367  -14.0279 C   0  0  0  0  0  0  0  0  0  0  0  0
    9.2283    2.0126  -14.1943 C   0  0  0  0  0  0  0  0  0  0  0  0
    9.1568    1.4242  -15.5331 N   0  0  0  0  0  0  0  0  0  0  0  0
   10.0800    0.2876  -15.5581 C   0  0  0  0  0  0  0  0  0  0  0  0
    7.7956    1.1066  -16.0107 C   0  0  1  0  0  0  0  0  0  0  0  0
    7.8247    0.5482  -17.4644 C   0  0  0  0  0  0  0  0  0  0  0  0
    6.4741    0.1240  -18.0168 C   0  0  0  0  0  0  0  0  0  0  0  0
    6.0394   -0.0181  -19.3529 C   0  0  0  0  0  0  0  0  0  0  0  0
    4.7431   -0.5371  -19.6303 C   0  0  0  0  0  0  0  0  0  0  0  0
    3.8692   -0.9328  -18.5839 C   0  0  0  0  0  0  0  0  0  0  0  0
    4.3059   -0.7932  -17.2512 C   0  0  0  0  0  0  0  0  0  0  0  0
    3.7205   -1.0278  -16.0109 N   0  0  0  0  0  0  0  0  0  0  0  0
    4.5774   -0.6368  -15.0505 C   0  0  0  0  0  0  0  0  0  0  0  0
    4.3401   -0.6279  -13.8470 O   0  0  0  0  0  0  0  0  0  0  0  0
    5.7213   -0.2271  -15.6531 N   0  0  0  0  0  0  0  0  0  0  0  0
    5.5623   -0.2828  -17.0428 C   0  0  0  0  0  0  0  0  0  0  0  0
    6.9576    0.2406  -15.0293 C   0  0  0  0  0  0  0  0  0  0  0  0
   12.2825    8.1694  -12.1073 H   0  0  0  0  0  0  0  0  0  0  0  0
   12.4861    6.9722  -10.8671 H   0  0  0  0  0  0  0  0  0  0  0  0
   11.3471    6.6943  -12.1912 H   0  0  0  0  0  0  0  0  0  0  0  0
    9.9454    8.6275  -11.2296 H   0  0  0  0  0  0  0  0  0  0  0  0
   10.9083   10.0708   -9.6888 H   0  0  0  0  0  0  0  0  0  0  0  0
   12.3948    9.1078   -9.6926 H   0  0  0  0  0  0  0  0  0  0  0  0
   11.9405    9.8486   -6.9062 H   0  0  0  0  0  0  0  0  0  0  0  0
   11.1659    8.6040   -4.8783 H   0  0  0  0  0  0  0  0  0  0  0  0
    9.7512    6.5720   -5.1294 H   0  0  0  0  0  0  0  0  0  0  0  0
    9.0816    5.7653   -7.3719 H   0  0  0  0  0  0  0  0  0  0  0  0
    8.8613    7.1601  -11.8812 H   0  0  0  0  0  0  0  0  0  0  0  0
    7.2427    4.8265  -11.8214 H   0  0  0  0  0  0  0  0  0  0  0  0
    7.6755    5.8027  -13.2073 H   0  0  0  0  0  0  0  0  0  0  0  0
    9.9831    4.5972  -13.1775 H   0  0  0  0  0  0  0  0  0  0  0  0
    9.2844    3.4949  -12.0293 H   0  0  0  0  0  0  0  0  0  0  0  0
    7.4069    3.1297  -13.8586 H   0  0  0  0  0  0  0  0  0  0  0  0
    8.5256    3.9342  -14.9385 H   0  0  0  0  0  0  0  0  0  0  0  0
   10.2791    2.2102  -13.9735 H   0  0  0  0  0  0  0  0  0  0  0  0
    8.8901    1.2947  -13.4472 H   0  0  0  0  0  0  0  0  0  0  0  0
   10.2671   -0.0618  -16.5711 H   0  0  0  0  0  0  0  0  0  0  0  0
   11.0567    0.5707  -15.1631 H   0  0  0  0  0  0  0  0  0  0  0  0
    9.7129   -0.5483  -14.9630 H   0  0  0  0  0  0  0  0  0  0  0  0
    7.2698    2.0584  -16.0810 H   0  0  0  0  0  0  0  0  0  0  0  0
    8.2738    1.2755  -18.1416 H   0  0  0  0  0  0  0  0  0  0  0  0
    8.4284   -0.3549  -17.5245 H   0  0  0  0  0  0  0  0  0  0  0  0
    6.6968    0.2535  -20.1642 H   0  0  0  0  0  0  0  0  0  0  0  0
    4.4197   -0.6425  -20.6565 H   0  0  0  0  0  0  0  0  0  0  0  0
    2.8835   -1.3191  -18.7990 H   0  0  0  0  0  0  0  0  0  0  0  0
    2.7913   -1.3970  -15.8777 H   0  0  0  0  0  0  0  0  0  0  0  0
    7.5172   -0.6292  -14.7006 H   0  0  0  0  0  0  0  0  0  0  0  0
    6.7096    0.8076  -14.1304 H   0  0  0  0  0  0  0  0  0  0  0  0
  2  1  1  0
  3  2  1  0
  4  3  1  0
  5  4  2  0
  6  5  1  0
  7  6  2  0
  8  7  1  0
  9  4  1  0
  9  8  2  0
 10  2  1  0
 10  9  1  0
 11 10  1  0
 12 11  2  0
 13 11  1  0
 14 13  1  0
 15 14  1  0
 16 15  1  0
 17 16  1  0
 18 17  1  0
 19 18  1  0
 20 18  1  0
 21 20  1  0
 22 21  1  0
 23 22  1  0
 24 23  2  0
 25 24  1  0
 26 25  2  0
 27 26  1  0
 28 27  1  0
 29 28  2  0
 30 28  1  0
 31 22  2  0
 31 26  1  0
 31 30  1  0
 32 20  1  0
 32 30  1  0
 33  1  1  0
 34  1  1  0
 35  1  1  0
  2 36  1  6
 37  3  1  0
 38  3  1  0
 39  5  1  0
 40  6  1  0
 41  7  1  0
 42  8  1  0
 43 13  1  0
 44 14  1  0
 45 14  1  0
 46 15  1  0
 47 15  1  0
 48 16  1  0
 49 16  1  0
 50 17  1  0
 51 17  1  0
 52 19  1  0
 53 19  1  0
 54 19  1  0
 20 55  1  6
 56 21  1  0
 57 21  1  0
 58 23  1  0
 59 24  1  0
 60 25  1  0
 61 27  1  0
 62 32  1  0
 63 32  1  0
M  END
>  <b_m_subgroup_collapsed>  (1096) 
0

>  <r_i_docking_score>  (1096) 
-6.7485956596841703

>  <s_m_subgroup_title>  (1096) 
glide-dock_SP_D22_pv

>  <s_m_subgroupid>  (1096) 
glide-dock_SP_D22_pv

>  <Molecule ChEMBL ID>  (1096) 
CHEMBL5272965

>  <Standard Type>  (1096) 
Ki

>  <Standard Value>  (1096) 
26.9

>  <label>  (1096) 
1

$$$$
CHEMBL46
     RDKit          3D

 42 45  0  0  1  0  0  0  0  0999 V2000
   11.2856   10.4423   -5.9766 C   0  0  0  0  0  0  0  0  0  0  0  0
   11.4310    9.0988   -5.3415 C   0  0  0  0  0  0  0  0  0  0  0  0
   12.1600    8.8547   -4.2445 N   0  0  0  0  0  0  0  0  0  0  0  0
   12.0863    7.5316   -3.9038 C   0  0  0  0  0  0  0  0  0  0  0  0
   11.2860    6.9402   -4.8445 C   0  0  0  0  0  0  0  0  0  0  0  0
   10.8636    7.9307   -5.6957 N   0  0  0  0  0  0  0  0  0  0  0  0
    9.8780    7.7599   -6.7781 C   0  0  0  0  0  0  0  0  0  0  0  0
   10.4898    7.2229   -8.0991 C   0  0  2  0  0  0  0  0  0  0  0  0
   11.2117    8.3445   -8.8953 C   0  0  0  0  0  0  0  0  0  0  0  0
   11.7467    7.9121  -10.2659 C   0  0  0  0  0  0  0  0  0  0  0  0
   10.7767    7.0253  -10.9690 C   0  0  0  0  0  0  0  0  0  0  0  0
    9.7230    6.3711  -10.3863 C   0  0  0  0  0  0  0  0  0  0  0  0
    9.0649    5.6464  -11.4368 C   0  0  0  0  0  0  0  0  0  0  0  0
    7.9094    4.8336  -11.5186 C   0  0  0  0  0  0  0  0  0  0  0  0
    7.5568    4.1728  -12.7105 C   0  0  0  0  0  0  0  0  0  0  0  0
    8.3641    4.3016  -13.8534 C   0  0  0  0  0  0  0  0  0  0  0  0
    9.5041    5.1246  -13.8171 C   0  0  0  0  0  0  0  0  0  0  0  0
    9.8393    5.8000  -12.6245 C   0  0  0  0  0  0  0  0  0  0  0  0
   10.8857    6.6592  -12.3086 N   0  0  0  0  0  0  0  0  0  0  0  0
   11.9466    7.0533  -13.2196 C   0  0  0  0  0  0  0  0  0  0  0  0
    9.4657    6.4212   -8.9508 C   0  0  0  0  0  0  0  0  0  0  0  0
    8.5860    5.7728   -8.3848 O   0  0  0  0  0  0  0  0  0  0  0  0
   10.4860   10.9730   -5.4644 H   0  0  0  0  0  0  0  0  0  0  0  0
   12.2258   10.9775   -5.8518 H   0  0  0  0  0  0  0  0  0  0  0  0
   11.0689   10.3351   -7.0404 H   0  0  0  0  0  0  0  0  0  0  0  0
   12.5975    7.1170   -3.0467 H   0  0  0  0  0  0  0  0  0  0  0  0
   10.9547    5.9157   -4.9428 H   0  0  0  0  0  0  0  0  0  0  0  0
    9.3574    8.7052   -6.9416 H   0  0  0  0  0  0  0  0  0  0  0  0
    9.1202    7.0836   -6.3807 H   0  0  0  0  0  0  0  0  0  0  0  0
   11.2435    6.4810   -7.8310 H   0  0  0  0  0  0  0  0  0  0  0  0
   12.0392    8.7548   -8.3170 H   0  0  0  0  0  0  0  0  0  0  0  0
   10.5044    9.1602   -9.0540 H   0  0  0  0  0  0  0  0  0  0  0  0
   12.6812    7.3715  -10.1279 H   0  0  0  0  0  0  0  0  0  0  0  0
   11.9768    8.7922  -10.8674 H   0  0  0  0  0  0  0  0  0  0  0  0
    7.2864    4.7124  -10.6469 H   0  0  0  0  0  0  0  0  0  0  0  0
    6.6736    3.5528  -12.7400 H   0  0  0  0  0  0  0  0  0  0  0  0
    8.1049    3.7733  -14.7582 H   0  0  0  0  0  0  0  0  0  0  0  0
   10.1166    5.2402  -14.6987 H   0  0  0  0  0  0  0  0  0  0  0  0
   12.8318    7.3766  -12.6721 H   0  0  0  0  0  0  0  0  0  0  0  0
   12.2319    6.2070  -13.8432 H   0  0  0  0  0  0  0  0  0  0  0  0
   11.6113    7.8656  -13.8616 H   0  0  0  0  0  0  0  0  0  0  0  0
   12.6869    9.5547   -3.7356 H   0  0  0  0  0  0  0  0  0  0  0  0
  2  1  1  0
  3  2  2  0
  4  3  1  0
  5  4  2  0
  6  2  1  0
  6  5  1  0
  7  6  1  0
  8  7  1  0
  9  8  1  0
 10  9  1  0
 11 10  1  0
 12 11  2  0
 13 12  1  0
 14 13  2  0
 15 14  1  0
 16 15  2  0
 17 16  1  0
 18 13  1  0
 18 17  2  0
 19 11  1  0
 19 18  1  0
 20 19  1  0
 21  8  1  0
 21 12  1  0
 22 21  2  0
 23  1  1  0
 24  1  1  0
 25  1  1  0
 26  4  1  0
 27  5  1  0
 28  7  1  0
 29  7  1  0
  8 30  1  1
 31  9  1  0
 32  9  1  0
 33 10  1  0
 34 10  1  0
 35 14  1  0
 36 15  1  0
 37 16  1  0
 38 17  1  0
 39 20  1  0
 40 20  1  0
 41 20  1  0
 42  3  1  0
M  CHG  1   3   1
M  END
>  <b_m_subgroup_collapsed>  (1097) 
0

>  <r_i_docking_score>  (1097) 
-6.7469864761801102

>  <s_m_subgroup_title>  (1097) 
glide-dock_SP_D22_pv

>  <s_m_subgroupid>  (1097) 
glide-dock_SP_D22_pv

>  <Molecule ChEMBL ID>  (1097) 
CHEMBL46

>  <Standard Type>  (1097) 
Ki

>  <Standard Value>  (1097) 
10000.0

>  <label>  (1097) 
0

$$$$
CHEMBL3289971
     RDKit          3D

 52 55  0  0  1  0  0  0  0  0999 V2000
   12.3247    4.2506  -13.8473 O   0  0  0  0  0  0  0  0  0  0  0  0
   11.2561    4.6432  -14.7782 S   0  0  0  0  0  0  0  0  0  0  0  0
   11.5355    5.5360  -15.9138 O   0  0  0  0  0  0  0  0  0  0  0  0
    9.9906    5.3723  -13.8701 N   0  0  0  0  0  0  0  0  0  0  0  0
    9.6015    4.8527  -12.5609 C   0  0  0  0  0  0  0  0  0  0  0  0
    8.5834    5.8020  -11.9187 C   0  0  0  0  0  0  0  0  0  0  0  0
    8.4463    5.6162  -10.3966 C   0  0  0  0  0  0  0  0  0  0  0  0
    9.5984    6.0586   -9.6061 N   0  0  0  0  0  0  0  0  0  0  0  0
    9.7955    7.5121   -9.7170 C   0  0  0  0  0  0  0  0  0  0  0  0
   10.9916    7.9629   -8.8536 C   0  0  0  0  0  0  0  0  0  0  0  0
   10.7948    7.5610   -7.4658 N   0  0  0  0  0  0  0  0  0  0  0  0
   11.0409    8.4527   -6.4070 C   0  0  0  0  0  0  0  0  0  0  0  0
   10.9686    9.7726   -6.5584 N   0  0  0  0  0  0  0  0  0  0  0  0
   11.2851   10.3603   -5.3064 O   0  0  0  0  0  0  0  0  0  0  0  0
   11.5897    9.3699   -4.3872 C   0  0  0  0  0  0  0  0  0  0  0  0
   11.9884    9.4471   -3.0468 C   0  0  0  0  0  0  0  0  0  0  0  0
   12.2364    8.2421   -2.3577 C   0  0  0  0  0  0  0  0  0  0  0  0
   12.0861    7.0019   -3.0217 C   0  0  0  0  0  0  0  0  0  0  0  0
   11.6860    6.9524   -4.3757 C   0  0  0  0  0  0  0  0  0  0  0  0
   11.4233    8.1588   -5.0680 C   0  0  0  0  0  0  0  0  0  0  0  0
   10.4167    6.1725   -7.2587 C   0  0  0  0  0  0  0  0  0  0  0  0
    9.2695    5.7733   -8.2045 C   0  0  0  0  0  0  0  0  0  0  0  0
   10.4708    3.1701  -15.4114 C   0  0  0  0  0  0  0  0  0  0  0  0
   10.4835    1.9818  -14.6535 C   0  0  0  0  0  0  0  0  0  0  0  0
    9.8828    0.8189  -15.1778 C   0  0  0  0  0  0  0  0  0  0  0  0
    9.2681    0.8546  -16.4458 C   0  0  0  0  0  0  0  0  0  0  0  0
    8.7025   -0.2663  -16.9500 F   0  0  0  0  0  0  0  0  0  0  0  0
    9.2439    2.0515  -17.1905 C   0  0  0  0  0  0  0  0  0  0  0  0
    8.4859    2.0990  -18.7394 Cl  0  0  0  0  0  0  0  0  0  0  0  0
    9.8472    3.2130  -16.6735 C   0  0  0  0  0  0  0  0  0  0  0  0
    9.2135    5.6890  -14.4505 H   0  0  0  0  0  0  0  0  0  0  0  0
    9.1880    3.8480  -12.6598 H   0  0  0  0  0  0  0  0  0  0  0  0
   10.4857    4.7742  -11.9356 H   0  0  0  0  0  0  0  0  0  0  0  0
    8.8106    6.8383  -12.1628 H   0  0  0  0  0  0  0  0  0  0  0  0
    7.6097    5.6195  -12.3749 H   0  0  0  0  0  0  0  0  0  0  0  0
    7.5777    6.1678  -10.0521 H   0  0  0  0  0  0  0  0  0  0  0  0
    8.2429    4.5653  -10.1882 H   0  0  0  0  0  0  0  0  0  0  0  0
   10.0094    7.7939  -10.7462 H   0  0  0  0  0  0  0  0  0  0  0  0
    8.8892    8.0458   -9.4236 H   0  0  0  0  0  0  0  0  0  0  0  0
   11.9090    7.5050   -9.2241 H   0  0  0  0  0  0  0  0  0  0  0  0
   11.1211    9.0401   -8.9520 H   0  0  0  0  0  0  0  0  0  0  0  0
   12.0865   10.4052   -2.5560 H   0  0  0  0  0  0  0  0  0  0  0  0
   12.5386    8.2696   -1.3222 H   0  0  0  0  0  0  0  0  0  0  0  0
   12.2815    6.0818   -2.4888 H   0  0  0  0  0  0  0  0  0  0  0  0
   11.6106    5.9918   -4.8592 H   0  0  0  0  0  0  0  0  0  0  0  0
   11.2856    5.5305   -7.4100 H   0  0  0  0  0  0  0  0  0  0  0  0
   10.0571    6.0320   -6.2427 H   0  0  0  0  0  0  0  0  0  0  0  0
    8.3592    6.3033   -7.9154 H   0  0  0  0  0  0  0  0  0  0  0  0
    9.0631    4.7097   -8.0842 H   0  0  0  0  0  0  0  0  0  0  0  0
   10.9578    1.9614  -13.6839 H   0  0  0  0  0  0  0  0  0  0  0  0
    9.8918   -0.0976  -14.6045 H   0  0  0  0  0  0  0  0  0  0  0  0
    9.8339    4.1269  -17.2486 H   0  0  0  0  0  0  0  0  0  0  0  0
  2  1  2  0
  3  2  2  0
  4  2  1  0
  5  4  1  0
  6  5  1  0
  7  6  1  0
  8  7  1  0
  9  8  1  0
 10  9  1  0
 11 10  1  0
 12 11  1  0
 13 12  2  0
 14 13  1  0
 15 14  1  0
 16 15  2  0
 17 16  1  0
 18 17  2  0
 19 18  1  0
 20 12  1  0
 20 15  1  0
 20 19  2  0
 21 11  1  0
 22  8  1  0
 22 21  1  0
 23  2  1  0
 24 23  1  0
 25 24  2  0
 26 25  1  0
 27 26  1  0
 28 26  2  0
 29 28  1  0
 30 23  2  0
 30 28  1  0
 31  4  1  0
 32  5  1  0
 33  5  1  0
 34  6  1  0
 35  6  1  0
 36  7  1  0
 37  7  1  0
 38  9  1  0
 39  9  1  0
 40 10  1  0
 41 10  1  0
 42 16  1  0
 43 17  1  0
 44 18  1  0
 45 19  1  0
 46 21  1  0
 47 21  1  0
 48 22  1  0
 49 22  1  0
 50 24  1  0
 51 25  1  0
 52 30  1  0
M  END
>  <b_m_subgroup_collapsed>  (1098) 
0

>  <r_i_docking_score>  (1098) 
-6.7467090941974002

>  <s_m_subgroup_title>  (1098) 
glide-dock_SP_D22_pv

>  <s_m_subgroupid>  (1098) 
glide-dock_SP_D22_pv

>  <Molecule ChEMBL ID>  (1098) 
CHEMBL3289971

>  <Standard Type>  (1098) 
Ki

>  <Standard Value>  (1098) 
10000.0

>  <label>  (1098) 
0

$$$$
CHEMBL272853
     RDKit          3D

 50 53  0  0  1  0  0  0  0  0999 V2000
   12.4861    6.4166   -1.9730 F   0  0  0  0  0  0  0  0  0  0  0  0
   11.6221    7.2783   -2.4925 C   0  0  0  0  0  0  0  0  0  0  0  0
   12.3560    8.2947   -3.3863 C   0  0  0  0  0  0  0  0  0  0  0  0
   11.4698    9.0099   -4.2497 O   0  0  0  0  0  0  0  0  0  0  0  0
   11.1459    8.4340   -5.4618 C   0  0  0  0  0  0  0  0  0  0  0  0
   10.6604    9.2663   -6.4916 C   0  0  0  0  0  0  0  0  0  0  0  0
   10.3601    8.7413   -7.7681 C   0  0  0  0  0  0  0  0  0  0  0  0
   10.5499    7.3688   -8.0410 C   0  0  0  0  0  0  0  0  0  0  0  0
   10.2932    6.7994   -9.3022 N   0  0  0  0  0  0  0  0  0  0  0  0
    9.6870    5.4741   -9.3870 C   0  0  0  0  0  0  0  0  0  0  0  0
    8.3996    5.5447  -10.2044 C   0  0  0  0  0  0  0  0  0  0  0  0
    8.6253    6.1893  -11.5244 N   0  0  0  0  0  0  0  0  0  0  0  0
    7.4196    6.1770  -12.3882 C   0  0  0  0  0  0  0  0  0  0  0  0
    7.0875    4.7976  -12.8608 C   0  0  0  0  0  0  0  0  0  0  0  0
    5.9912    4.0232  -12.4075 C   0  0  0  0  0  0  0  0  0  0  0  0
    6.0858    2.8432  -13.0850 C   0  0  0  0  0  0  0  0  0  0  0  0
    5.3648    1.6235  -13.1117 C   0  0  0  0  0  0  0  0  0  0  0  0
    5.8046    0.5964  -13.9175 C   0  0  0  0  0  0  0  0  0  0  0  0
    6.9665    0.7570  -14.7175 C   0  0  0  0  0  0  0  0  0  0  0  0
    7.6658    1.9430  -14.7014 C   0  0  0  0  0  0  0  0  0  0  0  0
    7.2310    2.9543  -13.8987 N   0  0  0  0  0  0  0  0  0  0  0  0
    7.8377    4.1758  -13.7437 N   0  0  0  0  0  0  0  0  0  0  0  0
    9.2100    7.5520  -11.3821 C   0  0  0  0  0  0  0  0  0  0  0  0
   10.5007    7.5331  -10.5437 C   0  0  0  0  0  0  0  0  0  0  0  0
   11.0158    6.5475   -7.0041 C   0  0  0  0  0  0  0  0  0  0  0  0
   11.2861    7.0542   -5.7296 C   0  0  0  0  0  0  0  0  0  0  0  0
   11.1141    7.7724   -1.6686 H   0  0  0  0  0  0  0  0  0  0  0  0
   10.8904    6.6713   -3.0229 H   0  0  0  0  0  0  0  0  0  0  0  0
   13.1451    7.8022   -3.9614 H   0  0  0  0  0  0  0  0  0  0  0  0
   12.8705    9.0177   -2.7532 H   0  0  0  0  0  0  0  0  0  0  0  0
   10.5289   10.3231   -6.3052 H   0  0  0  0  0  0  0  0  0  0  0  0
    9.9778    9.3953   -8.5341 H   0  0  0  0  0  0  0  0  0  0  0  0
   10.3889    4.7809   -9.8456 H   0  0  0  0  0  0  0  0  0  0  0  0
    9.4426    5.0715   -8.4049 H   0  0  0  0  0  0  0  0  0  0  0  0
    7.9835    4.5442  -10.3202 H   0  0  0  0  0  0  0  0  0  0  0  0
    7.6844    6.1302   -9.6347 H   0  0  0  0  0  0  0  0  0  0  0  0
    6.5647    6.5729  -11.8482 H   0  0  0  0  0  0  0  0  0  0  0  0
    7.5821    6.8289  -13.2463 H   0  0  0  0  0  0  0  0  0  0  0  0
    5.2662    4.3087  -11.6600 H   0  0  0  0  0  0  0  0  0  0  0  0
    4.4862    1.5150  -12.4918 H   0  0  0  0  0  0  0  0  0  0  0  0
    5.2613   -0.3429  -13.9407 H   0  0  0  0  0  0  0  0  0  0  0  0
    7.3058   -0.0621  -15.3437 H   0  0  0  0  0  0  0  0  0  0  0  0
    8.5649    2.1189  -15.2811 H   0  0  0  0  0  0  0  0  0  0  0  0
    9.4258    7.9764  -12.3616 H   0  0  0  0  0  0  0  0  0  0  0  0
    8.4863    8.2180  -10.9108 H   0  0  0  0  0  0  0  0  0  0  0  0
   10.8590    8.5473  -10.3647 H   0  0  0  0  0  0  0  0  0  0  0  0
   11.2905    7.0304  -11.1014 H   0  0  0  0  0  0  0  0  0  0  0  0
   11.2001    5.4977   -7.1817 H   0  0  0  0  0  0  0  0  0  0  0  0
   11.6632    6.3600   -4.9971 H   0  0  0  0  0  0  0  0  0  0  0  0
    9.3107    5.6273  -12.0084 H   0  0  0  0  0  0  0  0  0  0  0  0
  2  1  1  0
  3  2  1  0
  4  3  1  0
  5  4  1  0
  6  5  1  0
  7  6  2  0
  8  7  1  0
  9  8  1  0
 10  9  1  0
 11 10  1  0
 12 11  1  0
 13 12  1  0
 14 13  1  0
 15 14  1  0
 16 15  2  0
 17 16  1  0
 18 17  2  0
 19 18  1  0
 20 19  2  0
 21 16  1  0
 21 20  1  0
 22 14  2  0
 22 21  1  0
 23 12  1  0
 24  9  1  0
 24 23  1  0
 25  8  2  0
 26  5  2  0
 26 25  1  0
 27  2  1  0
 28  2  1  0
 29  3  1  0
 30  3  1  0
 31  6  1  0
 32  7  1  0
 33 10  1  0
 34 10  1  0
 35 11  1  0
 36 11  1  0
 37 13  1  0
 38 13  1  0
 39 15  1  0
 40 17  1  0
 41 18  1  0
 42 19  1  0
 43 20  1  0
 44 23  1  0
 45 23  1  0
 46 24  1  0
 47 24  1  0
 48 25  1  0
 49 26  1  0
 50 12  1  0
M  CHG  1  12   1
M  END
>  <b_m_subgroup_collapsed>  (1099) 
0

>  <r_i_docking_score>  (1099) 
-6.7441834006204102

>  <s_m_subgroup_title>  (1099) 
glide-dock_SP_D22_pv

>  <s_m_subgroupid>  (1099) 
glide-dock_SP_D22_pv

>  <Molecule ChEMBL ID>  (1099) 
CHEMBL272853

>  <Standard Type>  (1099) 
Ki

>  <Standard Value>  (1099) 
30000.0

>  <label>  (1099) 
0

$$$$
CHEMBL4099997
     RDKit          3D

 63 66  0  0  1  0  0  0  0  0999 V2000
   12.3193    6.1282   -2.3273 C   0  0  0  0  0  0  0  0  0  0  0  0
   12.0856    7.3827   -3.1009 C   0  0  0  0  0  0  0  0  0  0  0  0
   12.2608    8.6143   -2.4557 C   0  0  0  0  0  0  0  0  0  0  0  0
   11.9533    9.7912   -3.1423 C   0  0  0  0  0  0  0  0  0  0  0  0
   11.4572    9.7578   -4.4559 C   0  0  0  0  0  0  0  0  0  0  0  0
   11.2891    8.5173   -5.0963 C   0  0  0  0  0  0  0  0  0  0  0  0
   10.6497    8.5231   -6.7614 S   0  0  0  0  0  0  0  0  0  0  0  0
   11.2862    9.6478   -7.4547 O   0  0  0  0  0  0  0  0  0  0  0  0
    9.1858    8.4083   -6.6891 O   0  0  0  0  0  0  0  0  0  0  0  0
   11.2760    7.0810   -7.4583 N   0  0  0  0  0  0  0  0  0  0  0  0
   10.3903    5.9746   -7.8291 C   0  0  0  0  0  0  0  0  0  0  0  0
    9.7511    6.2074   -9.2047 C   0  0  0  0  0  0  0  0  0  0  0  0
    8.9164    5.0031   -9.6721 C   0  0  0  0  0  0  0  0  0  0  0  0
    8.3454    5.1603  -11.0941 C   0  0  0  0  0  0  0  0  0  0  0  0
    9.3833    4.9553  -12.1433 N   0  0  1  0  0  0  0  0  0  0  0  0
    9.5839    3.5307  -12.5066 C   0  0  0  0  0  0  0  0  0  0  0  0
   10.4937    3.3357  -13.7019 C   0  0  0  0  0  0  0  0  0  0  0  0
   10.9097    4.3218  -14.5143 C   0  0  0  0  0  0  0  0  0  0  0  0
   11.7382    4.0268  -15.7007 C   0  0  0  0  0  0  0  0  0  0  0  0
   12.7330    4.8326  -16.1965 C   0  0  0  0  0  0  0  0  0  0  0  0
   13.2557    6.1566  -15.7369 C   0  0  0  0  0  0  0  0  0  0  0  0
   13.2720    4.1929  -17.3024 N   0  0  0  0  0  0  0  0  0  0  0  0
   12.6545    2.9760  -17.5339 C   0  0  0  0  0  0  0  0  0  0  0  0
   12.8623    1.9877  -18.5139 C   0  0  0  0  0  0  0  0  0  0  0  0
   12.0696    0.8245  -18.5034 C   0  0  0  0  0  0  0  0  0  0  0  0
   11.0716    0.6674  -17.5234 C   0  0  0  0  0  0  0  0  0  0  0  0
   10.0874   -0.7498  -17.5157 Cl  0  0  0  0  0  0  0  0  0  0  0  0
   10.8667    1.6653  -16.5499 C   0  0  0  0  0  0  0  0  0  0  0  0
   11.6597    2.8411  -16.5189 C   0  0  0  0  0  0  0  0  0  0  0  0
   10.4131    5.7325  -14.2583 C   0  0  0  0  0  0  0  0  0  0  0  0
    9.1628    5.7723  -13.3518 C   0  0  0  0  0  0  0  0  0  0  0  0
   11.6263    7.3196   -4.4329 C   0  0  0  0  0  0  0  0  0  0  0  0
   11.3469    5.7726   -1.9872 H   0  0  0  0  0  0  0  0  0  0  0  0
   12.8028    5.3741   -2.9511 H   0  0  0  0  0  0  0  0  0  0  0  0
   12.9298    6.2943   -1.4469 H   0  0  0  0  0  0  0  0  0  0  0  0
   12.6071    8.6683   -1.4338 H   0  0  0  0  0  0  0  0  0  0  0  0
   12.0853   10.7436   -2.6468 H   0  0  0  0  0  0  0  0  0  0  0  0
   11.2088   10.6756   -4.9701 H   0  0  0  0  0  0  0  0  0  0  0  0
   12.0652    7.2422   -8.0828 H   0  0  0  0  0  0  0  0  0  0  0  0
    9.6296    5.8393   -7.0569 H   0  0  0  0  0  0  0  0  0  0  0  0
   10.9844    5.0649   -7.8510 H   0  0  0  0  0  0  0  0  0  0  0  0
   10.5321    6.4204   -9.9347 H   0  0  0  0  0  0  0  0  0  0  0  0
    9.1136    7.0929   -9.1712 H   0  0  0  0  0  0  0  0  0  0  0  0
    8.0863    4.8739   -8.9769 H   0  0  0  0  0  0  0  0  0  0  0  0
    9.5160    4.0955   -9.5976 H   0  0  0  0  0  0  0  0  0  0  0  0
    7.8967    6.1536  -11.1724 H   0  0  0  0  0  0  0  0  0  0  0  0
    7.5237    4.4570  -11.2465 H   0  0  0  0  0  0  0  0  0  0  0  0
    8.6322    3.0984  -12.8033 H   0  0  0  0  0  0  0  0  0  0  0  0
    9.9894    2.9826  -11.6584 H   0  0  0  0  0  0  0  0  0  0  0  0
   10.8052    2.3152  -13.8766 H   0  0  0  0  0  0  0  0  0  0  0  0
   13.3741    6.1725  -14.6542 H   0  0  0  0  0  0  0  0  0  0  0  0
   14.2305    6.3762  -16.1744 H   0  0  0  0  0  0  0  0  0  0  0  0
   12.5712    6.9593  -16.0150 H   0  0  0  0  0  0  0  0  0  0  0  0
   14.0291    4.5841  -17.8451 H   0  0  0  0  0  0  0  0  0  0  0  0
   13.6274    2.1187  -19.2642 H   0  0  0  0  0  0  0  0  0  0  0  0
   12.2249    0.0594  -19.2494 H   0  0  0  0  0  0  0  0  0  0  0  0
   10.0834    1.5214  -15.8222 H   0  0  0  0  0  0  0  0  0  0  0  0
   11.2174    6.3260  -13.8251 H   0  0  0  0  0  0  0  0  0  0  0  0
   10.1778    6.1711  -15.2290 H   0  0  0  0  0  0  0  0  0  0  0  0
    8.9507    6.7978  -13.0461 H   0  0  0  0  0  0  0  0  0  0  0  0
    8.2821    5.4103  -13.8864 H   0  0  0  0  0  0  0  0  0  0  0  0
   11.4845    6.3646   -4.9162 H   0  0  0  0  0  0  0  0  0  0  0  0
   10.2488    5.2897  -11.7485 H   0  0  0  0  0  0  0  0  0  0  0  0
  2  1  1  0
  3  2  1  0
  4  3  2  0
  5  4  1  0
  6  5  2  0
  7  6  1  0
  8  7  2  0
  9  7  2  0
 10  7  1  0
 11 10  1  0
 12 11  1  0
 13 12  1  0
 14 13  1  0
 15 14  1  0
 16 15  1  0
 17 16  1  0
 18 17  2  0
 19 18  1  0
 20 19  2  0
 21 20  1  0
 22 20  1  0
 23 22  1  0
 24 23  2  0
 25 24  1  0
 26 25  2  0
 27 26  1  0
 28 26  1  0
 29 19  1  0
 29 23  1  0
 29 28  2  0
 30 18  1  0
 31 15  1  0
 31 30  1  0
 32  2  2  0
 32  6  1  0
 33  1  1  0
 34  1  1  0
 35  1  1  0
 36  3  1  0
 37  4  1  0
 38  5  1  0
 39 10  1  0
 40 11  1  0
 41 11  1  0
 42 12  1  0
 43 12  1  0
 44 13  1  0
 45 13  1  0
 46 14  1  0
 47 14  1  0
 48 16  1  0
 49 16  1  0
 50 17  1  0
 51 21  1  0
 52 21  1  0
 53 21  1  0
 54 22  1  0
 55 24  1  0
 56 25  1  0
 57 28  1  0
 58 30  1  0
 59 30  1  0
 60 31  1  0
 61 31  1  0
 62 32  1  0
 15 63  1  1
M  CHG  1  15   1
M  END
>  <b_m_subgroup_collapsed>  (1100) 
0

>  <r_i_docking_score>  (1100) 
-6.74339954567332

>  <s_m_subgroup_title>  (1100) 
glide-dock_SP_D22_pv

>  <s_m_subgroupid>  (1100) 
glide-dock_SP_D22_pv

>  <Molecule ChEMBL ID>  (1100) 
CHEMBL4099997

>  <Standard Type>  (1100) 
Ki

>  <Standard Value>  (1100) 
56.0

>  <label>  (1100) 
1

$$$$
CHEMBL63321
     RDKit          3D

 39 41  0  0  1  0  0  0  0  0999 V2000
    8.8402    5.9548  -10.4636 C   0  0  0  0  0  0  0  0  0  0  0  0
    8.3093    5.5434  -11.7873 N   0  0  2  0  0  0  0  0  0  0  0  0
    7.0619    4.7492  -11.6382 C   0  0  0  0  0  0  0  0  0  0  0  0
    6.3117    4.4437  -12.9454 C   0  0  0  0  0  0  0  0  0  0  0  0
    6.9233    3.2869  -13.7178 C   0  0  0  0  0  0  0  0  0  0  0  0
    6.1879    2.0875  -13.8446 C   0  0  0  0  0  0  0  0  0  0  0  0
    6.7659    0.9422  -14.4238 C   0  0  0  0  0  0  0  0  0  0  0  0
    5.8596   -0.5248  -14.4945 Cl  0  0  0  0  0  0  0  0  0  0  0  0
    8.0870    1.0007  -14.9066 C   0  0  0  0  0  0  0  0  0  0  0  0
    8.6864   -0.0979  -15.4554 O   0  0  0  0  0  0  0  0  0  0  0  0
    8.8095    2.2039  -14.8151 C   0  0  0  0  0  0  0  0  0  0  0  0
    8.2417    3.3609  -14.2254 C   0  0  0  0  0  0  0  0  0  0  0  0
    9.0491    4.6582  -14.0950 C   0  0  2  0  0  0  0  0  0  0  0  0
   10.2717    4.6930  -15.0201 C   0  0  0  0  0  0  0  0  0  0  0  0
   11.5851    4.4689  -14.5455 C   0  0  0  0  0  0  0  0  0  0  0  0
   12.6835    4.5737  -15.4198 C   0  0  0  0  0  0  0  0  0  0  0  0
   12.4841    4.8850  -16.7771 C   0  0  0  0  0  0  0  0  0  0  0  0
   11.1820    5.0783  -17.2651 C   0  0  0  0  0  0  0  0  0  0  0  0
   10.0834    4.9728  -16.3928 C   0  0  0  0  0  0  0  0  0  0  0  0
    9.4030    4.9662  -12.6188 C   0  0  0  0  0  0  0  0  0  0  0  0
    9.2079    5.0905   -9.9044 H   0  0  0  0  0  0  0  0  0  0  0  0
    8.0873    6.4462   -9.8495 H   0  0  0  0  0  0  0  0  0  0  0  0
    9.6631    6.6627  -10.5768 H   0  0  0  0  0  0  0  0  0  0  0  0
    7.2370    3.8408  -11.0600 H   0  0  0  0  0  0  0  0  0  0  0  0
    6.3938    5.3771  -11.0527 H   0  0  0  0  0  0  0  0  0  0  0  0
    5.2812    4.1877  -12.6982 H   0  0  0  0  0  0  0  0  0  0  0  0
    6.2419    5.3361  -13.5619 H   0  0  0  0  0  0  0  0  0  0  0  0
    5.1855    2.0209  -13.4489 H   0  0  0  0  0  0  0  0  0  0  0  0
    8.1460   -0.8802  -15.4485 H   0  0  0  0  0  0  0  0  0  0  0  0
    9.8205    2.2097  -15.1926 H   0  0  0  0  0  0  0  0  0  0  0  0
    8.4171    5.4704  -14.4553 H   0  0  0  0  0  0  0  0  0  0  0  0
   11.7756    4.2310  -13.5102 H   0  0  0  0  0  0  0  0  0  0  0  0
   13.6837    4.4297  -15.0435 H   0  0  0  0  0  0  0  0  0  0  0  0
   13.3321    4.9740  -17.4407 H   0  0  0  0  0  0  0  0  0  0  0  0
   11.0245    5.3199  -18.3053 H   0  0  0  0  0  0  0  0  0  0  0  0
    9.0904    5.1380  -16.7820 H   0  0  0  0  0  0  0  0  0  0  0  0
   10.1884    5.7235  -12.6157 H   0  0  0  0  0  0  0  0  0  0  0  0
    9.8202    4.0796  -12.1354 H   0  0  0  0  0  0  0  0  0  0  0  0
    8.0193    6.4045  -12.2334 H   0  0  0  0  0  0  0  0  0  0  0  0
  2  1  1  0
  3  2  1  0
  4  3  1  0
  5  4  1  0
  6  5  1  0
  7  6  2  0
  8  7  1  0
  9  7  1  0
 10  9  1  0
 11  9  2  0
 12  5  2  0
 12 11  1  0
 13 12  1  0
 14 13  1  0
 15 14  2  0
 16 15  1  0
 17 16  2  0
 18 17  1  0
 19 14  1  0
 19 18  2  0
 20  2  1  0
 20 13  1  0
 21  1  1  0
 22  1  1  0
 23  1  1  0
 24  3  1  0
 25  3  1  0
 26  4  1  0
 27  4  1  0
 28  6  1  0
 29 10  1  0
 30 11  1  0
 13 31  1  6
 32 15  1  0
 33 16  1  0
 34 17  1  0
 35 18  1  0
 36 19  1  0
 37 20  1  0
 38 20  1  0
  2 39  1  6
M  CHG  1   2   1
M  END
>  <b_m_subgroup_collapsed>  (1101) 
0

>  <r_i_docking_score>  (1101) 
-6.7421587881458596

>  <s_m_subgroup_title>  (1101) 
glide-dock_SP_D22_pv

>  <s_m_subgroupid>  (1101) 
glide-dock_SP_D22_pv

>  <Molecule ChEMBL ID>  (1101) 
CHEMBL63321

>  <Standard Type>  (1101) 
Ki

>  <Standard Value>  (1101) 
20.0

>  <label>  (1101) 
1

$$$$
CHEMBL4076527
     RDKit          3D

 68 72  0  0  1  0  0  0  0  0999 V2000
    9.1971    6.6836   -6.5616 C   0  0  0  0  0  0  0  0  0  0  0  0
   10.2735    7.4962   -7.1078 N   0  0  0  0  0  0  0  0  0  0  0  0
   10.5192    7.7598   -8.4046 C   0  0  0  0  0  0  0  0  0  0  0  0
    9.5412    7.0108   -9.6626 S   0  0  0  0  0  0  0  0  0  0  0  0
   10.0232    7.8998  -11.1795 C   0  0  0  0  0  0  0  0  0  0  0  0
   10.6354    6.9469  -12.2216 C   0  0  0  0  0  0  0  0  0  0  0  0
    9.6929    5.7775  -12.5793 C   0  0  0  0  0  0  0  0  0  0  0  0
   10.3119    4.7815  -13.4926 N   0  0  0  0  0  0  0  0  0  0  0  0
   10.1306    5.1382  -14.9283 C   0  0  0  0  0  0  0  0  0  0  0  0
   10.7084    4.0716  -15.8830 C   0  0  0  0  0  0  0  0  0  0  0  0
   10.1775    2.6447  -15.5939 C   0  0  0  0  0  0  0  0  0  0  0  0
   10.4793    2.3602  -14.1124 C   0  0  0  0  0  0  0  0  0  0  0  0
    9.8432    3.4041  -13.1780 C   0  0  0  0  0  0  0  0  0  0  0  0
   10.9046    1.5892  -16.4708 C   0  0  0  0  0  0  0  0  0  0  0  0
   10.4738    1.6186  -17.9496 C   0  0  0  0  0  0  0  0  0  0  0  0
    9.0177    1.5349  -18.0613 N   0  0  0  0  0  0  0  0  0  0  0  0
    8.4167    0.8573  -19.1424 C   0  0  0  0  0  0  0  0  0  0  0  0
    8.9644   -0.3518  -19.6347 C   0  0  0  0  0  0  0  0  0  0  0  0
    8.3186   -1.0115  -20.6956 C   0  0  0  0  0  0  0  0  0  0  0  0
    7.1458   -0.4516  -21.2320 C   0  0  0  0  0  0  0  0  0  0  0  0
    6.6714    0.7507  -20.6773 C   0  0  0  0  0  0  0  0  0  0  0  0
    7.2866    1.3908  -19.6612 N   0  0  0  0  0  0  0  0  0  0  0  0
    8.2760    2.5588  -17.3345 C   0  0  0  0  0  0  0  0  0  0  0  0
    8.6503    2.5063  -15.8514 C   0  0  0  0  0  0  0  0  0  0  0  0
   11.5566    8.5727   -8.6004 N   0  0  0  0  0  0  0  0  0  0  0  0
   12.0253    8.8674   -7.3427 N   0  0  0  0  0  0  0  0  0  0  0  0
   11.2619    8.1824   -6.4859 C   0  0  0  0  0  0  0  0  0  0  0  0
   11.5283    8.1840   -5.0505 C   0  0  0  0  0  0  0  0  0  0  0  0
   11.6862    6.9706   -4.3470 C   0  0  0  0  0  0  0  0  0  0  0  0
   12.0135    6.9733   -2.9781 C   0  0  0  0  0  0  0  0  0  0  0  0
   12.1678    8.1976   -2.3001 C   0  0  0  0  0  0  0  0  0  0  0  0
   11.9990    9.4105   -2.9935 C   0  0  0  0  0  0  0  0  0  0  0  0
   11.6847    9.4070   -4.3652 C   0  0  0  0  0  0  0  0  0  0  0  0
    9.3665    6.4394   -5.5143 H   0  0  0  0  0  0  0  0  0  0  0  0
    8.2545    7.2284   -6.6479 H   0  0  0  0  0  0  0  0  0  0  0  0
    9.1143    5.7533   -7.1221 H   0  0  0  0  0  0  0  0  0  0  0  0
   10.7094    8.7203  -10.9708 H   0  0  0  0  0  0  0  0  0  0  0  0
    9.1208    8.3611  -11.5863 H   0  0  0  0  0  0  0  0  0  0  0  0
   11.5847    6.5727  -11.8453 H   0  0  0  0  0  0  0  0  0  0  0  0
   10.8907    7.5189  -13.1116 H   0  0  0  0  0  0  0  0  0  0  0  0
    8.7574    6.1516  -12.9966 H   0  0  0  0  0  0  0  0  0  0  0  0
    9.4163    5.2562  -11.6632 H   0  0  0  0  0  0  0  0  0  0  0  0
   10.6203    6.0893  -15.1282 H   0  0  0  0  0  0  0  0  0  0  0  0
    9.0706    5.2883  -15.1382 H   0  0  0  0  0  0  0  0  0  0  0  0
   11.7952    4.0752  -15.7896 H   0  0  0  0  0  0  0  0  0  0  0  0
   10.5012    4.3623  -16.9128 H   0  0  0  0  0  0  0  0  0  0  0  0
   10.1169    1.3675  -13.8474 H   0  0  0  0  0  0  0  0  0  0  0  0
   11.5582    2.3385  -13.9472 H   0  0  0  0  0  0  0  0  0  0  0  0
   10.0866    3.1569  -12.1446 H   0  0  0  0  0  0  0  0  0  0  0  0
    8.7553    3.3663  -13.2320 H   0  0  0  0  0  0  0  0  0  0  0  0
   10.6994    0.5915  -16.0809 H   0  0  0  0  0  0  0  0  0  0  0  0
   11.9872    1.7098  -16.4015 H   0  0  0  0  0  0  0  0  0  0  0  0
   10.9775    0.8203  -18.4900 H   0  0  0  0  0  0  0  0  0  0  0  0
   10.8002    2.5471  -18.4177 H   0  0  0  0  0  0  0  0  0  0  0  0
    9.8446   -0.7981  -19.1989 H   0  0  0  0  0  0  0  0  0  0  0  0
    8.7091   -1.9405  -21.0834 H   0  0  0  0  0  0  0  0  0  0  0  0
    6.6199   -0.9310  -22.0417 H   0  0  0  0  0  0  0  0  0  0  0  0
    5.7690    1.2093  -21.0561 H   0  0  0  0  0  0  0  0  0  0  0  0
    8.4905    3.5358  -17.7659 H   0  0  0  0  0  0  0  0  0  0  0  0
    7.1996    2.4023  -17.4155 H   0  0  0  0  0  0  0  0  0  0  0  0
    8.3055    1.5519  -15.4501 H   0  0  0  0  0  0  0  0  0  0  0  0
    8.0844    3.2629  -15.3184 H   0  0  0  0  0  0  0  0  0  0  0  0
   11.5821    6.0279   -4.8652 H   0  0  0  0  0  0  0  0  0  0  0  0
   12.1375    6.0377   -2.4532 H   0  0  0  0  0  0  0  0  0  0  0  0
   12.4151    8.2087   -1.2499 H   0  0  0  0  0  0  0  0  0  0  0  0
   12.0920   10.3502   -2.4722 H   0  0  0  0  0  0  0  0  0  0  0  0
   11.5658   10.3400   -4.8966 H   0  0  0  0  0  0  0  0  0  0  0  0
   11.3084    4.7827  -13.3136 H   0  0  0  0  0  0  0  0  0  0  0  0
  2  1  1  0
  3  2  1  0
  4  3  1  0
  5  4  1  0
  6  5  1  0
  7  6  1  0
  8  7  1  0
  9  8  1  0
 10  9  1  0
 11 10  1  0
 12 11  1  0
 13  8  1  0
 13 12  1  0
 14 11  1  0
 15 14  1  0
 16 15  1  0
 17 16  1  0
 18 17  2  0
 19 18  1  0
 20 19  2  0
 21 20  1  0
 22 17  1  0
 22 21  2  0
 23 16  1  0
 24 11  1  0
 24 23  1  0
 25  3  2  0
 26 25  1  0
 27  2  1  0
 27 26  2  0
 28 27  1  0
 29 28  2  0
 30 29  1  0
 31 30  2  0
 32 31  1  0
 33 28  1  0
 33 32  2  0
 34  1  1  0
 35  1  1  0
 36  1  1  0
 37  5  1  0
 38  5  1  0
 39  6  1  0
 40  6  1  0
 41  7  1  0
 42  7  1  0
 43  9  1  0
 44  9  1  0
 45 10  1  0
 46 10  1  0
 47 12  1  0
 48 12  1  0
 49 13  1  0
 50 13  1  0
 51 14  1  0
 52 14  1  0
 53 15  1  0
 54 15  1  0
 55 18  1  0
 56 19  1  0
 57 20  1  0
 58 21  1  0
 59 23  1  0
 60 23  1  0
 61 24  1  0
 62 24  1  0
 63 29  1  0
 64 30  1  0
 65 31  1  0
 66 32  1  0
 67 33  1  0
 68  8  1  0
M  CHG  1   8   1
M  END
>  <b_m_subgroup_collapsed>  (1102) 
0

>  <r_i_docking_score>  (1102) 
-6.7419494148127503

>  <s_m_subgroup_title>  (1102) 
glide-dock_SP_D22_pv

>  <s_m_subgroupid>  (1102) 
glide-dock_SP_D22_pv

>  <Molecule ChEMBL ID>  (1102) 
CHEMBL4076527

>  <Standard Type>  (1102) 
Ki

>  <Standard Value>  (1102) 
83671.0

>  <label>  (1102) 
0

$$$$
CHEMBL417001
     RDKit          3D

 42 43  0  0  1  0  0  0  0  0999 V2000
   12.4863    8.9724   -1.4471 N   0  0  0  0  0  0  0  0  0  0  0  0
   12.1859    8.7590   -2.5397 C   0  0  0  0  0  0  0  0  0  0  0  0
   11.8135    8.4670   -3.9063 C   0  0  0  0  0  0  0  0  0  0  0  0
   11.6854    7.1188   -4.2743 C   0  0  0  0  0  0  0  0  0  0  0  0
   11.3560    6.7985   -5.5969 C   0  0  0  0  0  0  0  0  0  0  0  0
   11.2036    7.7942   -6.5710 C   0  0  0  0  0  0  0  0  0  0  0  0
   11.0522    7.3340   -7.8506 O   0  0  0  0  0  0  0  0  0  0  0  0
   10.3744    8.1290   -8.7990 C   0  0  0  0  0  0  0  0  0  0  0  0
    9.9284    7.1238   -9.8737 C   0  0  1  0  0  0  0  0  0  0  0  0
    8.9654    6.0723   -9.2836 C   0  0  0  0  0  0  0  0  0  0  0  0
    8.4907    5.0801  -10.3504 C   0  0  0  0  0  0  0  0  0  0  0  0
    7.8026    5.7985  -11.4498 N   0  0  2  0  0  0  0  0  0  0  0  0
    7.1881    4.8996  -12.4596 C   0  0  0  0  0  0  0  0  0  0  0  0
    5.9939    4.0872  -11.9321 C   0  0  0  0  0  0  0  0  0  0  0  0
    5.2732    3.3256  -13.0497 C   0  0  0  0  0  0  0  0  0  0  0  0
    6.0948    2.4608  -13.6426 F   0  0  0  0  0  0  0  0  0  0  0  0
    8.7037    6.7986  -12.0878 C   0  0  0  0  0  0  0  0  0  0  0  0
    9.2754    7.8151  -11.0778 C   0  0  0  0  0  0  0  0  0  0  0  0
   11.2903    9.1547   -6.1966 C   0  0  0  0  0  0  0  0  0  0  0  0
   11.5925    9.4879   -4.8575 C   0  0  0  0  0  0  0  0  0  0  0  0
   11.8403    6.3262   -3.5549 H   0  0  0  0  0  0  0  0  0  0  0  0
   11.2829    5.7723   -5.8974 H   0  0  0  0  0  0  0  0  0  0  0  0
    9.5137    8.6380   -8.3601 H   0  0  0  0  0  0  0  0  0  0  0  0
   11.0494    8.8809   -9.2108 H   0  0  0  0  0  0  0  0  0  0  0  0
   10.8166    6.6023  -10.2346 H   0  0  0  0  0  0  0  0  0  0  0  0
    9.4497    5.5183   -8.4786 H   0  0  0  0  0  0  0  0  0  0  0  0
    8.1019    6.5661   -8.8350 H   0  0  0  0  0  0  0  0  0  0  0  0
    7.8245    4.3585   -9.8815 H   0  0  0  0  0  0  0  0  0  0  0  0
    9.3360    4.5153  -10.7474 H   0  0  0  0  0  0  0  0  0  0  0  0
    6.8314    5.5108  -13.2871 H   0  0  0  0  0  0  0  0  0  0  0  0
    7.9491    4.2340  -12.8703 H   0  0  0  0  0  0  0  0  0  0  0  0
    6.3166    3.3723  -11.1757 H   0  0  0  0  0  0  0  0  0  0  0  0
    5.2808    4.7578  -11.4516 H   0  0  0  0  0  0  0  0  0  0  0  0
    4.4330    2.7516  -12.6598 H   0  0  0  0  0  0  0  0  0  0  0  0
    4.9021    4.0026  -13.8195 H   0  0  0  0  0  0  0  0  0  0  0  0
    8.1509    7.3433  -12.8542 H   0  0  0  0  0  0  0  0  0  0  0  0
    9.5204    6.2792  -12.5920 H   0  0  0  0  0  0  0  0  0  0  0  0
    8.4860    8.4803  -10.7316 H   0  0  0  0  0  0  0  0  0  0  0  0
   10.0021    8.4573  -11.5766 H   0  0  0  0  0  0  0  0  0  0  0  0
   11.1737    9.9400   -6.9284 H   0  0  0  0  0  0  0  0  0  0  0  0
   11.6816   10.5259   -4.5741 H   0  0  0  0  0  0  0  0  0  0  0  0
    7.0638    6.3548  -11.0163 H   0  0  0  0  0  0  0  0  0  0  0  0
  2  1  3  0
  3  2  1  0
  4  3  1  0
  5  4  2  0
  6  5  1  0
  7  6  1  0
  8  7  1  0
  9  8  1  0
 10  9  1  0
 11 10  1  0
 12 11  1  0
 13 12  1  0
 14 13  1  0
 15 14  1  0
 16 15  1  0
 17 12  1  0
 18  9  1  0
 18 17  1  0
 19  6  2  0
 20  3  2  0
 20 19  1  0
 21  4  1  0
 22  5  1  0
 23  8  1  0
 24  8  1  0
  9 25  1  6
 26 10  1  0
 27 10  1  0
 28 11  1  0
 29 11  1  0
 30 13  1  0
 31 13  1  0
 32 14  1  0
 33 14  1  0
 34 15  1  0
 35 15  1  0
 36 17  1  0
 37 17  1  0
 38 18  1  0
 39 18  1  0
 40 19  1  0
 41 20  1  0
 12 42  1  1
M  CHG  1  12   1
M  END
>  <b_m_subgroup_collapsed>  (1103) 
0

>  <r_i_docking_score>  (1103) 
-6.7377266348982197

>  <s_m_subgroup_title>  (1103) 
glide-dock_SP_D22_pv

>  <s_m_subgroupid>  (1103) 
glide-dock_SP_D22_pv

>  <Molecule ChEMBL ID>  (1103) 
CHEMBL417001

>  <Standard Type>  (1103) 
Ki

>  <Standard Value>  (1103) 
10000.0

>  <label>  (1103) 
0

$$$$
CHEMBL4173260
     RDKit          3D

 49 51  0  0  1  0  0  0  0  0999 V2000
    6.9994    1.3821  -15.3865 C   0  0  0  0  0  0  0  0  0  0  0  0
    7.3680    2.2483  -14.2469 N   0  0  0  0  0  0  0  0  0  0  0  0
    6.2670    3.1500  -13.8269 C   0  0  0  0  0  0  0  0  0  0  0  0
    6.6757    3.9942  -12.6078 C   0  0  0  0  0  0  0  0  0  0  0  0
    7.8943    4.7619  -12.8777 N   0  0  0  0  0  0  0  0  0  0  0  0
    8.2231    5.4571  -11.6327 C   0  0  0  0  0  0  0  0  0  0  0  0
    9.2631    6.5784  -11.7994 C   0  0  0  0  0  0  0  0  0  0  0  0
    9.9436    6.9251  -10.4657 C   0  0  0  0  0  0  0  0  0  0  0  0
    8.9683    7.4012   -9.3717 C   0  0  0  0  0  0  0  0  0  0  0  0
    9.6239    7.5513   -8.0826 N   0  0  0  0  0  0  0  0  0  0  0  0
   10.5139    8.4967   -7.7613 C   0  0  0  0  0  0  0  0  0  0  0  0
   10.8938    9.3696   -8.5357 O   0  0  0  0  0  0  0  0  0  0  0  0
   10.9866    8.3927   -6.3580 C   0  0  0  0  0  0  0  0  0  0  0  0
   11.2304    7.2111   -5.7141 C   0  0  0  0  0  0  0  0  0  0  0  0
   11.6861    7.5405   -4.4562 N   0  0  0  0  0  0  0  0  0  0  0  0
   12.0846    6.7498   -3.4290 C   0  0  0  0  0  0  0  0  0  0  0  0
   12.4830    7.3201   -2.2531 C   0  0  0  0  0  0  0  0  0  0  0  0
   12.4837    8.7231   -2.1021 C   0  0  0  0  0  0  0  0  0  0  0  0
   12.0857    9.5255   -3.1431 C   0  0  0  0  0  0  0  0  0  0  0  0
   11.6858    8.9539   -4.3791 C   0  0  0  0  0  0  0  0  0  0  0  0
   11.2749    9.4775   -5.5324 N   0  0  0  0  0  0  0  0  0  0  0  0
    8.9820    3.8403  -13.2354 C   0  0  0  0  0  0  0  0  0  0  0  0
    8.6087    3.0235  -14.4843 C   0  0  0  0  0  0  0  0  0  0  0  0
    6.7819    1.9737  -16.2751 H   0  0  0  0  0  0  0  0  0  0  0  0
    7.8092    0.6925  -15.6228 H   0  0  0  0  0  0  0  0  0  0  0  0
    6.1171    0.7870  -15.1480 H   0  0  0  0  0  0  0  0  0  0  0  0
    5.3849    2.5580  -13.5757 H   0  0  0  0  0  0  0  0  0  0  0  0
    5.9819    3.8040  -14.6468 H   0  0  0  0  0  0  0  0  0  0  0  0
    6.8102    3.3722  -11.7236 H   0  0  0  0  0  0  0  0  0  0  0  0
    5.8635    4.6841  -12.3695 H   0  0  0  0  0  0  0  0  0  0  0  0
    8.5611    4.7327  -10.8871 H   0  0  0  0  0  0  0  0  0  0  0  0
    7.3158    5.9084  -11.2232 H   0  0  0  0  0  0  0  0  0  0  0  0
    8.7818    7.4622  -12.2199 H   0  0  0  0  0  0  0  0  0  0  0  0
   10.0404    6.2958  -12.5073 H   0  0  0  0  0  0  0  0  0  0  0  0
   10.6937    7.6950  -10.6480 H   0  0  0  0  0  0  0  0  0  0  0  0
   10.4859    6.0498  -10.1074 H   0  0  0  0  0  0  0  0  0  0  0  0
    8.1771    6.6658   -9.2245 H   0  0  0  0  0  0  0  0  0  0  0  0
    8.4880    8.3394   -9.6533 H   0  0  0  0  0  0  0  0  0  0  0  0
    9.3472    6.9129   -7.3532 H   0  0  0  0  0  0  0  0  0  0  0  0
   11.1449    6.1749   -6.0120 H   0  0  0  0  0  0  0  0  0  0  0  0
   12.0647    5.6839   -3.5959 H   0  0  0  0  0  0  0  0  0  0  0  0
   12.8150    6.6753   -1.4469 H   0  0  0  0  0  0  0  0  0  0  0  0
   12.8027    9.1769   -1.1686 H   0  0  0  0  0  0  0  0  0  0  0  0
   12.0772   10.5992   -3.0292 H   0  0  0  0  0  0  0  0  0  0  0  0
    9.8885    4.4044  -13.4550 H   0  0  0  0  0  0  0  0  0  0  0  0
    9.2320    3.1779  -12.4059 H   0  0  0  0  0  0  0  0  0  0  0  0
    9.4224    2.3389  -14.7249 H   0  0  0  0  0  0  0  0  0  0  0  0
    8.4887    3.6818  -15.3440 H   0  0  0  0  0  0  0  0  0  0  0  0
    7.5587    1.6405  -13.4648 H   0  0  0  0  0  0  0  0  0  0  0  0
  2  1  1  0
  3  2  1  0
  4  3  1  0
  5  4  1  0
  6  5  1  0
  7  6  1  0
  8  7  1  0
  9  8  1  0
 10  9  1  0
 11 10  1  0
 12 11  2  0
 13 11  1  0
 14 13  2  0
 15 14  1  0
 16 15  1  0
 17 16  2  0
 18 17  1  0
 19 18  2  0
 20 15  1  0
 20 19  1  0
 21 13  1  0
 21 20  2  0
 22  5  1  0
 23  2  1  0
 23 22  1  0
 24  1  1  0
 25  1  1  0
 26  1  1  0
 27  3  1  0
 28  3  1  0
 29  4  1  0
 30  4  1  0
 31  6  1  0
 32  6  1  0
 33  7  1  0
 34  7  1  0
 35  8  1  0
 36  8  1  0
 37  9  1  0
 38  9  1  0
 39 10  1  0
 40 14  1  0
 41 16  1  0
 42 17  1  0
 43 18  1  0
 44 19  1  0
 45 22  1  0
 46 22  1  0
 47 23  1  0
 48 23  1  0
 49  2  1  0
M  CHG  1   2   1
M  END
>  <b_m_subgroup_collapsed>  (1104) 
0

>  <r_i_docking_score>  (1104) 
-6.7356945526441701

>  <s_m_subgroup_title>  (1104) 
glide-dock_SP_D22_pv

>  <s_m_subgroupid>  (1104) 
glide-dock_SP_D22_pv

>  <Molecule ChEMBL ID>  (1104) 
CHEMBL4173260

>  <Standard Type>  (1104) 
Ki

>  <Standard Value>  (1104) 
10000.0

>  <label>  (1104) 
0

$$$$
CHEMBL252430
     RDKit          3D

 64 69  0  0  1  0  0  0  0  0999 V2000
    8.1739    2.5147  -18.0777 O   0  0  0  0  0  0  0  0  0  0  0  0
    9.1871    1.8366  -18.2529 C   0  0  0  0  0  0  0  0  0  0  0  0
    9.7363    1.0326  -17.3224 N   0  0  0  0  0  0  0  0  0  0  0  0
    9.2622    0.7782  -15.9603 C   0  0  2  0  0  0  0  0  0  0  0  0
    7.7765    0.3334  -15.8808 C   0  0  0  0  0  0  0  0  0  0  0  0
    6.9875    1.5045  -15.2518 C   0  0  0  0  0  0  0  0  0  0  0  0
    8.0520    2.3817  -14.6559 C   0  0  0  0  0  0  0  0  0  0  0  0
    7.8624    3.4808  -13.8011 C   0  0  0  0  0  0  0  0  0  0  0  0
    9.0057    4.1718  -13.3376 C   0  0  0  0  0  0  0  0  0  0  0  0
    8.8650    5.3173  -12.3535 C   0  0  0  0  0  0  0  0  0  0  0  0
    9.1502    4.8601  -10.9064 C   0  0  0  0  0  0  0  0  0  0  0  0
    9.1893    5.9688   -9.9537 N   0  0  0  0  0  0  0  0  0  0  0  0
    9.2025    5.4474   -8.5799 C   0  0  0  0  0  0  0  0  0  0  0  0
    9.2665    6.5955   -7.5409 C   0  0  0  0  0  0  0  0  0  0  0  0
   10.4197    7.4582   -7.7906 N   0  0  0  0  0  0  0  0  0  0  0  0
   10.8741    8.3536   -6.7938 C   0  0  0  0  0  0  0  0  0  0  0  0
   11.0274    9.6183   -7.1171 N   0  0  0  0  0  0  0  0  0  0  0  0
   11.5993   10.5011   -5.8424 S   0  0  0  0  0  0  0  0  0  0  0  0
   11.6795    9.1528   -4.7356 C   0  0  0  0  0  0  0  0  0  0  0  0
   12.0858    9.1279   -3.3895 C   0  0  0  0  0  0  0  0  0  0  0  0
   12.0874    7.9102   -2.6911 C   0  0  0  0  0  0  0  0  0  0  0  0
   11.6961    6.7326   -3.3518 C   0  0  0  0  0  0  0  0  0  0  0  0
   11.2862    6.7711   -4.7011 C   0  0  0  0  0  0  0  0  0  0  0  0
   11.2473    7.9823   -5.4344 C   0  0  0  0  0  0  0  0  0  0  0  0
   10.4037    7.9426   -9.1703 C   0  0  0  0  0  0  0  0  0  0  0  0
   10.4014    6.7674  -10.1383 C   0  0  0  0  0  0  0  0  0  0  0  0
   10.2985    3.7822  -13.7733 C   0  0  0  0  0  0  0  0  0  0  0  0
   10.4678    2.6855  -14.6462 C   0  0  0  0  0  0  0  0  0  0  0  0
    9.3207    1.9905  -15.0656 C   0  0  0  0  0  0  0  0  0  0  0  0
    9.9302    1.9157  -19.5533 C   0  0  0  0  0  0  0  0  0  0  0  0
    9.9227    3.1078  -20.3089 C   0  0  0  0  0  0  0  0  0  0  0  0
   10.6077    3.1405  -21.5385 C   0  0  0  0  0  0  0  0  0  0  0  0
   11.2677    1.9750  -21.9712 C   0  0  0  0  0  0  0  0  0  0  0  0
   11.2730    0.8241  -21.2671 N   0  0  0  0  0  0  0  0  0  0  0  0
   10.6124    0.8001  -20.0905 C   0  0  0  0  0  0  0  0  0  0  0  0
   10.5934    0.5647  -17.5735 H   0  0  0  0  0  0  0  0  0  0  0  0
    9.8981    0.0016  -15.5332 H   0  0  0  0  0  0  0  0  0  0  0  0
    7.3569   -0.0130  -16.8260 H   0  0  0  0  0  0  0  0  0  0  0  0
    7.7175   -0.5098  -15.1910 H   0  0  0  0  0  0  0  0  0  0  0  0
    6.2557    1.1768  -14.5128 H   0  0  0  0  0  0  0  0  0  0  0  0
    6.4860    2.0798  -16.0284 H   0  0  0  0  0  0  0  0  0  0  0  0
    6.8702    3.7683  -13.4838 H   0  0  0  0  0  0  0  0  0  0  0  0
    9.5444    6.1013  -12.6815 H   0  0  0  0  0  0  0  0  0  0  0  0
    7.8619    5.7419  -12.4163 H   0  0  0  0  0  0  0  0  0  0  0  0
    8.3567    4.1724  -10.6124 H   0  0  0  0  0  0  0  0  0  0  0  0
   10.0843    4.2991  -10.8571 H   0  0  0  0  0  0  0  0  0  0  0  0
    8.3028    4.8537   -8.4072 H   0  0  0  0  0  0  0  0  0  0  0  0
   10.0562    4.7805   -8.4475 H   0  0  0  0  0  0  0  0  0  0  0  0
    8.3594    7.1979   -7.5954 H   0  0  0  0  0  0  0  0  0  0  0  0
    9.2986    6.1796   -6.5359 H   0  0  0  0  0  0  0  0  0  0  0  0
   12.3972   10.0376   -2.8962 H   0  0  0  0  0  0  0  0  0  0  0  0
   12.3966    7.8792   -1.6566 H   0  0  0  0  0  0  0  0  0  0  0  0
   11.7058    5.7926   -2.8196 H   0  0  0  0  0  0  0  0  0  0  0  0
   10.9987    5.8490   -5.1809 H   0  0  0  0  0  0  0  0  0  0  0  0
    9.5337    8.5803   -9.3360 H   0  0  0  0  0  0  0  0  0  0  0  0
   11.2904    8.5442   -9.3745 H   0  0  0  0  0  0  0  0  0  0  0  0
   11.2860    6.1724   -9.9375 H   0  0  0  0  0  0  0  0  0  0  0  0
   10.4803    7.1564  -11.1507 H   0  0  0  0  0  0  0  0  0  0  0  0
   11.1691    4.3170  -13.4213 H   0  0  0  0  0  0  0  0  0  0  0  0
   11.4518    2.3792  -14.9691 H   0  0  0  0  0  0  0  0  0  0  0  0
    9.4045    3.9878  -19.9553 H   0  0  0  0  0  0  0  0  0  0  0  0
   10.6244    4.0389  -22.1379 H   0  0  0  0  0  0  0  0  0  0  0  0
   11.8023    1.9663  -22.9099 H   0  0  0  0  0  0  0  0  0  0  0  0
   10.6347   -0.1458  -19.5681 H   0  0  0  0  0  0  0  0  0  0  0  0
  2  1  2  0
  3  2  1  0
  4  3  1  0
  5  4  1  0
  6  5  1  0
  7  6  1  0
  8  7  1  0
  9  8  2  0
 10  9  1  0
 11 10  1  0
 12 11  1  0
 13 12  1  0
 14 13  1  0
 15 14  1  0
 16 15  1  0
 17 16  2  0
 18 17  1  0
 19 18  1  0
 20 19  2  0
 21 20  1  0
 22 21  2  0
 23 22  1  0
 24 16  1  0
 24 19  1  0
 24 23  2  0
 25 15  1  0
 26 12  1  0
 26 25  1  0
 27  9  1  0
 28 27  2  0
 29  4  1  0
 29  7  2  0
 29 28  1  0
 30  2  1  0
 31 30  1  0
 32 31  2  0
 33 32  1  0
 34 33  2  0
 35 30  2  0
 35 34  1  0
 36  3  1  0
  4 37  1  1
 38  5  1  0
 39  5  1  0
 40  6  1  0
 41  6  1  0
 42  8  1  0
 43 10  1  0
 44 10  1  0
 45 11  1  0
 46 11  1  0
 47 13  1  0
 48 13  1  0
 49 14  1  0
 50 14  1  0
 51 20  1  0
 52 21  1  0
 53 22  1  0
 54 23  1  0
 55 25  1  0
 56 25  1  0
 57 26  1  0
 58 26  1  0
 59 27  1  0
 60 28  1  0
 61 31  1  0
 62 32  1  0
 63 33  1  0
 64 35  1  0
M  END
>  <b_m_subgroup_collapsed>  (1105) 
0

>  <r_i_docking_score>  (1105) 
-6.7335842732035003

>  <s_m_subgroup_title>  (1105) 
glide-dock_SP_D22_pv

>  <s_m_subgroupid>  (1105) 
glide-dock_SP_D22_pv

>  <Molecule ChEMBL ID>  (1105) 
CHEMBL252430

>  <Standard Type>  (1105) 
Ki

>  <Standard Value>  (1105) 
5.0

>  <label>  (1105) 
1

$$$$
CHEMBL5187578
     RDKit          3D

 28 29  0  0  1  0  0  0  0  0999 V2000
   12.3753    7.8517   -1.9451 O   0  0  0  0  0  0  0  0  0  0  0  0
   12.0864    8.7312   -2.7536 C   0  0  0  0  0  0  0  0  0  0  0  0
   11.7269    8.4775   -4.1659 C   0  0  0  0  0  0  0  0  0  0  0  0
   11.5837    9.5630   -5.0508 C   0  0  0  0  0  0  0  0  0  0  0  0
   11.3557    9.3398   -6.4210 C   0  0  0  0  0  0  0  0  0  0  0  0
   11.2384    8.0293   -6.9298 C   0  0  0  0  0  0  0  0  0  0  0  0
   11.1336    7.7989   -8.3841 C   0  0  0  0  0  0  0  0  0  0  0  0
   12.0900    8.3797   -9.2430 C   0  0  0  0  0  0  0  0  0  0  0  0
   12.0500    8.1710  -10.6325 C   0  0  0  0  0  0  0  0  0  0  0  0
   11.0338    7.3773  -11.1878 C   0  0  0  0  0  0  0  0  0  0  0  0
   10.0762    6.7849  -10.3475 C   0  0  0  0  0  0  0  0  0  0  0  0
   10.1261    6.9781   -8.9419 C   0  0  0  0  0  0  0  0  0  0  0  0
    9.2454    6.3947   -8.0613 O   0  0  0  0  0  0  0  0  0  0  0  0
    8.4860    5.3477   -8.4586 C   0  0  0  0  0  0  0  0  0  0  0  0
    9.2610    4.2515   -8.6530 F   0  0  0  0  0  0  0  0  0  0  0  0
   11.2859    6.9506   -6.0186 C   0  0  0  0  0  0  0  0  0  0  0  0
   11.5485    7.1649   -4.6506 C   0  0  0  0  0  0  0  0  0  0  0  0
   12.0865    9.7844   -2.4724 H   0  0  0  0  0  0  0  0  0  0  0  0
   11.6824   10.5723   -4.6910 H   0  0  0  0  0  0  0  0  0  0  0  0
   11.2972   10.1823   -7.0928 H   0  0  0  0  0  0  0  0  0  0  0  0
   12.8888    8.9742   -8.8274 H   0  0  0  0  0  0  0  0  0  0  0  0
   12.7987    8.6232  -11.2669 H   0  0  0  0  0  0  0  0  0  0  0  0
   10.9909    7.2179  -12.2553 H   0  0  0  0  0  0  0  0  0  0  0  0
    9.3176    6.1765  -10.8138 H   0  0  0  0  0  0  0  0  0  0  0  0
    7.7878    5.1161   -7.6571 H   0  0  0  0  0  0  0  0  0  0  0  0
    7.9275    5.5776   -9.3638 H   0  0  0  0  0  0  0  0  0  0  0  0
   11.1907    5.9382   -6.3826 H   0  0  0  0  0  0  0  0  0  0  0  0
   11.6336    6.3146   -3.9882 H   0  0  0  0  0  0  0  0  0  0  0  0
  2  1  2  0
  3  2  1  0
  4  3  1  0
  5  4  2  0
  6  5  1  0
  7  6  1  0
  8  7  2  0
  9  8  1  0
 10  9  2  0
 11 10  1  0
 12  7  1  0
 12 11  2  0
 13 12  1  0
 14 13  1  0
 15 14  1  0
 16  6  2  0
 17  3  2  0
 17 16  1  0
 18  2  1  0
 19  4  1  0
 20  5  1  0
 21  8  1  0
 22  9  1  0
 23 10  1  0
 24 11  1  0
 25 14  1  0
 26 14  1  0
 27 16  1  0
 28 17  1  0
M  END
>  <b_m_subgroup_collapsed>  (1106) 
0

>  <r_i_docking_score>  (1106) 
-6.7325090481903702

>  <s_m_subgroup_title>  (1106) 
glide-dock_SP_D22_pv

>  <s_m_subgroupid>  (1106) 
glide-dock_SP_D22_pv

>  <Molecule ChEMBL ID>  (1106) 
CHEMBL5187578

>  <Standard Type>  (1106) 
Ki

>  <Standard Value>  (1106) 
5.5

>  <label>  (1106) 
1

$$$$
CHEMBL2336280
     RDKit          3D

 41 42  0  0  1  0  0  0  0  0999 V2000
    8.0877    7.2127  -12.5408 C   0  0  0  0  0  0  0  0  0  0  0  0
    8.9923    7.4831  -11.3307 C   0  0  0  0  0  0  0  0  0  0  0  0
    9.3350    6.1930  -10.5561 C   0  0  0  0  0  0  0  0  0  0  0  0
    9.9071    6.4130   -9.1994 N   0  0  2  0  0  0  0  0  0  0  0  0
    8.8843    6.7772   -8.1901 C   0  0  0  0  0  0  0  0  0  0  0  0
    9.4772    6.7818   -6.7750 C   0  0  0  0  0  0  0  0  0  0  0  0
   10.6360    7.7817   -6.6900 C   0  0  1  0  0  0  0  0  0  0  0  0
   11.2206    7.9356   -5.2800 C   0  0  0  0  0  0  0  0  0  0  0  0
   11.6750    6.8039   -4.5677 C   0  0  0  0  0  0  0  0  0  0  0  0
   12.1232    6.9223   -3.2382 C   0  0  0  0  0  0  0  0  0  0  0  0
   12.1633    8.1817   -2.6154 C   0  0  0  0  0  0  0  0  0  0  0  0
   11.7528    9.3223   -3.3258 C   0  0  0  0  0  0  0  0  0  0  0  0
   11.2860    9.2057   -4.6490 C   0  0  0  0  0  0  0  0  0  0  0  0
   10.9112   10.3529   -5.2886 O   0  0  0  0  0  0  0  0  0  0  0  0
   11.8694   10.7587   -6.2471 C   0  0  0  0  0  0  0  0  0  0  0  0
   11.6877    7.3767   -7.7333 C   0  0  0  0  0  0  0  0  0  0  0  0
   11.0808    7.3246   -9.1520 C   0  0  0  0  0  0  0  0  0  0  0  0
    7.8399    8.1469  -13.0448 H   0  0  0  0  0  0  0  0  0  0  0  0
    8.5654    6.5481  -13.2591 H   0  0  0  0  0  0  0  0  0  0  0  0
    7.1467    6.7501  -12.2424 H   0  0  0  0  0  0  0  0  0  0  0  0
    8.4874    8.1986  -10.6820 H   0  0  0  0  0  0  0  0  0  0  0  0
    9.9070    7.9727  -11.6693 H   0  0  0  0  0  0  0  0  0  0  0  0
   10.0428    5.6027  -11.1403 H   0  0  0  0  0  0  0  0  0  0  0  0
    8.4399    5.5734  -10.4593 H   0  0  0  0  0  0  0  0  0  0  0  0
    8.0612    6.0666   -8.2291 H   0  0  0  0  0  0  0  0  0  0  0  0
    8.4856    7.7634   -8.4202 H   0  0  0  0  0  0  0  0  0  0  0  0
    9.8070    5.7783   -6.5155 H   0  0  0  0  0  0  0  0  0  0  0  0
    8.7014    7.0613   -6.0696 H   0  0  0  0  0  0  0  0  0  0  0  0
   10.2019    8.7354   -6.9843 H   0  0  0  0  0  0  0  0  0  0  0  0
   11.6413    5.8265   -5.0237 H   0  0  0  0  0  0  0  0  0  0  0  0
   12.4394    6.0414   -2.6979 H   0  0  0  0  0  0  0  0  0  0  0  0
   12.5086    8.2747   -1.5968 H   0  0  0  0  0  0  0  0  0  0  0  0
   11.7944   10.2916   -2.8516 H   0  0  0  0  0  0  0  0  0  0  0  0
   11.6874   11.7777   -6.5545 H   0  0  0  0  0  0  0  0  0  0  0  0
   12.8858   10.6855   -5.8645 H   0  0  0  0  0  0  0  0  0  0  0  0
   11.8049   10.1604   -7.1469 H   0  0  0  0  0  0  0  0  0  0  0  0
   12.5224    8.0772   -7.7304 H   0  0  0  0  0  0  0  0  0  0  0  0
   12.0861    6.4058   -7.4468 H   0  0  0  0  0  0  0  0  0  0  0  0
   11.8320    6.9906   -9.8673 H   0  0  0  0  0  0  0  0  0  0  0  0
   10.7837    8.3300   -9.4509 H   0  0  0  0  0  0  0  0  0  0  0  0
   10.2438    5.5048   -8.9126 H   0  0  0  0  0  0  0  0  0  0  0  0
  2  1  1  0
  3  2  1  0
  4  3  1  0
  5  4  1  0
  6  5  1  0
  7  6  1  0
  8  7  1  0
  9  8  2  0
 10  9  1  0
 11 10  2  0
 12 11  1  0
 13  8  1  0
 13 12  2  0
 14 13  1  0
 15 14  1  0
 16  7  1  0
 17  4  1  0
 17 16  1  0
 18  1  1  0
 19  1  1  0
 20  1  1  0
 21  2  1  0
 22  2  1  0
 23  3  1  0
 24  3  1  0
 25  5  1  0
 26  5  1  0
 27  6  1  0
 28  6  1  0
  7 29  1  6
 30  9  1  0
 31 10  1  0
 32 11  1  0
 33 12  1  0
 34 15  1  0
 35 15  1  0
 36 15  1  0
 37 16  1  0
 38 16  1  0
 39 17  1  0
 40 17  1  0
  4 41  1  1
M  CHG  1   4   1
M  END
>  <b_m_subgroup_collapsed>  (1107) 
0

>  <r_i_docking_score>  (1107) 
-6.72987672459743

>  <s_m_subgroup_title>  (1107) 
glide-dock_SP_D22_pv

>  <s_m_subgroupid>  (1107) 
glide-dock_SP_D22_pv

>  <Molecule ChEMBL ID>  (1107) 
CHEMBL2336280

>  <Standard Type>  (1107) 
Ki

>  <Standard Value>  (1107) 
12.59

>  <label>  (1107) 
1

$$$$
CHEMBL381102
     RDKit          3D

 25 26  0  0  1  0  0  0  0  0999 V2000
   12.4897    7.7724   -9.9424 O   0  0  0  0  0  0  0  0  0  0  0  0
   11.7173    8.2432   -9.1132 C   0  0  0  0  0  0  0  0  0  0  0  0
   10.4484    8.9719   -9.5536 C   0  0  0  0  0  0  0  0  0  0  0  0
    9.2220    8.5691   -8.7158 C   0  0  0  0  0  0  0  0  0  0  0  0
    9.5373    8.2476   -7.2465 C   0  0  0  0  0  0  0  0  0  0  0  0
   10.9432    8.7549   -6.8815 C   0  0  1  0  0  0  0  0  0  0  0  0
   11.3076    8.4893   -5.4333 C   0  0  0  0  0  0  0  0  0  0  0  0
   11.3026    7.1775   -4.9098 C   0  0  0  0  0  0  0  0  0  0  0  0
   11.6946    6.9557   -3.5746 C   0  0  0  0  0  0  0  0  0  0  0  0
   12.0866    8.0345   -2.7588 C   0  0  0  0  0  0  0  0  0  0  0  0
   12.0787    9.3424   -3.2733 C   0  0  0  0  0  0  0  0  0  0  0  0
   11.6849    9.5679   -4.6067 C   0  0  0  0  0  0  0  0  0  0  0  0
   11.8952    8.1718   -7.7722 O   0  0  0  0  0  0  0  0  0  0  0  0
   10.6403   10.0376   -9.4472 H   0  0  0  0  0  0  0  0  0  0  0  0
   10.2631    8.7956  -10.6156 H   0  0  0  0  0  0  0  0  0  0  0  0
    8.4884    9.3731   -8.7609 H   0  0  0  0  0  0  0  0  0  0  0  0
    8.7386    7.7023   -9.1709 H   0  0  0  0  0  0  0  0  0  0  0  0
    9.4812    7.1664   -7.1036 H   0  0  0  0  0  0  0  0  0  0  0  0
    8.7776    8.6844   -6.5960 H   0  0  0  0  0  0  0  0  0  0  0  0
   10.9680    9.8359   -7.0304 H   0  0  0  0  0  0  0  0  0  0  0  0
   11.0225    6.3362   -5.5287 H   0  0  0  0  0  0  0  0  0  0  0  0
   11.7012    5.9520   -3.1766 H   0  0  0  0  0  0  0  0  0  0  0  0
   12.3877    7.8578   -1.7368 H   0  0  0  0  0  0  0  0  0  0  0  0
   12.3789   10.1705   -2.6463 H   0  0  0  0  0  0  0  0  0  0  0  0
   11.6872   10.5723   -5.0018 H   0  0  0  0  0  0  0  0  0  0  0  0
  2  1  2  0
  3  2  1  0
  4  3  1  0
  5  4  1  0
  6  5  1  0
  7  6  1  0
  8  7  2  0
  9  8  1  0
 10  9  2  0
 11 10  1  0
 12  7  1  0
 12 11  2  0
 13  2  1  0
 13  6  1  0
 14  3  1  0
 15  3  1  0
 16  4  1  0
 17  4  1  0
 18  5  1  0
 19  5  1  0
  6 20  1  1
 21  8  1  0
 22  9  1  0
 23 10  1  0
 24 11  1  0
 25 12  1  0
M  END
>  <b_m_subgroup_collapsed>  (1108) 
0

>  <r_i_docking_score>  (1108) 
-6.7290702830081601

>  <s_m_subgroup_title>  (1108) 
glide-dock_SP_D22_pv

>  <s_m_subgroupid>  (1108) 
glide-dock_SP_D22_pv

>  <Molecule ChEMBL ID>  (1108) 
CHEMBL381102

>  <Standard Type>  (1108) 
Ki

>  <Standard Value>  (1108) 
10000.0

>  <label>  (1108) 
0

$$$$
CHEMBL4573883
     RDKit          3D

 29 31  0  0  1  0  0  0  0  0999 V2000
   12.2687    8.2373  -10.2500 C   0  0  0  0  0  0  0  0  0  0  0  0
   10.7609    8.4255  -10.0659 C   0  0  0  0  0  0  0  0  0  0  0  0
   10.1943    7.4356   -9.1676 N   0  0  0  0  0  0  0  0  0  0  0  0
    9.4765    6.3795   -9.5786 C   0  0  0  0  0  0  0  0  0  0  0  0
    9.0480    5.5838   -8.6140 N   0  0  0  0  0  0  0  0  0  0  0  0
    9.4971    6.2097   -7.4594 C   0  0  0  0  0  0  0  0  0  0  0  0
   10.2341    7.3332   -7.7677 C   0  0  0  0  0  0  0  0  0  0  0  0
   10.8962    8.2667   -6.8427 C   0  0  0  0  0  0  0  0  0  0  0  0
   11.2921    9.5673   -7.0484 C   0  0  0  0  0  0  0  0  0  0  0  0
   11.7479   10.1331   -5.8771 N   0  0  0  0  0  0  0  0  0  0  0  0
   11.7624    9.1951   -4.8772 C   0  0  0  0  0  0  0  0  0  0  0  0
   12.1495    9.2684   -3.5291 C   0  0  0  0  0  0  0  0  0  0  0  0
   12.1070    8.1129   -2.7387 C   0  0  0  0  0  0  0  0  0  0  0  0
   12.4877    8.1724   -1.4474 F   0  0  0  0  0  0  0  0  0  0  0  0
   11.6891    6.8960   -3.2990 C   0  0  0  0  0  0  0  0  0  0  0  0
   11.2861    6.8394   -4.6478 C   0  0  0  0  0  0  0  0  0  0  0  0
   11.2852    7.9903   -5.4742 C   0  0  0  0  0  0  0  0  0  0  0  0
   12.6659    8.9708  -10.9516 H   0  0  0  0  0  0  0  0  0  0  0  0
   12.8105    8.3474   -9.3090 H   0  0  0  0  0  0  0  0  0  0  0  0
   12.4859    7.2472  -10.6511 H   0  0  0  0  0  0  0  0  0  0  0  0
   10.2708    8.3305  -11.0362 H   0  0  0  0  0  0  0  0  0  0  0  0
   10.5080    9.4236   -9.7175 H   0  0  0  0  0  0  0  0  0  0  0  0
    9.2649    6.1842  -10.6200 H   0  0  0  0  0  0  0  0  0  0  0  0
    9.2491    5.7992   -6.4945 H   0  0  0  0  0  0  0  0  0  0  0  0
   11.2850   10.1700   -7.9377 H   0  0  0  0  0  0  0  0  0  0  0  0
   12.0619   11.0902   -5.8090 H   0  0  0  0  0  0  0  0  0  0  0  0
   12.4932   10.1927   -3.0937 H   0  0  0  0  0  0  0  0  0  0  0  0
   11.6713    6.0016   -2.6910 H   0  0  0  0  0  0  0  0  0  0  0  0
   10.9594    5.8934   -5.0470 H   0  0  0  0  0  0  0  0  0  0  0  0
  2  1  1  0
  3  2  1  0
  4  3  1  0
  5  4  2  0
  6  5  1  0
  7  3  1  0
  7  6  2  0
  8  7  1  0
  9  8  2  0
 10  9  1  0
 11 10  1  0
 12 11  2  0
 13 12  1  0
 14 13  1  0
 15 13  2  0
 16 15  1  0
 17  8  1  0
 17 11  1  0
 17 16  2  0
 18  1  1  0
 19  1  1  0
 20  1  1  0
 21  2  1  0
 22  2  1  0
 23  4  1  0
 24  6  1  0
 25  9  1  0
 26 10  1  0
 27 12  1  0
 28 15  1  0
 29 16  1  0
M  END
>  <b_m_subgroup_collapsed>  (1109) 
0

>  <r_i_docking_score>  (1109) 
-6.7288161411329996

>  <s_m_subgroup_title>  (1109) 
glide-dock_SP_D22_pv

>  <s_m_subgroupid>  (1109) 
glide-dock_SP_D22_pv

>  <Molecule ChEMBL ID>  (1109) 
CHEMBL4573883

>  <Standard Type>  (1109) 
Ki

>  <Standard Value>  (1109) 
10000.0

>  <label>  (1109) 
0

$$$$
CHEMBL5184911
     RDKit          3D

 46 47  0  0  1  0  0  0  0  0999 V2000
   11.2787    3.6829  -15.5575 C   0  0  0  0  0  0  0  0  0  0  0  0
   10.6629    2.5899  -14.6630 C   0  0  1  0  0  0  0  0  0  0  0  0
   10.0533    3.1389  -13.4469 N   0  0  0  0  0  0  0  0  0  0  0  0
    9.2137    4.1815  -13.3299 C   0  0  0  0  0  0  0  0  0  0  0  0
    8.6148    4.7269  -14.2537 O   0  0  0  0  0  0  0  0  0  0  0  0
    9.1165    4.6694  -11.9876 N   0  0  0  0  0  0  0  0  0  0  0  0
    8.2962    5.6529  -11.5481 C   0  0  0  0  0  0  0  0  0  0  0  0
    7.2759    6.1724  -12.2469 N   0  0  0  0  0  0  0  0  0  0  0  0
    8.4860    6.1723  -10.3280 N   0  0  0  0  0  0  0  0  0  0  0  0
    9.5679    5.8730   -9.3916 C   0  0  0  0  0  0  0  0  0  0  0  0
    9.7048    6.9925   -8.3553 C   0  0  0  0  0  0  0  0  0  0  0  0
   11.1352    7.0918   -7.8209 C   0  0  0  0  0  0  0  0  0  0  0  0
   11.2678    8.0883   -6.7291 C   0  0  0  0  0  0  0  0  0  0  0  0
   11.3598    9.4039   -6.9506 N   0  0  0  0  0  0  0  0  0  0  0  0
   11.5040   10.1245   -5.7741 N   0  0  0  0  0  0  0  0  0  0  0  0
   11.5178    9.3237   -4.7063 C   0  0  0  0  0  0  0  0  0  0  0  0
   11.6859    9.7721   -3.4101 N   0  0  0  0  0  0  0  0  0  0  0  0
   11.2860    7.6168   -5.0424 S   0  0  0  0  0  0  0  0  0  0  0  0
    9.8148    1.6021  -15.4631 C   0  0  0  0  0  0  0  0  0  0  0  0
    8.4011    1.5811  -15.4058 C   0  0  0  0  0  0  0  0  0  0  0  0
    7.6691    0.6734  -16.1965 C   0  0  0  0  0  0  0  0  0  0  0  0
    8.3413   -0.2256  -17.0466 C   0  0  0  0  0  0  0  0  0  0  0  0
    9.7475   -0.2274  -17.0939 C   0  0  0  0  0  0  0  0  0  0  0  0
   10.3990   -1.1055  -17.8933 F   0  0  0  0  0  0  0  0  0  0  0  0
   10.4777    0.6845  -16.3089 C   0  0  0  0  0  0  0  0  0  0  0  0
   11.9124    3.2452  -16.3294 H   0  0  0  0  0  0  0  0  0  0  0  0
   10.5136    4.2723  -16.0628 H   0  0  0  0  0  0  0  0  0  0  0  0
   11.9016    4.3649  -14.9780 H   0  0  0  0  0  0  0  0  0  0  0  0
   11.4985    2.0035  -14.2806 H   0  0  0  0  0  0  0  0  0  0  0  0
   10.3704    2.6962  -12.5943 H   0  0  0  0  0  0  0  0  0  0  0  0
    7.0519    5.8509  -13.1764 H   0  0  0  0  0  0  0  0  0  0  0  0
    6.6965    6.8667  -11.7648 H   0  0  0  0  0  0  0  0  0  0  0  0
    7.7890    6.8560  -10.0177 H   0  0  0  0  0  0  0  0  0  0  0  0
    9.4037    4.9074   -8.9114 H   0  0  0  0  0  0  0  0  0  0  0  0
   10.4861    5.7978   -9.9706 H   0  0  0  0  0  0  0  0  0  0  0  0
    9.4081    7.9534   -8.7798 H   0  0  0  0  0  0  0  0  0  0  0  0
    9.0168    6.7985   -7.5305 H   0  0  0  0  0  0  0  0  0  0  0  0
   11.4632    6.1222   -7.4444 H   0  0  0  0  0  0  0  0  0  0  0  0
   11.8185    7.3723   -8.6237 H   0  0  0  0  0  0  0  0  0  0  0  0
   11.7610   10.7583   -3.2001 H   0  0  0  0  0  0  0  0  0  0  0  0
   11.6868    9.1379   -2.6244 H   0  0  0  0  0  0  0  0  0  0  0  0
    7.8572    2.2575  -14.7665 H   0  0  0  0  0  0  0  0  0  0  0  0
    6.5897    0.6641  -16.1495 H   0  0  0  0  0  0  0  0  0  0  0  0
    7.7793   -0.9279  -17.6450 H   0  0  0  0  0  0  0  0  0  0  0  0
   11.5572    0.6784  -16.3621 H   0  0  0  0  0  0  0  0  0  0  0  0
    9.6850    4.2839  -11.2501 H   0  0  0  0  0  0  0  0  0  0  0  0
  2  1  1  0
  3  2  1  0
  4  3  1  0
  5  4  2  0
  6  4  1  0
  7  6  2  0
  8  7  1  0
  9  7  1  0
 10  9  1  0
 11 10  1  0
 12 11  1  0
 13 12  1  0
 14 13  2  0
 15 14  1  0
 16 15  2  0
 17 16  1  0
 18 13  1  0
 18 16  1  0
 19  2  1  0
 20 19  2  0
 21 20  1  0
 22 21  2  0
 23 22  1  0
 24 23  1  0
 25 19  1  0
 25 23  2  0
 26  1  1  0
 27  1  1  0
 28  1  1  0
  2 29  1  1
 30  3  1  0
 31  8  1  0
 32  8  1  0
 33  9  1  0
 34 10  1  0
 35 10  1  0
 36 11  1  0
 37 11  1  0
 38 12  1  0
 39 12  1  0
 40 17  1  0
 41 17  1  0
 42 20  1  0
 43 21  1  0
 44 22  1  0
 45 25  1  0
 46  6  1  0
M  CHG  1   6   1
M  END
>  <b_m_subgroup_collapsed>  (1110) 
0

>  <r_i_docking_score>  (1110) 
-6.7239099520037202

>  <s_m_subgroup_title>  (1110) 
glide-dock_SP_D22_pv

>  <s_m_subgroupid>  (1110) 
glide-dock_SP_D22_pv

>  <Molecule ChEMBL ID>  (1110) 
CHEMBL5184911

>  <Standard Type>  (1110) 
Ki

>  <Standard Value>  (1110) 
10000.0

>  <label>  (1110) 
0

$$$$
CHEMBL3764612
     RDKit          3D

 56 59  0  0  1  0  0  0  0  0999 V2000
   12.0582    8.9547   -8.2199 C   0  0  0  0  0  0  0  0  0  0  0  0
   11.0586    7.9707   -7.8378 N   0  0  0  0  0  0  0  0  0  0  0  0
   10.2456    7.2573   -8.6472 C   0  0  0  0  0  0  0  0  0  0  0  0
   10.2456    7.4850  -10.4063 S   0  0  0  0  0  0  0  0  0  0  0  0
    8.8237    6.4624  -10.9248 C   0  0  0  0  0  0  0  0  0  0  0  0
    9.2470    5.1233  -11.5537 C   0  0  0  0  0  0  0  0  0  0  0  0
    9.8749    5.3103  -12.9500 C   0  0  0  0  0  0  0  0  0  0  0  0
   10.2625    4.0881  -13.6571 N   0  0  0  0  0  0  0  0  0  0  0  0
   11.0165    4.4105  -14.8661 C   0  0  0  0  0  0  0  0  0  0  0  0
   11.4087    3.1548  -15.6618 C   0  0  0  0  0  0  0  0  0  0  0  0
   10.2370    2.4167  -15.9977 O   0  0  0  0  0  0  0  0  0  0  0  0
    9.4922    2.0161  -14.8455 C   0  0  2  0  0  0  0  0  0  0  0  0
    8.2558    1.2128  -15.2210 C   0  0  0  0  0  0  0  0  0  0  0  0
    7.6535    1.3521  -16.4900 C   0  0  0  0  0  0  0  0  0  0  0  0
    6.4856    0.6285  -16.8088 C   0  0  0  0  0  0  0  0  0  0  0  0
    5.8975   -0.2281  -15.8526 C   0  0  0  0  0  0  0  0  0  0  0  0
    4.6387   -1.0246  -16.1632 C   0  0  0  0  0  0  0  0  0  0  0  0
    4.2478   -0.8674  -17.4290 F   0  0  0  0  0  0  0  0  0  0  0  0
    4.8785   -2.3163  -15.9480 F   0  0  0  0  0  0  0  0  0  0  0  0
    3.6528   -0.6288  -15.3575 F   0  0  0  0  0  0  0  0  0  0  0  0
    6.4937   -0.3579  -14.5807 C   0  0  0  0  0  0  0  0  0  0  0  0
    7.6722    0.3467  -14.2723 C   0  0  0  0  0  0  0  0  0  0  0  0
    9.1051    3.2757  -14.0354 C   0  0  0  0  0  0  0  0  0  0  0  0
    9.4803    6.3900   -7.9879 N   0  0  0  0  0  0  0  0  0  0  0  0
    9.7789    6.5724   -6.6596 N   0  0  0  0  0  0  0  0  0  0  0  0
   10.7148    7.5202   -6.6095 C   0  0  0  0  0  0  0  0  0  0  0  0
   11.2582    7.9666   -5.3286 C   0  0  0  0  0  0  0  0  0  0  0  0
   11.6859    7.0180   -4.3755 C   0  0  0  0  0  0  0  0  0  0  0  0
   12.1082    7.4645   -3.1065 C   0  0  0  0  0  0  0  0  0  0  0  0
   12.0862    8.8466   -2.8441 C   0  0  0  0  0  0  0  0  0  0  0  0
   11.6849    9.7655   -3.7467 N   0  0  0  0  0  0  0  0  0  0  0  0
   11.2854    9.3306   -4.9619 C   0  0  0  0  0  0  0  0  0  0  0  0
   11.6857    9.5758   -9.0370 H   0  0  0  0  0  0  0  0  0  0  0  0
   12.3157    9.5966   -7.3786 H   0  0  0  0  0  0  0  0  0  0  0  0
   12.9604    8.4422   -8.5573 H   0  0  0  0  0  0  0  0  0  0  0  0
    8.1430    6.2824  -10.0922 H   0  0  0  0  0  0  0  0  0  0  0  0
    8.2477    7.0346  -11.6546 H   0  0  0  0  0  0  0  0  0  0  0  0
    9.9334    4.5934  -10.8917 H   0  0  0  0  0  0  0  0  0  0  0  0
    8.3533    4.5023  -11.6274 H   0  0  0  0  0  0  0  0  0  0  0  0
    9.1818    5.8760  -13.5723 H   0  0  0  0  0  0  0  0  0  0  0  0
   10.7577    5.9401  -12.8394 H   0  0  0  0  0  0  0  0  0  0  0  0
   10.4207    5.0636  -15.5070 H   0  0  0  0  0  0  0  0  0  0  0  0
   11.9148    4.9681  -14.6021 H   0  0  0  0  0  0  0  0  0  0  0  0
   11.9314    3.4339  -16.5756 H   0  0  0  0  0  0  0  0  0  0  0  0
   12.0851    2.5309  -15.0807 H   0  0  0  0  0  0  0  0  0  0  0  0
   10.1336    1.3704  -14.2441 H   0  0  0  0  0  0  0  0  0  0  0  0
    8.0902    2.0075  -17.2286 H   0  0  0  0  0  0  0  0  0  0  0  0
    6.0429    0.7382  -17.7878 H   0  0  0  0  0  0  0  0  0  0  0  0
    6.0561   -1.0221  -13.8517 H   0  0  0  0  0  0  0  0  0  0  0  0
    8.1291    0.2098  -13.3061 H   0  0  0  0  0  0  0  0  0  0  0  0
    8.5626    2.9716  -13.1418 H   0  0  0  0  0  0  0  0  0  0  0  0
    8.4110    3.8777  -14.6273 H   0  0  0  0  0  0  0  0  0  0  0  0
   11.6716    5.9612   -4.6060 H   0  0  0  0  0  0  0  0  0  0  0  0
   12.4237    6.7583   -2.3543 H   0  0  0  0  0  0  0  0  0  0  0  0
   12.3780    9.2242   -1.8718 H   0  0  0  0  0  0  0  0  0  0  0  0
   10.9245   10.0926   -5.6379 H   0  0  0  0  0  0  0  0  0  0  0  0
  2  1  1  0
  3  2  1  0
  4  3  1  0
  5  4  1  0
  6  5  1  0
  7  6  1  0
  8  7  1  0
  9  8  1  0
 10  9  1  0
 11 10  1  0
 12 11  1  0
 13 12  1  0
 14 13  1  0
 15 14  2  0
 16 15  1  0
 17 16  1  0
 18 17  1  0
 19 17  1  0
 20 17  1  0
 21 16  2  0
 22 13  2  0
 22 21  1  0
 23  8  1  0
 23 12  1  0
 24  3  2  0
 25 24  1  0
 26  2  1  0
 26 25  2  0
 27 26  1  0
 28 27  1  0
 29 28  2  0
 30 29  1  0
 31 30  2  0
 32 27  2  0
 32 31  1  0
 33  1  1  0
 34  1  1  0
 35  1  1  0
 36  5  1  0
 37  5  1  0
 38  6  1  0
 39  6  1  0
 40  7  1  0
 41  7  1  0
 42  9  1  0
 43  9  1  0
 44 10  1  0
 45 10  1  0
 12 46  1  1
 47 14  1  0
 48 15  1  0
 49 21  1  0
 50 22  1  0
 51 23  1  0
 52 23  1  0
 53 28  1  0
 54 29  1  0
 55 30  1  0
 56 32  1  0
M  END
>  <b_m_subgroup_collapsed>  (1111) 
0

>  <r_i_docking_score>  (1111) 
-6.7226507413275396

>  <s_m_subgroup_title>  (1111) 
glide-dock_SP_D22_pv

>  <s_m_subgroupid>  (1111) 
glide-dock_SP_D22_pv

>  <Molecule ChEMBL ID>  (1111) 
CHEMBL3764612

>  <Standard Type>  (1111) 
Ki

>  <Standard Value>  (1111) 
14791.0

>  <label>  (1111) 
0

$$$$
CHEMBL4555890
     RDKit          3D

 71 75  0  0  1  0  0  0  0  0999 V2000
    8.7798    5.0681   -8.2490 C   0  0  0  0  0  0  0  0  0  0  0  0
    9.1959    6.1273   -7.2274 C   0  0  0  0  0  0  0  0  0  0  0  0
   10.6142    6.1726   -7.1860 O   0  0  0  0  0  0  0  0  0  0  0  0
   11.0715    7.1984   -6.4069 C   0  0  0  0  0  0  0  0  0  0  0  0
   11.2858    6.9974   -5.0293 C   0  0  0  0  0  0  0  0  0  0  0  0
   11.6866    8.0724   -4.2141 C   0  0  0  0  0  0  0  0  0  0  0  0
   11.8662    9.3506   -4.7741 C   0  0  0  0  0  0  0  0  0  0  0  0
   11.6829    9.5480   -6.1573 C   0  0  0  0  0  0  0  0  0  0  0  0
   11.3056    8.4663   -6.9807 C   0  0  0  0  0  0  0  0  0  0  0  0
   11.1794    8.6401   -8.3628 N   0  0  0  0  0  0  0  0  0  0  0  0
   12.1241    8.0222   -9.2753 C   0  0  0  0  0  0  0  0  0  0  0  0
   11.3766    7.2576  -10.3850 C   0  0  0  0  0  0  0  0  0  0  0  0
   10.3062    8.0963  -10.9758 N   0  0  0  0  0  0  0  0  0  0  0  0
    9.6929    7.5557  -12.2064 C   0  0  0  0  0  0  0  0  0  0  0  0
    8.7583    6.3554  -11.9677 C   0  0  0  0  0  0  0  0  0  0  0  0
    7.6825    6.2268  -13.0481 C   0  0  0  0  0  0  0  0  0  0  0  0
    6.5108    5.3349  -12.6136 C   0  0  0  0  0  0  0  0  0  0  0  0
    6.8747    3.8497  -12.5112 C   0  0  0  0  0  0  0  0  0  0  0  0
    6.9465    3.1644  -13.8951 C   0  0  0  0  0  0  0  0  0  0  0  0
    6.7619    1.7112  -13.8645 N   0  0  0  0  0  0  0  0  0  0  0  0
    7.0719    1.0932  -15.0868 C   0  0  0  0  0  0  0  0  0  0  0  0
    8.1811    1.2917  -15.9393 C   0  0  0  0  0  0  0  0  0  0  0  0
    8.2567    0.6085  -17.1729 C   0  0  0  0  0  0  0  0  0  0  0  0
    7.2242   -0.2663  -17.5786 C   0  0  0  0  0  0  0  0  0  0  0  0
    6.1030   -0.4867  -16.7516 C   0  0  0  0  0  0  0  0  0  0  0  0
    4.9953   -1.3143  -17.0427 C   0  0  0  0  0  0  0  0  0  0  0  0
    3.9135   -1.4277  -16.1381 C   0  0  0  0  0  0  0  0  0  0  0  0
    3.9188   -0.7278  -14.9141 C   0  0  0  0  0  0  0  0  0  0  0  0
    5.0252    0.0834  -14.6071 C   0  0  0  0  0  0  0  0  0  0  0  0
    6.0801    0.1948  -15.5208 C   0  0  0  0  0  0  0  0  0  0  0  0
    5.3139    1.0697  -13.1731 S   0  0  0  0  0  0  0  0  0  0  0  0
    5.6860    0.2111  -12.0473 O   0  0  0  0  0  0  0  0  0  0  0  0
    4.3514    2.1685  -13.0469 O   0  0  0  0  0  0  0  0  0  0  0  0
    9.3243    8.5717   -9.9725 C   0  0  0  0  0  0  0  0  0  0  0  0
   10.0607    9.3723   -8.9120 C   0  0  0  0  0  0  0  0  0  0  0  0
    7.7037    4.9067   -8.2192 H   0  0  0  0  0  0  0  0  0  0  0  0
    9.0372    5.3671   -9.2597 H   0  0  0  0  0  0  0  0  0  0  0  0
    9.2851    4.1191   -8.0718 H   0  0  0  0  0  0  0  0  0  0  0  0
    8.7995    5.8835   -6.2463 H   0  0  0  0  0  0  0  0  0  0  0  0
    8.7658    7.0970   -7.4714 H   0  0  0  0  0  0  0  0  0  0  0  0
   11.1172    6.0218   -4.5960 H   0  0  0  0  0  0  0  0  0  0  0  0
   11.8397    7.9196   -3.1557 H   0  0  0  0  0  0  0  0  0  0  0  0
   12.1589   10.1722   -4.1386 H   0  0  0  0  0  0  0  0  0  0  0  0
   11.8517   10.5248   -6.5863 H   0  0  0  0  0  0  0  0  0  0  0  0
   12.7339    8.8126   -9.7123 H   0  0  0  0  0  0  0  0  0  0  0  0
   12.8078    7.3725   -8.7333 H   0  0  0  0  0  0  0  0  0  0  0  0
   12.0869    6.9724  -11.1612 H   0  0  0  0  0  0  0  0  0  0  0  0
   10.9332    6.3499   -9.9777 H   0  0  0  0  0  0  0  0  0  0  0  0
    9.1337    8.3818  -12.6468 H   0  0  0  0  0  0  0  0  0  0  0  0
   10.4819    7.2899  -12.9132 H   0  0  0  0  0  0  0  0  0  0  0  0
    9.3421    5.4390  -11.8783 H   0  0  0  0  0  0  0  0  0  0  0  0
    8.2162    6.4606  -11.0347 H   0  0  0  0  0  0  0  0  0  0  0  0
    7.2769    7.2195  -13.2495 H   0  0  0  0  0  0  0  0  0  0  0  0
    8.1166    5.8732  -13.9832 H   0  0  0  0  0  0  0  0  0  0  0  0
    6.1422    5.6816  -11.6460 H   0  0  0  0  0  0  0  0  0  0  0  0
    5.6709    5.4601  -13.2979 H   0  0  0  0  0  0  0  0  0  0  0  0
    7.8212    3.7623  -11.9809 H   0  0  0  0  0  0  0  0  0  0  0  0
    6.1364    3.3773  -11.8667 H   0  0  0  0  0  0  0  0  0  0  0  0
    6.1671    3.5676  -14.5444 H   0  0  0  0  0  0  0  0  0  0  0  0
    7.8971    3.4336  -14.3552 H   0  0  0  0  0  0  0  0  0  0  0  0
    8.9790    1.9616  -15.6536 H   0  0  0  0  0  0  0  0  0  0  0  0
    9.1108    0.7613  -17.8163 H   0  0  0  0  0  0  0  0  0  0  0  0
    7.2951   -0.7719  -18.5308 H   0  0  0  0  0  0  0  0  0  0  0  0
    4.9644   -1.8664  -17.9711 H   0  0  0  0  0  0  0  0  0  0  0  0
    3.0808   -2.0707  -16.3833 H   0  0  0  0  0  0  0  0  0  0  0  0
    3.0893   -0.8143  -14.2277 H   0  0  0  0  0  0  0  0  0  0  0  0
    8.5640    9.1948  -10.4458 H   0  0  0  0  0  0  0  0  0  0  0  0
    8.8081    7.7435   -9.5020 H   0  0  0  0  0  0  0  0  0  0  0  0
    9.3827    9.7394   -8.1375 H   0  0  0  0  0  0  0  0  0  0  0  0
   10.5069   10.2011   -9.4469 H   0  0  0  0  0  0  0  0  0  0  0  0
   10.7850    8.9331  -11.2728 H   0  0  0  0  0  0  0  0  0  0  0  0
  2  1  1  0
  3  2  1  0
  4  3  1  0
  5  4  2  0
  6  5  1  0
  7  6  2  0
  8  7  1  0
  9  4  1  0
  9  8  2  0
 10  9  1  0
 11 10  1  0
 12 11  1  0
 13 12  1  0
 14 13  1  0
 15 14  1  0
 16 15  1  0
 17 16  1  0
 18 17  1  0
 19 18  1  0
 20 19  1  0
 21 20  1  0
 22 21  1  0
 23 22  2  0
 24 23  1  0
 25 24  2  0
 26 25  1  0
 27 26  2  0
 28 27  1  0
 29 28  2  0
 30 21  2  0
 30 25  1  0
 30 29  1  0
 31 20  1  0
 31 29  1  0
 32 31  2  0
 33 31  2  0
 34 13  1  0
 35 10  1  0
 35 34  1  0
 36  1  1  0
 37  1  1  0
 38  1  1  0
 39  2  1  0
 40  2  1  0
 41  5  1  0
 42  6  1  0
 43  7  1  0
 44  8  1  0
 45 11  1  0
 46 11  1  0
 47 12  1  0
 48 12  1  0
 49 14  1  0
 50 14  1  0
 51 15  1  0
 52 15  1  0
 53 16  1  0
 54 16  1  0
 55 17  1  0
 56 17  1  0
 57 18  1  0
 58 18  1  0
 59 19  1  0
 60 19  1  0
 61 22  1  0
 62 23  1  0
 63 24  1  0
 64 26  1  0
 65 27  1  0
 66 28  1  0
 67 34  1  0
 68 34  1  0
 69 35  1  0
 70 35  1  0
 71 13  1  0
M  CHG  1  13   1
M  END
>  <b_m_subgroup_collapsed>  (1112) 
0

>  <r_i_docking_score>  (1112) 
-6.7220155545150604

>  <s_m_subgroup_title>  (1112) 
glide-dock_SP_D22_pv

>  <s_m_subgroupid>  (1112) 
glide-dock_SP_D22_pv

>  <Molecule ChEMBL ID>  (1112) 
CHEMBL4555890

>  <Standard Type>  (1112) 
Ki

>  <Standard Value>  (1112) 
30.0

>  <label>  (1112) 
1

$$$$
CHEMBL43819
     RDKit          3D

 45 48  0  0  1  0  0  0  0  0999 V2000
    8.7484    8.9226  -11.8467 C   0  0  0  0  0  0  0  0  0  0  0  0
    8.4860    7.5203  -11.4887 N   0  0  2  0  0  0  0  0  0  0  0  0
    9.3336    6.9859  -10.4035 C   0  0  0  0  0  0  0  0  0  0  0  0
    8.6859    5.7060   -9.8638 C   0  0  0  0  0  0  0  0  0  0  0  0
    8.4861    4.6640  -10.9731 C   0  0  0  0  0  0  0  0  0  0  0  0
    7.8492    5.2309  -12.2579 C   0  0  2  0  0  0  0  0  0  0  0  0
    7.8861    4.1705  -13.3409 C   0  0  0  0  0  0  0  0  0  0  0  0
    8.8344    3.9119  -14.3154 C   0  0  0  0  0  0  0  0  0  0  0  0
   10.0412    4.5952  -14.7461 C   0  0  0  0  0  0  0  0  0  0  0  0
   10.1958    4.9724  -16.0983 C   0  0  0  0  0  0  0  0  0  0  0  0
   11.3419    5.6754  -16.5187 C   0  0  0  0  0  0  0  0  0  0  0  0
   12.3415    6.0067  -15.5857 C   0  0  0  0  0  0  0  0  0  0  0  0
   12.1993    5.6089  -14.2441 C   0  0  0  0  0  0  0  0  0  0  0  0
   11.0734    4.8782  -13.8343 C   0  0  0  0  0  0  0  0  0  0  0  0
    8.5246    2.7290  -14.9548 N   0  0  0  0  0  0  0  0  0  0  0  0
    7.3802    2.1805  -14.4388 C   0  0  0  0  0  0  0  0  0  0  0  0
    6.7269    0.9667  -14.7086 C   0  0  0  0  0  0  0  0  0  0  0  0
    5.5452    0.6619  -14.0191 C   0  0  0  0  0  0  0  0  0  0  0  0
    5.0259    1.5984  -13.1071 C   0  0  0  0  0  0  0  0  0  0  0  0
    5.6918    2.8040  -12.8223 C   0  0  0  0  0  0  0  0  0  0  0  0
    6.9097    3.1157  -13.4659 C   0  0  0  0  0  0  0  0  0  0  0  0
    8.4168    6.6121  -12.6534 C   0  0  0  0  0  0  0  0  0  0  0  0
    9.6860    9.0092  -12.3817 H   0  0  0  0  0  0  0  0  0  0  0  0
    7.9561    9.3055  -12.4877 H   0  0  0  0  0  0  0  0  0  0  0  0
    8.7689    9.5393  -10.9488 H   0  0  0  0  0  0  0  0  0  0  0  0
    9.4091    7.7143   -9.5953 H   0  0  0  0  0  0  0  0  0  0  0  0
   10.3451    6.7957  -10.7657 H   0  0  0  0  0  0  0  0  0  0  0  0
    7.7195    5.9490   -9.4189 H   0  0  0  0  0  0  0  0  0  0  0  0
    9.2922    5.2841   -9.0612 H   0  0  0  0  0  0  0  0  0  0  0  0
    7.8199    3.8847  -10.6010 H   0  0  0  0  0  0  0  0  0  0  0  0
    9.4445    4.1950  -11.1978 H   0  0  0  0  0  0  0  0  0  0  0  0
    6.8025    5.4189  -12.0109 H   0  0  0  0  0  0  0  0  0  0  0  0
    9.4195    4.7478  -16.8150 H   0  0  0  0  0  0  0  0  0  0  0  0
   11.4456    5.9755  -17.5507 H   0  0  0  0  0  0  0  0  0  0  0  0
   13.2135    6.5636  -15.8961 H   0  0  0  0  0  0  0  0  0  0  0  0
   12.9437    5.8701  -13.5139 H   0  0  0  0  0  0  0  0  0  0  0  0
   10.9793    4.5736  -12.8034 H   0  0  0  0  0  0  0  0  0  0  0  0
    9.1141    2.3180  -15.6635 H   0  0  0  0  0  0  0  0  0  0  0  0
    7.1263    0.2745  -15.4359 H   0  0  0  0  0  0  0  0  0  0  0  0
    5.0179   -0.2590  -14.2244 H   0  0  0  0  0  0  0  0  0  0  0  0
    4.0860    1.4071  -12.6471 H   0  0  0  0  0  0  0  0  0  0  0  0
    5.2847    3.4855  -12.0893 H   0  0  0  0  0  0  0  0  0  0  0  0
    9.4240    6.5719  -13.0467 H   0  0  0  0  0  0  0  0  0  0  0  0
    7.7908    7.0404  -13.4389 H   0  0  0  0  0  0  0  0  0  0  0  0
    7.5444    7.5593  -11.0634 H   0  0  0  0  0  0  0  0  0  0  0  0
  2  1  1  0
  3  2  1  0
  4  3  1  0
  5  4  1  0
  6  5  1  0
  7  6  1  0
  8  7  2  0
  9  8  1  0
 10  9  2  0
 11 10  1  0
 12 11  2  0
 13 12  1  0
 14  9  1  0
 14 13  2  0
 15  8  1  0
 16 15  1  0
 17 16  2  0
 18 17  1  0
 19 18  2  0
 20 19  1  0
 21  7  1  0
 21 16  1  0
 21 20  2  0
 22  2  1  0
 22  6  1  0
 23  1  1  0
 24  1  1  0
 25  1  1  0
 26  3  1  0
 27  3  1  0
 28  4  1  0
 29  4  1  0
 30  5  1  0
 31  5  1  0
  6 32  1  1
 33 10  1  0
 34 11  1  0
 35 12  1  0
 36 13  1  0
 37 14  1  0
 38 15  1  0
 39 17  1  0
 40 18  1  0
 41 19  1  0
 42 20  1  0
 43 22  1  0
 44 22  1  0
  2 45  1  1
M  CHG  1   2   1
M  END
>  <b_m_subgroup_collapsed>  (1113) 
0

>  <r_i_docking_score>  (1113) 
-6.7218485716156904

>  <s_m_subgroup_title>  (1113) 
glide-dock_SP_D22_pv

>  <s_m_subgroupid>  (1113) 
glide-dock_SP_D22_pv

>  <Molecule ChEMBL ID>  (1113) 
CHEMBL43819

>  <Standard Type>  (1113) 
Ki

>  <Standard Value>  (1113) 
28.0

>  <label>  (1113) 
1

$$$$
CHEMBL597094
     RDKit          3D

 44 48  0  0  1  0  0  0  0  0999 V2000
    8.4320    0.6042  -17.0978 C   0  0  0  0  0  0  0  0  0  0  0  0
    8.2289    0.7847  -15.5897 C   0  0  2  0  0  0  0  0  0  0  0  0
    6.7480    0.8144  -15.1608 C   0  0  0  0  0  0  0  0  0  0  0  0
    6.7306    1.9921  -14.2469 C   0  0  0  0  0  0  0  0  0  0  0  0
    5.6860    2.4066  -13.4111 C   0  0  0  0  0  0  0  0  0  0  0  0
    5.9263    3.5121  -12.5762 C   0  0  0  0  0  0  0  0  0  0  0  0
    7.1790    4.1723  -12.5912 C   0  0  0  0  0  0  0  0  0  0  0  0
    8.2143    3.7959  -13.4893 C   0  0  0  0  0  0  0  0  0  0  0  0
    7.9478    2.6565  -14.3000 C   0  0  0  0  0  0  0  0  0  0  0  0
    8.8008    2.0330  -15.1712 O   0  0  0  0  0  0  0  0  0  0  0  0
    9.4984    4.5536  -13.4917 C   0  0  0  0  0  0  0  0  0  0  0  0
   10.5903    4.2299  -14.3441 C   0  0  0  0  0  0  0  0  0  0  0  0
   11.7886    4.9617  -14.3866 C   0  0  0  0  0  0  0  0  0  0  0  0
   11.9696    6.0554  -13.5356 C   0  0  0  0  0  0  0  0  0  0  0  0
   10.9515    6.4224  -12.6469 C   0  0  0  0  0  0  0  0  0  0  0  0
    9.7315    5.6909  -12.6643 C   0  0  0  0  0  0  0  0  0  0  0  0
    8.5331    6.2250  -11.8582 C   0  0  1  0  0  0  0  0  0  0  0  0
    7.4454    5.1946  -11.5119 C   0  0  0  0  0  0  0  0  0  0  0  0
    8.8860    7.0857  -10.6963 N   0  0  1  0  0  0  0  0  0  0  0  0
    9.2579    6.3730   -9.4469 C   0  0  0  0  0  0  0  0  0  0  0  0
    9.8446    8.1301  -11.0908 C   0  0  0  0  0  0  0  0  0  0  0  0
   11.1338    7.4543  -11.5449 C   0  0  0  0  0  0  0  0  0  0  0  0
    8.0088   -0.3416  -17.4375 H   0  0  0  0  0  0  0  0  0  0  0  0
    9.4929    0.6039  -17.3484 H   0  0  0  0  0  0  0  0  0  0  0  0
    7.9568    1.4087  -17.6591 H   0  0  0  0  0  0  0  0  0  0  0  0
    8.7480   -0.0069  -15.0468 H   0  0  0  0  0  0  0  0  0  0  0  0
    6.0860    0.9866  -16.0080 H   0  0  0  0  0  0  0  0  0  0  0  0
    6.4463   -0.1015  -14.6515 H   0  0  0  0  0  0  0  0  0  0  0  0
    4.7465    1.8745  -13.3806 H   0  0  0  0  0  0  0  0  0  0  0  0
    5.1675    3.8209  -11.8725 H   0  0  0  0  0  0  0  0  0  0  0  0
   10.5463    3.4030  -15.0279 H   0  0  0  0  0  0  0  0  0  0  0  0
   12.5780    4.6682  -15.0633 H   0  0  0  0  0  0  0  0  0  0  0  0
   12.9027    6.5949  -13.5407 H   0  0  0  0  0  0  0  0  0  0  0  0
    8.0518    6.8991  -12.5694 H   0  0  0  0  0  0  0  0  0  0  0  0
    6.5222    5.7095  -11.2408 H   0  0  0  0  0  0  0  0  0  0  0  0
    7.7364    4.5963  -10.6496 H   0  0  0  0  0  0  0  0  0  0  0  0
   10.0102    5.6039   -9.6264 H   0  0  0  0  0  0  0  0  0  0  0  0
    8.3845    5.9022   -8.9948 H   0  0  0  0  0  0  0  0  0  0  0  0
    9.6478    7.0688   -8.7034 H   0  0  0  0  0  0  0  0  0  0  0  0
    9.4220    8.7271  -11.9007 H   0  0  0  0  0  0  0  0  0  0  0  0
   10.0309    8.8141  -10.2618 H   0  0  0  0  0  0  0  0  0  0  0  0
   11.6135    6.9723  -10.6944 H   0  0  0  0  0  0  0  0  0  0  0  0
   11.8731    8.1723  -11.8788 H   0  0  0  0  0  0  0  0  0  0  0  0
    7.9936    7.5447  -10.4678 H   0  0  0  0  0  0  0  0  0  0  0  0
  2  1  1  0
  3  2  1  0
  4  3  1  0
  5  4  2  0
  6  5  1  0
  7  6  2  0
  8  7  1  0
  9  4  1  0
  9  8  2  0
 10  2  1  0
 10  9  1  0
 11  8  1  0
 12 11  1  0
 13 12  2  0
 14 13  1  0
 15 14  2  0
 16 11  2  0
 16 15  1  0
 17 16  1  0
 18  7  1  0
 18 17  1  0
 19 17  1  0
 20 19  1  0
 21 19  1  0
 22 15  1  0
 22 21  1  0
 23  1  1  0
 24  1  1  0
 25  1  1  0
  2 26  1  1
 27  3  1  0
 28  3  1  0
 29  5  1  0
 30  6  1  0
 31 12  1  0
 32 13  1  0
 33 14  1  0
 17 34  1  6
 35 18  1  0
 36 18  1  0
 37 20  1  0
 38 20  1  0
 39 20  1  0
 40 21  1  0
 41 21  1  0
 42 22  1  0
 43 22  1  0
 19 44  1  1
M  CHG  1  19   1
M  END
>  <b_m_subgroup_collapsed>  (1114) 
0

>  <r_i_docking_score>  (1114) 
-6.7199096385481303

>  <s_m_subgroup_title>  (1114) 
glide-dock_SP_D22_pv

>  <s_m_subgroupid>  (1114) 
glide-dock_SP_D22_pv

>  <Molecule ChEMBL ID>  (1114) 
CHEMBL597094

>  <Standard Type>  (1114) 
Ki

>  <Standard Value>  (1114) 
10000.0

>  <label>  (1114) 
0

$$$$
CHEMBL609317
     RDKit          3D

 44 48  0  0  1  0  0  0  0  0999 V2000
    8.4320    0.6042  -17.0978 C   0  0  0  0  0  0  0  0  0  0  0  0
    8.2289    0.7847  -15.5897 C   0  0  2  0  0  0  0  0  0  0  0  0
    6.7480    0.8144  -15.1608 C   0  0  0  0  0  0  0  0  0  0  0  0
    6.7306    1.9921  -14.2469 C   0  0  0  0  0  0  0  0  0  0  0  0
    5.6860    2.4066  -13.4111 C   0  0  0  0  0  0  0  0  0  0  0  0
    5.9263    3.5121  -12.5762 C   0  0  0  0  0  0  0  0  0  0  0  0
    7.1790    4.1723  -12.5912 C   0  0  0  0  0  0  0  0  0  0  0  0
    8.2143    3.7959  -13.4893 C   0  0  0  0  0  0  0  0  0  0  0  0
    7.9478    2.6565  -14.3000 C   0  0  0  0  0  0  0  0  0  0  0  0
    8.8008    2.0330  -15.1712 O   0  0  0  0  0  0  0  0  0  0  0  0
    9.4984    4.5536  -13.4917 C   0  0  0  0  0  0  0  0  0  0  0  0
   10.5903    4.2299  -14.3441 C   0  0  0  0  0  0  0  0  0  0  0  0
   11.7886    4.9617  -14.3866 C   0  0  0  0  0  0  0  0  0  0  0  0
   11.9696    6.0554  -13.5356 C   0  0  0  0  0  0  0  0  0  0  0  0
   10.9515    6.4224  -12.6469 C   0  0  0  0  0  0  0  0  0  0  0  0
    9.7315    5.6909  -12.6643 C   0  0  0  0  0  0  0  0  0  0  0  0
    8.5331    6.2250  -11.8582 C   0  0  1  0  0  0  0  0  0  0  0  0
    7.4454    5.1946  -11.5119 C   0  0  0  0  0  0  0  0  0  0  0  0
    8.8860    7.0857  -10.6963 N   0  0  1  0  0  0  0  0  0  0  0  0
    9.2579    6.3730   -9.4469 C   0  0  0  0  0  0  0  0  0  0  0  0
    9.8446    8.1301  -11.0908 C   0  0  0  0  0  0  0  0  0  0  0  0
   11.1338    7.4543  -11.5449 C   0  0  0  0  0  0  0  0  0  0  0  0
    8.0088   -0.3416  -17.4375 H   0  0  0  0  0  0  0  0  0  0  0  0
    9.4929    0.6039  -17.3484 H   0  0  0  0  0  0  0  0  0  0  0  0
    7.9568    1.4087  -17.6591 H   0  0  0  0  0  0  0  0  0  0  0  0
    8.7480   -0.0069  -15.0468 H   0  0  0  0  0  0  0  0  0  0  0  0
    6.0860    0.9866  -16.0080 H   0  0  0  0  0  0  0  0  0  0  0  0
    6.4463   -0.1015  -14.6515 H   0  0  0  0  0  0  0  0  0  0  0  0
    4.7465    1.8745  -13.3806 H   0  0  0  0  0  0  0  0  0  0  0  0
    5.1675    3.8209  -11.8725 H   0  0  0  0  0  0  0  0  0  0  0  0
   10.5463    3.4030  -15.0279 H   0  0  0  0  0  0  0  0  0  0  0  0
   12.5780    4.6682  -15.0633 H   0  0  0  0  0  0  0  0  0  0  0  0
   12.9027    6.5949  -13.5407 H   0  0  0  0  0  0  0  0  0  0  0  0
    8.0518    6.8991  -12.5694 H   0  0  0  0  0  0  0  0  0  0  0  0
    6.5222    5.7095  -11.2408 H   0  0  0  0  0  0  0  0  0  0  0  0
    7.7364    4.5963  -10.6496 H   0  0  0  0  0  0  0  0  0  0  0  0
   10.0102    5.6039   -9.6264 H   0  0  0  0  0  0  0  0  0  0  0  0
    8.3845    5.9022   -8.9948 H   0  0  0  0  0  0  0  0  0  0  0  0
    9.6478    7.0688   -8.7034 H   0  0  0  0  0  0  0  0  0  0  0  0
    9.4220    8.7271  -11.9007 H   0  0  0  0  0  0  0  0  0  0  0  0
   10.0309    8.8141  -10.2618 H   0  0  0  0  0  0  0  0  0  0  0  0
   11.6135    6.9723  -10.6944 H   0  0  0  0  0  0  0  0  0  0  0  0
   11.8731    8.1723  -11.8788 H   0  0  0  0  0  0  0  0  0  0  0  0
    7.9936    7.5447  -10.4678 H   0  0  0  0  0  0  0  0  0  0  0  0
  2  1  1  0
  3  2  1  0
  4  3  1  0
  5  4  2  0
  6  5  1  0
  7  6  2  0
  8  7  1  0
  9  4  1  0
  9  8  2  0
 10  2  1  0
 10  9  1  0
 11  8  1  0
 12 11  1  0
 13 12  2  0
 14 13  1  0
 15 14  2  0
 16 11  2  0
 16 15  1  0
 17 16  1  0
 18  7  1  0
 18 17  1  0
 19 17  1  0
 20 19  1  0
 21 19  1  0
 22 15  1  0
 22 21  1  0
 23  1  1  0
 24  1  1  0
 25  1  1  0
  2 26  1  1
 27  3  1  0
 28  3  1  0
 29  5  1  0
 30  6  1  0
 31 12  1  0
 32 13  1  0
 33 14  1  0
 17 34  1  6
 35 18  1  0
 36 18  1  0
 37 20  1  0
 38 20  1  0
 39 20  1  0
 40 21  1  0
 41 21  1  0
 42 22  1  0
 43 22  1  0
 19 44  1  1
M  CHG  1  19   1
M  END
>  <b_m_subgroup_collapsed>  (1115) 
0

>  <r_i_docking_score>  (1115) 
-6.7199096385481303

>  <s_m_subgroup_title>  (1115) 
glide-dock_SP_D22_pv

>  <s_m_subgroupid>  (1115) 
glide-dock_SP_D22_pv

>  <Molecule ChEMBL ID>  (1115) 
CHEMBL609317

>  <Standard Type>  (1115) 
Ki

>  <Standard Value>  (1115) 
10000.0

>  <label>  (1115) 
0

$$$$
CHEMBL51433
     RDKit          3D

 52 55  0  0  1  0  0  0  0  0999 V2000
    5.4066    1.0899  -13.6605 C   0  0  0  0  0  0  0  0  0  0  0  0
    6.3042    2.1657  -13.8969 O   0  0  0  0  0  0  0  0  0  0  0  0
    7.6073    1.8707  -14.2470 C   0  0  0  0  0  0  0  0  0  0  0  0
    7.9819    0.5869  -14.7209 C   0  0  0  0  0  0  0  0  0  0  0  0
    9.3027    0.3224  -15.1190 C   0  0  0  0  0  0  0  0  0  0  0  0
   10.2729    1.3306  -15.0425 C   0  0  0  0  0  0  0  0  0  0  0  0
    9.9222    2.6026  -14.5609 C   0  0  0  0  0  0  0  0  0  0  0  0
    8.5936    2.8977  -14.1618 C   0  0  0  0  0  0  0  0  0  0  0  0
    8.2609    4.1938  -13.7014 N   0  0  0  0  0  0  0  0  0  0  0  0
    7.5419    4.3775  -12.4379 C   0  0  0  0  0  0  0  0  0  0  0  0
    8.5137    4.7473  -11.2994 C   0  0  0  0  0  0  0  0  0  0  0  0
    9.2612    5.9607  -11.6476 N   0  0  0  0  0  0  0  0  0  0  0  0
   10.0871    6.3935  -10.5222 C   0  0  0  0  0  0  0  0  0  0  0  0
    9.2696    7.2898   -9.5723 C   0  0  0  0  0  0  0  0  0  0  0  0
   10.0502    7.7459   -8.4002 N   0  0  0  0  0  0  0  0  0  0  0  0
   10.8469    8.8473   -8.5556 C   0  0  0  0  0  0  0  0  0  0  0  0
   11.0559    9.3717   -9.6464 O   0  0  0  0  0  0  0  0  0  0  0  0
   11.4125    9.3727   -7.4465 N   0  0  0  0  0  0  0  0  0  0  0  0
   11.4525    8.7307   -6.1982 C   0  0  0  0  0  0  0  0  0  0  0  0
   12.2007    9.2513   -5.1246 C   0  0  0  0  0  0  0  0  0  0  0  0
   12.3065    8.5161   -3.9276 C   0  0  0  0  0  0  0  0  0  0  0  0
   11.7003    7.2482   -3.8312 C   0  0  0  0  0  0  0  0  0  0  0  0
   10.9434    6.7440   -4.9076 C   0  0  0  0  0  0  0  0  0  0  0  0
   10.7792    7.5097   -6.0798 C   0  0  0  0  0  0  0  0  0  0  0  0
    9.8952    7.0813   -7.2180 C   0  0  0  0  0  0  0  0  0  0  0  0
    9.0900    6.1724   -7.0468 O   0  0  0  0  0  0  0  0  0  0  0  0
   10.0617    5.6698  -12.8400 C   0  0  0  0  0  0  0  0  0  0  0  0
    9.1155    5.3348  -14.0169 C   0  0  0  0  0  0  0  0  0  0  0  0
    4.4795    1.4859  -13.2464 H   0  0  0  0  0  0  0  0  0  0  0  0
    5.1548    0.5663  -14.5829 H   0  0  0  0  0  0  0  0  0  0  0  0
    5.8142    0.3789  -12.9397 H   0  0  0  0  0  0  0  0  0  0  0  0
    7.2670   -0.2164  -14.8116 H   0  0  0  0  0  0  0  0  0  0  0  0
    9.5705   -0.6537  -15.4905 H   0  0  0  0  0  0  0  0  0  0  0  0
   11.2878    1.1261  -15.3482 H   0  0  0  0  0  0  0  0  0  0  0  0
   10.7047    3.3417  -14.4976 H   0  0  0  0  0  0  0  0  0  0  0  0
    6.8068    5.1733  -12.5657 H   0  0  0  0  0  0  0  0  0  0  0  0
    6.9810    3.4948  -12.1398 H   0  0  0  0  0  0  0  0  0  0  0  0
    7.9451    4.8979  -10.3816 H   0  0  0  0  0  0  0  0  0  0  0  0
    9.2094    3.9270  -11.1154 H   0  0  0  0  0  0  0  0  0  0  0  0
   10.4861    5.5318   -9.9876 H   0  0  0  0  0  0  0  0  0  0  0  0
   10.9379    6.9677  -10.8919 H   0  0  0  0  0  0  0  0  0  0  0  0
    8.8874    8.1497  -10.1268 H   0  0  0  0  0  0  0  0  0  0  0  0
    8.3668    6.7652   -9.2627 H   0  0  0  0  0  0  0  0  0  0  0  0
   11.9662   10.2067   -7.5572 H   0  0  0  0  0  0  0  0  0  0  0  0
   12.7389   10.1760   -5.2337 H   0  0  0  0  0  0  0  0  0  0  0  0
   12.8867    8.9043   -3.1032 H   0  0  0  0  0  0  0  0  0  0  0  0
   11.8059    6.6629   -2.9289 H   0  0  0  0  0  0  0  0  0  0  0  0
   10.4798    5.7767   -4.8092 H   0  0  0  0  0  0  0  0  0  0  0  0
   10.6621    6.5432  -13.0951 H   0  0  0  0  0  0  0  0  0  0  0  0
   10.7552    4.8483  -12.6531 H   0  0  0  0  0  0  0  0  0  0  0  0
    9.6705    5.1841  -14.9426 H   0  0  0  0  0  0  0  0  0  0  0  0
    8.4545    6.1725  -14.2132 H   0  0  0  0  0  0  0  0  0  0  0  0
  2  1  1  0
  3  2  1  0
  4  3  2  0
  5  4  1  0
  6  5  2  0
  7  6  1  0
  8  3  1  0
  8  7  2  0
  9  8  1  0
 10  9  1  0
 11 10  1  0
 12 11  1  0
 13 12  1  0
 14 13  1  0
 15 14  1  0
 16 15  1  0
 17 16  2  0
 18 16  1  0
 19 18  1  0
 20 19  2  0
 21 20  1  0
 22 21  2  0
 23 22  1  0
 24 19  1  0
 24 23  2  0
 25 15  1  0
 25 24  1  0
 26 25  2  0
 27 12  1  0
 28  9  1  0
 28 27  1  0
 29  1  1  0
 30  1  1  0
 31  1  1  0
 32  4  1  0
 33  5  1  0
 34  6  1  0
 35  7  1  0
 36 10  1  0
 37 10  1  0
 38 11  1  0
 39 11  1  0
 40 13  1  0
 41 13  1  0
 42 14  1  0
 43 14  1  0
 44 18  1  0
 45 20  1  0
 46 21  1  0
 47 22  1  0
 48 23  1  0
 49 27  1  0
 50 27  1  0
 51 28  1  0
 52 28  1  0
M  END
>  <b_m_subgroup_collapsed>  (1116) 
0

>  <r_i_docking_score>  (1116) 
-6.7079424294358798

>  <s_m_subgroup_title>  (1116) 
glide-dock_SP_D22_pv

>  <s_m_subgroupid>  (1116) 
glide-dock_SP_D22_pv

>  <Molecule ChEMBL ID>  (1116) 
CHEMBL51433

>  <Standard Type>  (1116) 
Ki

>  <Standard Value>  (1116) 
32.0

>  <label>  (1116) 
1

$$$$
CHEMBL437792
     RDKit          3D

 61 65  0  0  1  0  0  0  0  0999 V2000
   11.6287    6.7524   -4.7447 C   0  0  0  0  0  0  0  0  0  0  0  0
   11.2861    8.0449   -5.4202 C   0  0  0  0  0  0  0  0  0  0  0  0
   11.6295    9.2558   -4.8323 N   0  0  0  0  0  0  0  0  0  0  0  0
   11.2852   10.1697   -5.7316 C   0  0  0  0  0  0  0  0  0  0  0  0
   10.7237    9.6504   -6.8533 O   0  0  0  0  0  0  0  0  0  0  0  0
   10.7155    8.2953   -6.6475 C   0  0  0  0  0  0  0  0  0  0  0  0
   10.1942    7.4247   -7.7035 C   0  0  0  0  0  0  0  0  0  0  0  0
    9.8031    6.1739   -7.4502 N   0  0  0  0  0  0  0  0  0  0  0  0
    9.4032    5.6413   -8.6518 N   0  0  0  0  0  0  0  0  0  0  0  0
    9.5894    6.6109   -9.5499 C   0  0  0  0  0  0  0  0  0  0  0  0
    9.2860    6.4349  -11.2868 S   0  0  0  0  0  0  0  0  0  0  0  0
    9.2391    4.6208  -11.4261 C   0  0  0  0  0  0  0  0  0  0  0  0
    9.2385    4.1372  -12.8862 C   0  0  0  0  0  0  0  0  0  0  0  0
   10.3928    4.7069  -13.7460 C   0  0  0  0  0  0  0  0  0  0  0  0
   10.5463    4.0621  -15.0826 N   0  0  1  0  0  0  0  0  0  0  0  0
   11.2721    2.7712  -15.0189 C   0  0  0  0  0  0  0  0  0  0  0  0
   11.8623    2.3571  -16.3798 C   0  0  0  0  0  0  0  0  0  0  0  0
   10.8476    1.5967  -17.2025 C   0  0  0  0  0  0  0  0  0  0  0  0
   11.0776    0.2286  -17.4743 C   0  0  0  0  0  0  0  0  0  0  0  0
   10.1085   -0.5432  -18.1400 C   0  0  0  0  0  0  0  0  0  0  0  0
    8.9196    0.0883  -18.5292 C   0  0  0  0  0  0  0  0  0  0  0  0
    7.8218   -0.4598  -19.1648 O   0  0  0  0  0  0  0  0  0  0  0  0
    6.9751    0.6066  -19.3012 C   0  0  0  0  0  0  0  0  0  0  0  0
    5.6293    0.3703  -19.9160 C   0  0  0  0  0  0  0  0  0  0  0  0
    4.5324    0.2491  -18.8527 C   0  0  0  0  0  0  0  0  0  0  0  0
    5.3186    1.3723  -20.7363 F   0  0  0  0  0  0  0  0  0  0  0  0
    5.6320   -0.7567  -20.6293 F   0  0  0  0  0  0  0  0  0  0  0  0
    7.4122    1.7723  -18.7948 N   0  0  0  0  0  0  0  0  0  0  0  0
    8.6653    1.4608  -18.3000 C   0  0  0  0  0  0  0  0  0  0  0  0
    9.6549    2.2274  -17.6298 C   0  0  0  0  0  0  0  0  0  0  0  0
    9.4350    3.7088  -17.3618 C   0  0  0  0  0  0  0  0  0  0  0  0
    9.2863    4.0524  -15.8681 C   0  0  0  0  0  0  0  0  0  0  0  0
   10.0868    7.7464   -9.0144 N   0  0  0  0  0  0  0  0  0  0  0  0
   10.4489    8.9891   -9.6806 C   0  0  0  0  0  0  0  0  0  0  0  0
   11.7751    5.9454   -5.4651 H   0  0  0  0  0  0  0  0  0  0  0  0
   10.8649    6.4363   -4.0384 H   0  0  0  0  0  0  0  0  0  0  0  0
   12.5477    6.8551   -4.1687 H   0  0  0  0  0  0  0  0  0  0  0  0
   11.4117   11.2328   -5.6090 H   0  0  0  0  0  0  0  0  0  0  0  0
   10.0861    4.1925  -10.8961 H   0  0  0  0  0  0  0  0  0  0  0  0
    8.3431    4.2596  -10.9197 H   0  0  0  0  0  0  0  0  0  0  0  0
    9.2864    3.0483  -12.8796 H   0  0  0  0  0  0  0  0  0  0  0  0
    8.2790    4.4021  -13.3303 H   0  0  0  0  0  0  0  0  0  0  0  0
   10.2233    5.7704  -13.9144 H   0  0  0  0  0  0  0  0  0  0  0  0
   11.3330    4.6482  -13.1951 H   0  0  0  0  0  0  0  0  0  0  0  0
   12.0890    2.8983  -14.3144 H   0  0  0  0  0  0  0  0  0  0  0  0
   10.6437    1.9825  -14.6039 H   0  0  0  0  0  0  0  0  0  0  0  0
   12.2249    3.2235  -16.9355 H   0  0  0  0  0  0  0  0  0  0  0  0
   12.7381    1.7262  -16.2470 H   0  0  0  0  0  0  0  0  0  0  0  0
   12.0014   -0.2275  -17.1532 H   0  0  0  0  0  0  0  0  0  0  0  0
   10.2658   -1.5944  -18.3349 H   0  0  0  0  0  0  0  0  0  0  0  0
    3.5538    0.0987  -19.3084 H   0  0  0  0  0  0  0  0  0  0  0  0
    4.4860    1.1553  -18.2488 H   0  0  0  0  0  0  0  0  0  0  0  0
    4.7211   -0.5882  -18.1813 H   0  0  0  0  0  0  0  0  0  0  0  0
   10.2459    4.2853  -17.8098 H   0  0  0  0  0  0  0  0  0  0  0  0
    8.5340    4.0281  -17.8859 H   0  0  0  0  0  0  0  0  0  0  0  0
    8.5478    3.3881  -15.4141 H   0  0  0  0  0  0  0  0  0  0  0  0
    8.8858    5.0654  -15.8059 H   0  0  0  0  0  0  0  0  0  0  0  0
   10.4798    8.8612  -10.7602 H   0  0  0  0  0  0  0  0  0  0  0  0
   11.4373    9.3123   -9.3531 H   0  0  0  0  0  0  0  0  0  0  0  0
    9.7215    9.7660   -9.4432 H   0  0  0  0  0  0  0  0  0  0  0  0
   11.1701    4.6786  -15.5865 H   0  0  0  0  0  0  0  0  0  0  0  0
  2  1  1  0
  3  2  1  0
  4  3  2  0
  5  4  1  0
  6  2  2  0
  6  5  1  0
  7  6  1  0
  8  7  2  0
  9  8  1  0
 10  9  2  0
 11 10  1  0
 12 11  1  0
 13 12  1  0
 14 13  1  0
 15 14  1  0
 16 15  1  0
 17 16  1  0
 18 17  1  0
 19 18  2  0
 20 19  1  0
 21 20  2  0
 22 21  1  0
 23 22  1  0
 24 23  1  0
 25 24  1  0
 26 24  1  0
 27 24  1  0
 28 23  2  0
 29 21  1  0
 29 28  1  0
 30 18  1  0
 30 29  2  0
 31 30  1  0
 32 15  1  0
 32 31  1  0
 33  7  1  0
 33 10  1  0
 34 33  1  0
 35  1  1  0
 36  1  1  0
 37  1  1  0
 38  4  1  0
 39 12  1  0
 40 12  1  0
 41 13  1  0
 42 13  1  0
 43 14  1  0
 44 14  1  0
 45 16  1  0
 46 16  1  0
 47 17  1  0
 48 17  1  0
 49 19  1  0
 50 20  1  0
 51 25  1  0
 52 25  1  0
 53 25  1  0
 54 31  1  0
 55 31  1  0
 56 32  1  0
 57 32  1  0
 58 34  1  0
 59 34  1  0
 60 34  1  0
 15 61  1  6
M  CHG  1  15   1
M  END
>  <b_m_subgroup_collapsed>  (1117) 
0

>  <r_i_docking_score>  (1117) 
-6.7075016003065899

>  <s_m_subgroup_title>  (1117) 
glide-dock_SP_D22_pv

>  <s_m_subgroupid>  (1117) 
glide-dock_SP_D22_pv

>  <Molecule ChEMBL ID>  (1117) 
CHEMBL437792

>  <Standard Type>  (1117) 
Ki

>  <Standard Value>  (1117) 
15.85

>  <label>  (1117) 
1

$$$$
CHEMBL311539
     RDKit          3D

 44 47  0  0  1  0  0  0  0  0999 V2000
    8.8824    5.1568  -11.1560 Cl  0  0  0  0  0  0  0  0  0  0  0  0
    9.9427    5.3697  -12.5038 C   0  0  0  0  0  0  0  0  0  0  0  0
   10.0063    4.3267  -13.4462 C   0  0  0  0  0  0  0  0  0  0  0  0
   10.8910    4.4089  -14.5314 C   0  0  0  0  0  0  0  0  0  0  0  0
   11.7120    5.5381  -14.6615 C   0  0  0  0  0  0  0  0  0  0  0  0
   12.6476    5.8876  -15.6122 N   0  0  0  0  0  0  0  0  0  0  0  0
   13.1981    7.1209  -15.3277 C   0  0  0  0  0  0  0  0  0  0  0  0
   12.6467    7.5942  -14.1650 C   0  0  0  0  0  0  0  0  0  0  0  0
   11.6860    6.6137  -13.7215 C   0  0  0  0  0  0  0  0  0  0  0  0
   10.7682    6.5216  -12.6350 C   0  0  0  0  0  0  0  0  0  0  0  0
   10.6892    7.5612  -11.6833 N   0  0  0  0  0  0  0  0  0  0  0  0
   11.7515    7.7485  -10.7140 C   0  0  0  0  0  0  0  0  0  0  0  0
   11.2025    7.6372   -9.2820 C   0  0  0  0  0  0  0  0  0  0  0  0
   10.0877    8.5918   -9.0555 N   0  0  0  0  0  0  0  0  0  0  0  0
    9.4511    8.4995   -7.7094 C   0  0  0  0  0  0  0  0  0  0  0  0
   10.4020    8.3600   -6.5324 C   0  0  0  0  0  0  0  0  0  0  0  0
   10.5019    7.1183   -5.8687 C   0  0  0  0  0  0  0  0  0  0  0  0
   11.3093    6.9837   -4.7270 C   0  0  0  0  0  0  0  0  0  0  0  0
   12.0395    8.0904   -4.2472 C   0  0  0  0  0  0  0  0  0  0  0  0
   11.9568    9.3257   -4.9171 C   0  0  0  0  0  0  0  0  0  0  0  0
   11.1363    9.4655   -6.0545 C   0  0  0  0  0  0  0  0  0  0  0  0
    9.0315    8.4773  -10.0924 C   0  0  0  0  0  0  0  0  0  0  0  0
    9.4911    8.3736  -11.5528 C   0  0  0  0  0  0  0  0  0  0  0  0
    9.3791    3.4557  -13.3265 H   0  0  0  0  0  0  0  0  0  0  0  0
   10.9377    3.6126  -15.2600 H   0  0  0  0  0  0  0  0  0  0  0  0
   12.9096    5.3376  -16.4173 H   0  0  0  0  0  0  0  0  0  0  0  0
   13.9495    7.5610  -15.9684 H   0  0  0  0  0  0  0  0  0  0  0  0
   12.8863    8.5285  -13.6766 H   0  0  0  0  0  0  0  0  0  0  0  0
   12.2392    8.7115  -10.8775 H   0  0  0  0  0  0  0  0  0  0  0  0
   12.4897    6.9727  -10.8707 H   0  0  0  0  0  0  0  0  0  0  0  0
   12.0143    7.8237   -8.5781 H   0  0  0  0  0  0  0  0  0  0  0  0
   10.8497    6.6195   -9.1042 H   0  0  0  0  0  0  0  0  0  0  0  0
    8.7679    7.6467   -7.6824 H   0  0  0  0  0  0  0  0  0  0  0  0
    8.8206    9.3718   -7.5553 H   0  0  0  0  0  0  0  0  0  0  0  0
    9.9406    6.2649   -6.2217 H   0  0  0  0  0  0  0  0  0  0  0  0
   11.3706    6.0332   -4.2200 H   0  0  0  0  0  0  0  0  0  0  0  0
   12.6648    7.9879   -3.3740 H   0  0  0  0  0  0  0  0  0  0  0  0
   12.5252   10.1662   -4.5532 H   0  0  0  0  0  0  0  0  0  0  0  0
   11.0668   10.4251   -6.5452 H   0  0  0  0  0  0  0  0  0  0  0  0
    8.4918    7.5578   -9.8786 H   0  0  0  0  0  0  0  0  0  0  0  0
    8.3228    9.3032   -9.9947 H   0  0  0  0  0  0  0  0  0  0  0  0
    9.6856    9.3723  -11.9369 H   0  0  0  0  0  0  0  0  0  0  0  0
    8.6849    7.9702  -12.1669 H   0  0  0  0  0  0  0  0  0  0  0  0
   10.4885    9.5133   -9.1447 H   0  0  0  0  0  0  0  0  0  0  0  0
  2  1  1  0
  3  2  2  0
  4  3  1  0
  5  4  2  0
  6  5  1  0
  7  6  1  0
  8  7  2  0
  9  5  1  0
  9  8  1  0
 10  2  1  0
 10  9  2  0
 11 10  1  0
 12 11  1  0
 13 12  1  0
 14 13  1  0
 15 14  1  0
 16 15  1  0
 17 16  2  0
 18 17  1  0
 19 18  2  0
 20 19  1  0
 21 16  1  0
 21 20  2  0
 22 14  1  0
 23 11  1  0
 23 22  1  0
 24  3  1  0
 25  4  1  0
 26  6  1  0
 27  7  1  0
 28  8  1  0
 29 12  1  0
 30 12  1  0
 31 13  1  0
 32 13  1  0
 33 15  1  0
 34 15  1  0
 35 17  1  0
 36 18  1  0
 37 19  1  0
 38 20  1  0
 39 21  1  0
 40 22  1  0
 41 22  1  0
 42 23  1  0
 43 23  1  0
 44 14  1  0
M  CHG  1  14   1
M  END
>  <b_m_subgroup_collapsed>  (1118) 
0

>  <r_i_docking_score>  (1118) 
-6.7026210097454797

>  <s_m_subgroup_title>  (1118) 
glide-dock_SP_D22_pv

>  <s_m_subgroupid>  (1118) 
glide-dock_SP_D22_pv

>  <Molecule ChEMBL ID>  (1118) 
CHEMBL311539

>  <Standard Type>  (1118) 
Ki

>  <Standard Value>  (1118) 
81.3

>  <label>  (1118) 
1

$$$$
CHEMBL4435946
     RDKit          3D

 61 64  0  0  1  0  0  0  0  0999 V2000
    7.0791    6.7798  -12.7818 C   0  0  0  0  0  0  0  0  0  0  0  0
    7.2652    5.4525  -12.0243 C   0  0  1  0  0  0  0  0  0  0  0  0
    6.7429    4.2782  -12.8694 C   0  0  0  0  0  0  0  0  0  0  0  0
    7.6005    4.0755  -13.9910 O   0  0  0  0  0  0  0  0  0  0  0  0
    8.9329    3.7232  -13.6326 C   0  0  1  0  0  0  0  0  0  0  0  0
    9.7802    3.4322  -14.8575 C   0  0  0  0  0  0  0  0  0  0  0  0
   10.4864    2.2177  -14.9832 C   0  0  0  0  0  0  0  0  0  0  0  0
   11.2831    2.0104  -16.1252 C   0  0  0  0  0  0  0  0  0  0  0  0
   11.3414    3.0276  -17.0956 C   0  0  0  0  0  0  0  0  0  0  0  0
   12.1221    2.8660  -18.2322 N   0  0  0  0  0  0  0  0  0  0  0  0
   10.6678    4.1897  -16.9902 N   0  0  0  0  0  0  0  0  0  0  0  0
    9.9061    4.3820  -15.8932 C   0  0  0  0  0  0  0  0  0  0  0  0
    9.5472    4.8471  -12.7745 C   0  0  0  0  0  0  0  0  0  0  0  0
    8.6674    5.1526  -11.6222 N   0  0  1  0  0  0  0  0  0  0  0  0
    9.2475    6.0261  -10.5721 C   0  0  0  0  0  0  0  0  0  0  0  0
    9.9495    7.3140  -11.0726 C   0  0  0  0  0  0  0  0  0  0  0  0
   10.4429    8.2142   -9.9304 C   0  0  0  0  0  0  0  0  0  0  0  0
    9.3184    8.6861   -8.9772 C   0  0  0  0  0  0  0  0  0  0  0  0
    9.8369    9.3723   -7.8501 O   0  0  0  0  0  0  0  0  0  0  0  0
   10.4200    8.6643   -6.8266 C   0  0  0  0  0  0  0  0  0  0  0  0
   10.6188    7.2631   -6.8594 C   0  0  0  0  0  0  0  0  0  0  0  0
   11.2860    6.6225   -5.8099 C   0  0  0  0  0  0  0  0  0  0  0  0
   11.6860    7.3529   -4.6845 C   0  0  0  0  0  0  0  0  0  0  0  0
   11.4354    8.7360   -4.6035 C   0  0  0  0  0  0  0  0  0  0  0  0
   10.8434    9.3985   -5.6952 C   0  0  0  0  0  0  0  0  0  0  0  0
   11.7794    9.4237   -3.4100 N   0  0  0  0  0  0  0  0  0  0  0  0
   12.0946    8.7892   -2.2636 C   0  0  0  0  0  0  0  0  0  0  0  0
   12.4860    9.3723   -1.2664 O   0  0  0  0  0  0  0  0  0  0  0  0
   11.9671    7.2674   -2.2259 C   0  0  0  0  0  0  0  0  0  0  0  0
   12.4321    6.7015   -3.5488 C   0  0  0  0  0  0  0  0  0  0  0  0
    6.0294    6.9006  -13.0469 H   0  0  0  0  0  0  0  0  0  0  0  0
    7.3139    7.6696  -12.2151 H   0  0  0  0  0  0  0  0  0  0  0  0
    7.6861    6.8154  -13.6818 H   0  0  0  0  0  0  0  0  0  0  0  0
    6.6579    5.5069  -11.1197 H   0  0  0  0  0  0  0  0  0  0  0  0
    5.7335    4.4808  -13.2280 H   0  0  0  0  0  0  0  0  0  0  0  0
    6.6814    3.3722  -12.2675 H   0  0  0  0  0  0  0  0  0  0  0  0
    8.8908    2.8073  -13.0470 H   0  0  0  0  0  0  0  0  0  0  0  0
   10.4281    1.4573  -14.2179 H   0  0  0  0  0  0  0  0  0  0  0  0
   11.8417    1.0933  -16.2461 H   0  0  0  0  0  0  0  0  0  0  0  0
   12.7058    2.0541  -18.3648 H   0  0  0  0  0  0  0  0  0  0  0  0
   12.2037    3.6127  -18.9068 H   0  0  0  0  0  0  0  0  0  0  0  0
    9.3856    5.3270  -15.8375 H   0  0  0  0  0  0  0  0  0  0  0  0
   10.5239    4.5316  -12.4100 H   0  0  0  0  0  0  0  0  0  0  0  0
    9.7033    5.7449  -13.3725 H   0  0  0  0  0  0  0  0  0  0  0  0
    8.4448    6.2417   -9.8707 H   0  0  0  0  0  0  0  0  0  0  0  0
    9.9731    5.4332  -10.0142 H   0  0  0  0  0  0  0  0  0  0  0  0
   10.8096    7.0473  -11.6869 H   0  0  0  0  0  0  0  0  0  0  0  0
    9.3095    7.9098  -11.7140 H   0  0  0  0  0  0  0  0  0  0  0  0
   11.2283    7.6860   -9.3937 H   0  0  0  0  0  0  0  0  0  0  0  0
   10.9353    9.0917  -10.3507 H   0  0  0  0  0  0  0  0  0  0  0  0
    8.6606    9.3717   -9.5122 H   0  0  0  0  0  0  0  0  0  0  0  0
    8.6710    7.8899   -8.6175 H   0  0  0  0  0  0  0  0  0  0  0  0
   10.3061    6.6549   -7.6926 H   0  0  0  0  0  0  0  0  0  0  0  0
   11.5319    5.5811   -5.8873 H   0  0  0  0  0  0  0  0  0  0  0  0
   10.6736   10.4650   -5.6567 H   0  0  0  0  0  0  0  0  0  0  0  0
   11.7877   10.4329   -3.4162 H   0  0  0  0  0  0  0  0  0  0  0  0
   12.6010    6.8550   -1.4469 H   0  0  0  0  0  0  0  0  0  0  0  0
   10.9360    6.9871   -2.0085 H   0  0  0  0  0  0  0  0  0  0  0  0
   12.3508    5.6203   -3.5708 H   0  0  0  0  0  0  0  0  0  0  0  0
   13.4810    6.9723   -3.6399 H   0  0  0  0  0  0  0  0  0  0  0  0
    8.5734    4.2699  -11.1391 H   0  0  0  0  0  0  0  0  0  0  0  0
  2  1  1  0
  3  2  1  0
  4  3  1  0
  5  4  1  0
  6  5  1  0
  7  6  2  0
  8  7  1  0
  9  8  2  0
 10  9  1  0
 11  9  1  0
 12  6  1  0
 12 11  2  0
 13  5  1  0
 14  2  1  0
 14 13  1  0
 15 14  1  0
 16 15  1  0
 17 16  1  0
 18 17  1  0
 19 18  1  0
 20 19  1  0
 21 20  1  0
 22 21  2  0
 23 22  1  0
 24 23  2  0
 25 20  2  0
 25 24  1  0
 26 24  1  0
 27 26  1  0
 28 27  2  0
 29 27  1  0
 30 23  1  0
 30 29  1  0
 31  1  1  0
 32  1  1  0
 33  1  1  0
  2 34  1  1
 35  3  1  0
 36  3  1  0
  5 37  1  1
 38  7  1  0
 39  8  1  0
 40 10  1  0
 41 10  1  0
 42 12  1  0
 43 13  1  0
 44 13  1  0
 45 15  1  0
 46 15  1  0
 47 16  1  0
 48 16  1  0
 49 17  1  0
 50 17  1  0
 51 18  1  0
 52 18  1  0
 53 21  1  0
 54 22  1  0
 55 25  1  0
 56 26  1  0
 57 29  1  0
 58 29  1  0
 59 30  1  0
 60 30  1  0
 14 61  1  1
M  CHG  1  14   1
M  END
>  <b_m_subgroup_collapsed>  (1119) 
0

>  <r_i_docking_score>  (1119) 
-6.7015917435504599

>  <s_m_subgroup_title>  (1119) 
glide-dock_SP_D22_pv

>  <s_m_subgroupid>  (1119) 
glide-dock_SP_D22_pv

>  <Molecule ChEMBL ID>  (1119) 
CHEMBL4435946

>  <Standard Type>  (1119) 
Ki

>  <Standard Value>  (1119) 
34.6

>  <label>  (1119) 
1

$$$$
CHEMBL5722998
     RDKit          3D

 40 42  0  0  1  0  0  0  0  0999 V2000
    8.6650    6.7936   -7.2020 C   0  0  0  0  0  0  0  0  0  0  0  0
    9.9658    6.8488   -6.6342 O   0  0  0  0  0  0  0  0  0  0  0  0
   10.5121    8.1612   -6.5531 C   0  0  2  0  0  0  0  0  0  0  0  0
   11.5311    8.3923   -7.6819 C   0  0  0  0  0  0  0  0  0  0  0  0
   10.8910    8.3504   -8.9909 N   0  0  0  0  0  0  0  0  0  0  0  0
   11.8048    8.4449  -10.1304 C   0  0  0  0  0  0  0  0  0  0  0  0
   11.3269    7.6026  -11.3054 C   0  0  0  0  0  0  0  0  0  0  0  0
   12.0969    7.3723  -12.3892 C   0  0  0  0  0  0  0  0  0  0  0  0
   11.6714    6.4282  -13.4469 C   0  0  0  0  0  0  0  0  0  0  0  0
   12.3454    6.2456  -14.4600 O   0  0  0  0  0  0  0  0  0  0  0  0
   10.3743    5.7222  -13.2033 C   0  0  0  0  0  0  0  0  0  0  0  0
    9.9031    4.7289  -14.0906 C   0  0  0  0  0  0  0  0  0  0  0  0
    8.6732    4.0865  -13.8439 C   0  0  0  0  0  0  0  0  0  0  0  0
    8.2337    3.1216  -14.6849 F   0  0  0  0  0  0  0  0  0  0  0  0
    7.8974    4.4436  -12.7240 C   0  0  0  0  0  0  0  0  0  0  0  0
    8.3612    5.4251  -11.8293 C   0  0  0  0  0  0  0  0  0  0  0  0
    9.6002    6.0526  -12.0625 C   0  0  0  0  0  0  0  0  0  0  0  0
   10.0867    6.9995  -11.1612 N   0  0  0  0  0  0  0  0  0  0  0  0
   11.1517    8.2429   -5.2045 C   0  0  0  0  0  0  0  0  0  0  0  0
   11.6861    7.2293   -4.4470 C   0  0  0  0  0  0  0  0  0  0  0  0
   12.2149    7.6768   -3.2011 C   0  0  0  0  0  0  0  0  0  0  0  0
   12.0860    9.0292   -3.0277 C   0  0  0  0  0  0  0  0  0  0  0  0
   11.2861    9.7723   -4.3849 S   0  0  0  0  0  0  0  0  0  0  0  0
    8.2879    5.7724   -7.1678 H   0  0  0  0  0  0  0  0  0  0  0  0
    7.9700    7.4231   -6.6468 H   0  0  0  0  0  0  0  0  0  0  0  0
    8.6574    7.1128   -8.2436 H   0  0  0  0  0  0  0  0  0  0  0  0
    9.7267    8.9182   -6.6068 H   0  0  0  0  0  0  0  0  0  0  0  0
   12.0227    9.3560   -7.5420 H   0  0  0  0  0  0  0  0  0  0  0  0
   12.3089    7.6306   -7.6231 H   0  0  0  0  0  0  0  0  0  0  0  0
   10.1546    9.0458   -9.0623 H   0  0  0  0  0  0  0  0  0  0  0  0
   11.9292    9.4826  -10.4391 H   0  0  0  0  0  0  0  0  0  0  0  0
   12.7950    8.0791   -9.8540 H   0  0  0  0  0  0  0  0  0  0  0  0
   13.0723    7.8272  -12.4832 H   0  0  0  0  0  0  0  0  0  0  0  0
   10.4815    4.4515  -14.9603 H   0  0  0  0  0  0  0  0  0  0  0  0
    6.9520    3.9541  -12.5423 H   0  0  0  0  0  0  0  0  0  0  0  0
    7.7650    5.6911  -10.9661 H   0  0  0  0  0  0  0  0  0  0  0  0
    9.5786    7.1670  -10.3008 H   0  0  0  0  0  0  0  0  0  0  0  0
   11.7083    6.1896   -4.7419 H   0  0  0  0  0  0  0  0  0  0  0  0
   12.6669    7.0000   -2.4915 H   0  0  0  0  0  0  0  0  0  0  0  0
   12.4020    9.6340   -2.1887 H   0  0  0  0  0  0  0  0  0  0  0  0
  2  1  1  0
  3  2  1  0
  4  3  1  0
  5  4  1  0
  6  5  1  0
  7  6  1  0
  8  7  2  0
  9  8  1  0
 10  9  2  0
 11  9  1  0
 12 11  2  0
 13 12  1  0
 14 13  1  0
 15 13  2  0
 16 15  1  0
 17 11  1  0
 17 16  2  0
 18  7  1  0
 18 17  1  0
 19  3  1  0
 20 19  2  0
 21 20  1  0
 22 21  2  0
 23 19  1  0
 23 22  1  0
 24  1  1  0
 25  1  1  0
 26  1  1  0
  3 27  1  1
 28  4  1  0
 29  4  1  0
 30  5  1  0
 31  6  1  0
 32  6  1  0
 33  8  1  0
 34 12  1  0
 35 15  1  0
 36 16  1  0
 37 18  1  0
 38 20  1  0
 39 21  1  0
 40 22  1  0
M  END
>  <b_m_subgroup_collapsed>  (1120) 
0

>  <r_i_docking_score>  (1120) 
-6.69873479443108

>  <s_m_subgroup_title>  (1120) 
glide-dock_SP_D22_pv

>  <s_m_subgroupid>  (1120) 
glide-dock_SP_D22_pv

>  <Molecule ChEMBL ID>  (1120) 
CHEMBL5722998

>  <Standard Type>  (1120) 
Ki

>  <Standard Value>  (1120) 
10000.0

>  <label>  (1120) 
0

$$$$
CHEMBL317493
     RDKit          3D

 37 39  0  0  1  0  0  0  0  0999 V2000
   12.3593    7.6260  -12.1803 C   0  0  0  0  0  0  0  0  0  0  0  0
   11.2122    7.7084  -11.1560 C   0  0  0  0  0  0  0  0  0  0  0  0
   11.6751    7.6144   -9.6903 C   0  0  0  0  0  0  0  0  0  0  0  0
   10.8754    8.4016   -8.7499 N   0  0  0  0  0  0  0  0  0  0  0  0
    9.4781    7.9702   -8.6406 C   0  0  0  0  0  0  0  0  0  0  0  0
    9.3026    6.7402   -7.7372 C   0  0  0  0  0  0  0  0  0  0  0  0
    9.8009    7.0568   -6.4445 O   0  0  0  0  0  0  0  0  0  0  0  0
   11.1839    7.4021   -6.4239 C   0  0  2  0  0  0  0  0  0  0  0  0
   11.5845    7.7962   -5.0069 C   0  0  0  0  0  0  0  0  0  0  0  0
   11.6930    6.7990   -4.0256 C   0  0  0  0  0  0  0  0  0  0  0  0
   12.1675    7.1362   -2.7474 C   0  0  0  0  0  0  0  0  0  0  0  0
   12.4354    6.1723   -1.8469 O   0  0  0  0  0  0  0  0  0  0  0  0
   12.4272    8.4645   -2.3904 C   0  0  0  0  0  0  0  0  0  0  0  0
   12.2657    9.4674   -3.3502 C   0  0  0  0  0  0  0  0  0  0  0  0
   11.8877    9.1402   -4.6648 C   0  0  0  0  0  0  0  0  0  0  0  0
   11.8673   10.1492   -5.5889 O   0  0  0  0  0  0  0  0  0  0  0  0
   11.1254    9.8644   -6.7526 C   0  0  0  0  0  0  0  0  0  0  0  0
   11.4938    8.5455   -7.4218 C   0  0  2  0  0  0  0  0  0  0  0  0
   11.9783    7.7710  -13.1914 H   0  0  0  0  0  0  0  0  0  0  0  0
   12.8779    6.6667  -12.1746 H   0  0  0  0  0  0  0  0  0  0  0  0
   13.1031    8.4025  -11.9969 H   0  0  0  0  0  0  0  0  0  0  0  0
   10.6887    8.6500  -11.3060 H   0  0  0  0  0  0  0  0  0  0  0  0
   10.4763    6.9301  -11.3607 H   0  0  0  0  0  0  0  0  0  0  0  0
   11.6857    6.5724   -9.3857 H   0  0  0  0  0  0  0  0  0  0  0  0
   12.7075    7.9638   -9.6445 H   0  0  0  0  0  0  0  0  0  0  0  0
    8.8842    8.7850   -8.2261 H   0  0  0  0  0  0  0  0  0  0  0  0
    9.0493    7.7757   -9.6237 H   0  0  0  0  0  0  0  0  0  0  0  0
    8.2485    6.4760   -7.6543 H   0  0  0  0  0  0  0  0  0  0  0  0
    9.8197    5.8684   -8.1422 H   0  0  0  0  0  0  0  0  0  0  0  0
   11.7546    6.5172   -6.7115 H   0  0  0  0  0  0  0  0  0  0  0  0
   11.4825    5.7723   -4.2829 H   0  0  0  0  0  0  0  0  0  0  0  0
   12.0627    5.3268   -2.0662 H   0  0  0  0  0  0  0  0  0  0  0  0
   12.7696    8.7136   -1.3969 H   0  0  0  0  0  0  0  0  0  0  0  0
   12.4712   10.4852   -3.0564 H   0  0  0  0  0  0  0  0  0  0  0  0
   10.0841    9.8702   -6.4855 H   0  0  0  0  0  0  0  0  0  0  0  0
   11.2939   10.6628   -7.4466 H   0  0  0  0  0  0  0  0  0  0  0  0
   12.5767    8.5955   -7.5508 H   0  0  0  0  0  0  0  0  0  0  0  0
  2  1  1  0
  3  2  1  0
  4  3  1  0
  5  4  1  0
  6  5  1  0
  7  6  1  0
  8  7  1  0
  9  8  1  0
 10  9  1  0
 11 10  2  0
 12 11  1  0
 13 11  1  0
 14 13  2  0
 15  9  2  0
 15 14  1  0
 16 15  1  0
 17 16  1  0
 18  4  1  0
 18  8  1  0
 18 17  1  0
 19  1  1  0
 20  1  1  0
 21  1  1  0
 22  2  1  0
 23  2  1  0
 24  3  1  0
 25  3  1  0
 26  5  1  0
 27  5  1  0
 28  6  1  0
 29  6  1  0
  8 30  1  6
 31 10  1  0
 32 12  1  0
 33 13  1  0
 34 14  1  0
 35 17  1  0
 36 17  1  0
 18 37  1  6
M  END
>  <b_m_subgroup_collapsed>  (1121) 
0

>  <r_i_docking_score>  (1121) 
-6.6966440308780202

>  <s_m_subgroup_title>  (1121) 
glide-dock_SP_D22_pv

>  <s_m_subgroupid>  (1121) 
glide-dock_SP_D22_pv

>  <Molecule ChEMBL ID>  (1121) 
CHEMBL317493

>  <Standard Type>  (1121) 
Ki

>  <Standard Value>  (1121) 
10000.0

>  <label>  (1121) 
0

$$$$
CHEMBL215669
     RDKit          3D

 57 61  0  0  1  0  0  0  0  0999 V2000
   10.4860   10.1726   -4.7531 F   0  0  0  0  0  0  0  0  0  0  0  0
   11.1425    9.6182   -5.7987 C   0  0  0  0  0  0  0  0  0  0  0  0
   11.8464    8.5718   -5.3039 F   0  0  0  0  0  0  0  0  0  0  0  0
   11.9975   10.5698   -6.2468 F   0  0  0  0  0  0  0  0  0  0  0  0
   10.2551    9.2223   -6.7573 O   0  0  0  0  0  0  0  0  0  0  0  0
   10.6900    8.7808   -7.9925 C   0  0  0  0  0  0  0  0  0  0  0  0
   12.0543    8.5500   -8.3022 C   0  0  0  0  0  0  0  0  0  0  0  0
   12.4401    8.1735   -9.5999 C   0  0  0  0  0  0  0  0  0  0  0  0
   11.4752    8.0467  -10.6115 C   0  0  0  0  0  0  0  0  0  0  0  0
   10.1041    8.2077  -10.3173 C   0  0  0  0  0  0  0  0  0  0  0  0
    9.0669    7.9931  -11.4230 C   0  0  0  0  0  0  0  0  0  0  0  0
    8.6756    6.5634  -11.6048 N   0  0  0  0  0  0  0  0  0  0  0  0
    9.8542    5.6932  -11.8511 C   0  0  0  0  0  0  0  0  0  0  0  0
    9.5002    4.2436  -12.1816 C   0  0  0  0  0  0  0  0  0  0  0  0
    8.5693    4.1872  -13.2879 N   0  0  0  0  0  0  0  0  0  0  0  0
    8.7879    3.3318  -14.3695 C   0  0  0  0  0  0  0  0  0  0  0  0
    7.9858    2.3512  -14.6475 N   0  0  0  0  0  0  0  0  0  0  0  0
    8.1874    1.4080  -15.6760 C   0  0  0  0  0  0  0  0  0  0  0  0
    7.0294    0.9471  -16.3282 C   0  0  0  0  0  0  0  0  0  0  0  0
    7.0816   -0.0401  -17.3293 C   0  0  0  0  0  0  0  0  0  0  0  0
    5.6309   -0.5396  -18.1164 Cl  0  0  0  0  0  0  0  0  0  0  0  0
    8.3141   -0.6168  -17.6808 C   0  0  0  0  0  0  0  0  0  0  0  0
    9.4867   -0.1817  -17.0353 C   0  0  0  0  0  0  0  0  0  0  0  0
    9.4324    0.8314  -16.0510 C   0  0  0  0  0  0  0  0  0  0  0  0
   10.6342    1.2934  -15.5300 N   0  0  0  0  0  0  0  0  0  0  0  0
   10.9368    2.6480  -15.6154 C   0  0  0  0  0  0  0  0  0  0  0  0
   12.1295    3.0175  -16.2675 C   0  0  0  0  0  0  0  0  0  0  0  0
   12.4608    4.3730  -16.4480 C   0  0  0  0  0  0  0  0  0  0  0  0
   11.5769    5.3685  -16.0017 C   0  0  0  0  0  0  0  0  0  0  0  0
   10.3796    4.9975  -15.3617 C   0  0  0  0  0  0  0  0  0  0  0  0
   10.0475    3.6413  -15.1387 C   0  0  0  0  0  0  0  0  0  0  0  0
    7.3305    4.9021  -13.0000 C   0  0  0  0  0  0  0  0  0  0  0  0
    7.6104    6.3863  -12.6347 C   0  0  0  0  0  0  0  0  0  0  0  0
    9.7198    8.5724   -9.0048 C   0  0  0  0  0  0  0  0  0  0  0  0
   12.8366    8.6826   -7.5707 H   0  0  0  0  0  0  0  0  0  0  0  0
   13.4882    8.0482   -9.8303 H   0  0  0  0  0  0  0  0  0  0  0  0
   11.7980    7.7925  -11.6104 H   0  0  0  0  0  0  0  0  0  0  0  0
    9.4784    8.3792  -12.3563 H   0  0  0  0  0  0  0  0  0  0  0  0
    8.1846    8.6029  -11.2226 H   0  0  0  0  0  0  0  0  0  0  0  0
   10.4850    5.6791  -10.9637 H   0  0  0  0  0  0  0  0  0  0  0  0
   10.4474    6.1089  -12.6656 H   0  0  0  0  0  0  0  0  0  0  0  0
    9.0455    3.7728  -11.3144 H   0  0  0  0  0  0  0  0  0  0  0  0
   10.4078    3.6791  -12.4034 H   0  0  0  0  0  0  0  0  0  0  0  0
    6.0873    1.3722  -16.0479 H   0  0  0  0  0  0  0  0  0  0  0  0
    8.3590   -1.3815  -18.4430 H   0  0  0  0  0  0  0  0  0  0  0  0
   10.4337   -0.6126  -17.3215 H   0  0  0  0  0  0  0  0  0  0  0  0
   11.4239    0.7097  -15.7584 H   0  0  0  0  0  0  0  0  0  0  0  0
   12.8052    2.2598  -16.6390 H   0  0  0  0  0  0  0  0  0  0  0  0
   13.3814    4.6441  -16.9402 H   0  0  0  0  0  0  0  0  0  0  0  0
   11.8104    6.4110  -16.1560 H   0  0  0  0  0  0  0  0  0  0  0  0
    9.7081    5.7718  -15.0312 H   0  0  0  0  0  0  0  0  0  0  0  0
    6.6460    4.8341  -13.8465 H   0  0  0  0  0  0  0  0  0  0  0  0
    6.8330    4.4045  -12.1652 H   0  0  0  0  0  0  0  0  0  0  0  0
    6.6930    6.8579  -12.2855 H   0  0  0  0  0  0  0  0  0  0  0  0
    7.9099    6.9342  -13.5246 H   0  0  0  0  0  0  0  0  0  0  0  0
    8.6739    8.7172   -8.7739 H   0  0  0  0  0  0  0  0  0  0  0  0
    8.2549    6.2767  -10.7289 H   0  0  0  0  0  0  0  0  0  0  0  0
  2  1  1  0
  3  2  1  0
  4  2  1  0
  5  2  1  0
  6  5  1  0
  7  6  1  0
  8  7  2  0
  9  8  1  0
 10  9  2  0
 11 10  1  0
 12 11  1  0
 13 12  1  0
 14 13  1  0
 15 14  1  0
 16 15  1  0
 17 16  2  0
 18 17  1  0
 19 18  1  0
 20 19  2  0
 21 20  1  0
 22 20  1  0
 23 22  2  0
 24 18  2  0
 24 23  1  0
 25 24  1  0
 26 25  1  0
 27 26  2  0
 28 27  1  0
 29 28  2  0
 30 29  1  0
 31 16  1  0
 31 26  1  0
 31 30  2  0
 32 15  1  0
 33 12  1  0
 33 32  1  0
 34  6  2  0
 34 10  1  0
 35  7  1  0
 36  8  1  0
 37  9  1  0
 38 11  1  0
 39 11  1  0
 40 13  1  0
 41 13  1  0
 42 14  1  0
 43 14  1  0
 44 19  1  0
 45 22  1  0
 46 23  1  0
 47 25  1  0
 48 27  1  0
 49 28  1  0
 50 29  1  0
 51 30  1  0
 52 32  1  0
 53 32  1  0
 54 33  1  0
 55 33  1  0
 56 34  1  0
 57 12  1  0
M  CHG  1  12   1
M  END
>  <b_m_subgroup_collapsed>  (1122) 
0

>  <r_i_docking_score>  (1122) 
-6.69370492004402

>  <s_m_subgroup_title>  (1122) 
glide-dock_SP_D22_pv

>  <s_m_subgroupid>  (1122) 
glide-dock_SP_D22_pv

>  <Molecule ChEMBL ID>  (1122) 
CHEMBL215669

>  <Standard Type>  (1122) 
Ki

>  <Standard Value>  (1122) 
3.4

>  <label>  (1122) 
1

$$$$
CHEMBL5073754
     RDKit          3D

 80 83  0  0  1  0  0  0  0  0999 V2000
   11.2954    0.1570  -19.1924 C   0  0  0  0  0  0  0  0  0  0  0  0
   12.4917    0.9893  -19.0176 N   0  0  0  0  0  0  0  0  0  0  0  0
   13.7359    0.2705  -19.3125 C   0  0  0  0  0  0  0  0  0  0  0  0
   12.5240    2.3110  -18.6830 C   0  0  0  0  0  0  0  0  0  0  0  0
   13.6023    2.9093  -18.6742 O   0  0  0  0  0  0  0  0  0  0  0  0
   11.2223    3.1195  -18.3024 C   0  0  0  0  0  0  0  0  0  0  0  0
   11.6405    4.5090  -17.6717 C   0  0  0  0  0  0  0  0  0  0  0  0
   12.4595    4.5507  -16.3614 C   0  0  0  0  0  0  0  0  0  0  0  0
   11.5893    4.4892  -15.1692 N   0  0  0  0  0  0  0  0  0  0  0  0
   11.3931    5.7661  -14.4542 C   0  0  0  0  0  0  0  0  0  0  0  0
   10.5266    5.5330  -13.2078 C   0  0  0  0  0  0  0  0  0  0  0  0
   10.5680    6.7054  -12.2229 C   0  0  0  0  0  0  0  0  0  0  0  0
    9.8828    6.3536  -10.8917 C   0  0  0  0  0  0  0  0  0  0  0  0
    9.9254    7.4606   -9.9445 N   0  0  0  0  0  0  0  0  0  0  0  0
   11.2840    7.7275   -9.4577 C   0  0  0  0  0  0  0  0  0  0  0  0
   11.2646    8.9423   -8.5213 C   0  0  0  0  0  0  0  0  0  0  0  0
   10.3599    8.7146   -7.4058 N   0  0  0  0  0  0  0  0  0  0  0  0
   10.9291    8.2289   -6.2189 C   0  0  0  0  0  0  0  0  0  0  0  0
   11.1207    6.8558   -5.9863 C   0  0  0  0  0  0  0  0  0  0  0  0
   11.6856    6.4234   -4.7727 C   0  0  0  0  0  0  0  0  0  0  0  0
   11.9996    7.3245   -3.7516 C   0  0  0  0  0  0  0  0  0  0  0  0
   11.8000    8.6895   -3.9757 C   0  0  0  0  0  0  0  0  0  0  0  0
   12.0861    9.7721   -2.6791 Cl  0  0  0  0  0  0  0  0  0  0  0  0
   11.3365    9.1408   -5.2270 C   0  0  0  0  0  0  0  0  0  0  0  0
   11.2860   10.8139   -5.5748 Cl  0  0  0  0  0  0  0  0  0  0  0  0
    9.0269    8.2544   -7.7823 C   0  0  0  0  0  0  0  0  0  0  0  0
    9.0957    7.0914   -8.7911 C   0  0  0  0  0  0  0  0  0  0  0  0
   10.4204    3.4886  -19.5981 C   0  0  0  0  0  0  0  0  0  0  0  0
   10.7826    3.0458  -20.9035 C   0  0  0  0  0  0  0  0  0  0  0  0
   10.0519    3.4319  -22.0439 C   0  0  0  0  0  0  0  0  0  0  0  0
    8.9465    4.2884  -21.9209 C   0  0  0  0  0  0  0  0  0  0  0  0
    8.5769    4.7604  -20.6507 C   0  0  0  0  0  0  0  0  0  0  0  0
    9.3067    4.3694  -19.5125 C   0  0  0  0  0  0  0  0  0  0  0  0
   10.4028    2.2912  -17.2590 C   0  0  0  0  0  0  0  0  0  0  0  0
    9.0050    2.0681  -17.3829 C   0  0  0  0  0  0  0  0  0  0  0  0
    8.2995    1.2920  -16.4425 C   0  0  0  0  0  0  0  0  0  0  0  0
    8.9692    0.7129  -15.3525 C   0  0  0  0  0  0  0  0  0  0  0  0
   10.3533    0.9081  -15.2094 C   0  0  0  0  0  0  0  0  0  0  0  0
   11.0562    1.6782  -16.1548 C   0  0  0  0  0  0  0  0  0  0  0  0
   10.4188    0.7170  -19.5114 H   0  0  0  0  0  0  0  0  0  0  0  0
   11.4551   -0.6089  -19.9537 H   0  0  0  0  0  0  0  0  0  0  0  0
   11.0520   -0.3557  -18.2614 H   0  0  0  0  0  0  0  0  0  0  0  0
   14.5458    0.5733  -18.6482 H   0  0  0  0  0  0  0  0  0  0  0  0
   13.6211   -0.8080  -19.1960 H   0  0  0  0  0  0  0  0  0  0  0  0
   14.0477    0.4654  -20.3379 H   0  0  0  0  0  0  0  0  0  0  0  0
   12.2197    5.0482  -18.4243 H   0  0  0  0  0  0  0  0  0  0  0  0
   10.7734    5.1433  -17.5083 H   0  0  0  0  0  0  0  0  0  0  0  0
   13.1922    3.7472  -16.3082 H   0  0  0  0  0  0  0  0  0  0  0  0
   13.0456    5.4704  -16.3353 H   0  0  0  0  0  0  0  0  0  0  0  0
   10.6907    4.1168  -15.4429 H   0  0  0  0  0  0  0  0  0  0  0  0
   12.3719    6.1507  -14.1581 H   0  0  0  0  0  0  0  0  0  0  0  0
   10.9366    6.5146  -15.1085 H   0  0  0  0  0  0  0  0  0  0  0  0
    9.4958    5.3267  -13.4987 H   0  0  0  0  0  0  0  0  0  0  0  0
   10.8807    4.6418  -12.6867 H   0  0  0  0  0  0  0  0  0  0  0  0
   11.6119    6.9706  -12.0647 H   0  0  0  0  0  0  0  0  0  0  0  0
   10.0904    7.5865  -12.6468 H   0  0  0  0  0  0  0  0  0  0  0  0
    8.8381    6.1128  -11.0985 H   0  0  0  0  0  0  0  0  0  0  0  0
   10.3218    5.4644  -10.4399 H   0  0  0  0  0  0  0  0  0  0  0  0
   11.6785    6.8556   -8.9408 H   0  0  0  0  0  0  0  0  0  0  0  0
   11.9633    7.9557  -10.2754 H   0  0  0  0  0  0  0  0  0  0  0  0
   12.2708    9.1525   -8.1556 H   0  0  0  0  0  0  0  0  0  0  0  0
   10.9376    9.8225   -9.0733 H   0  0  0  0  0  0  0  0  0  0  0  0
   10.8660    6.1235   -6.7334 H   0  0  0  0  0  0  0  0  0  0  0  0
   11.8637    5.3792   -4.6043 H   0  0  0  0  0  0  0  0  0  0  0  0
   12.3846    6.9696   -2.8056 H   0  0  0  0  0  0  0  0  0  0  0  0
    8.4610    7.9569   -6.8987 H   0  0  0  0  0  0  0  0  0  0  0  0
    8.4874    9.0903   -8.2277 H   0  0  0  0  0  0  0  0  0  0  0  0
    8.0863    6.8423   -9.1162 H   0  0  0  0  0  0  0  0  0  0  0  0
    9.4820    6.1881   -8.3203 H   0  0  0  0  0  0  0  0  0  0  0  0
   11.6266    2.3991  -21.0846 H   0  0  0  0  0  0  0  0  0  0  0  0
   10.3467    3.0721  -23.0194 H   0  0  0  0  0  0  0  0  0  0  0  0
    8.3854    4.5835  -22.7956 H   0  0  0  0  0  0  0  0  0  0  0  0
    7.7248    5.4165  -20.5463 H   0  0  0  0  0  0  0  0  0  0  0  0
    8.9711    4.7500  -18.5576 H   0  0  0  0  0  0  0  0  0  0  0  0
    8.4364    2.4497  -18.2130 H   0  0  0  0  0  0  0  0  0  0  0  0
    7.2382    1.1269  -16.5662 H   0  0  0  0  0  0  0  0  0  0  0  0
    8.4301    0.1067  -14.6381 H   0  0  0  0  0  0  0  0  0  0  0  0
   10.8814    0.4503  -14.3855 H   0  0  0  0  0  0  0  0  0  0  0  0
   12.1250    1.7704  -16.0250 H   0  0  0  0  0  0  0  0  0  0  0  0
   12.0062    3.8398  -14.5195 H   0  0  0  0  0  0  0  0  0  0  0  0
  2  1  1  0
  3  2  1  0
  4  2  1  0
  5  4  2  0
  6  4  1  0
  7  6  1  0
  8  7  1  0
  9  8  1  0
 10  9  1  0
 11 10  1  0
 12 11  1  0
 13 12  1  0
 14 13  1  0
 15 14  1  0
 16 15  1  0
 17 16  1  0
 18 17  1  0
 19 18  2  0
 20 19  1  0
 21 20  2  0
 22 21  1  0
 23 22  1  0
 24 18  1  0
 24 22  2  0
 25 24  1  0
 26 17  1  0
 27 14  1  0
 27 26  1  0
 28  6  1  0
 29 28  2  0
 30 29  1  0
 31 30  2  0
 32 31  1  0
 33 28  1  0
 33 32  2  0
 34  6  1  0
 35 34  2  0
 36 35  1  0
 37 36  2  0
 38 37  1  0
 39 34  1  0
 39 38  2  0
 40  1  1  0
 41  1  1  0
 42  1  1  0
 43  3  1  0
 44  3  1  0
 45  3  1  0
 46  7  1  0
 47  7  1  0
 48  8  1  0
 49  8  1  0
 50  9  1  0
 51 10  1  0
 52 10  1  0
 53 11  1  0
 54 11  1  0
 55 12  1  0
 56 12  1  0
 57 13  1  0
 58 13  1  0
 59 15  1  0
 60 15  1  0
 61 16  1  0
 62 16  1  0
 63 19  1  0
 64 20  1  0
 65 21  1  0
 66 26  1  0
 67 26  1  0
 68 27  1  0
 69 27  1  0
 70 29  1  0
 71 30  1  0
 72 31  1  0
 73 32  1  0
 74 33  1  0
 75 35  1  0
 76 36  1  0
 77 37  1  0
 78 38  1  0
 79 39  1  0
 80  9  1  0
M  CHG  1   9   1
M  END
>  <b_m_subgroup_collapsed>  (1123) 
0

>  <r_i_docking_score>  (1123) 
-6.6886118060337996

>  <s_m_subgroup_title>  (1123) 
glide-dock_SP_D22_pv

>  <s_m_subgroupid>  (1123) 
glide-dock_SP_D22_pv

>  <Molecule ChEMBL ID>  (1123) 
CHEMBL5073754

>  <Standard Type>  (1123) 
Ki

>  <Standard Value>  (1123) 
23.1

>  <label>  (1123) 
1

$$$$
CHEMBL5277859
     RDKit          3D

 45 47  0  0  1  0  0  0  0  0999 V2000
   12.1077    8.5680   -2.5002 C   0  0  0  0  0  0  0  0  0  0  0  0
   11.6994    9.5306   -3.6192 C   0  0  0  0  0  0  0  0  0  0  0  0
   11.2862    8.7856   -4.7523 O   0  0  0  0  0  0  0  0  0  0  0  0
   11.5154    9.2457   -5.9990 C   0  0  0  0  0  0  0  0  0  0  0  0
   11.9317   10.3823   -6.2427 O   0  0  0  0  0  0  0  0  0  0  0  0
   11.2805    8.2461   -6.9491 N   0  0  0  0  0  0  0  0  0  0  0  0
   11.7791    8.3702   -8.3180 C   0  0  0  0  0  0  0  0  0  0  0  0
   10.6810    8.0126   -9.3280 C   0  0  0  0  0  0  0  0  0  0  0  0
   10.1767    6.6557   -9.0873 N   0  0  0  0  0  0  0  0  0  0  0  0
    9.1341    6.3212  -10.0584 C   0  0  0  0  0  0  0  0  0  0  0  0
    9.6369    5.8540  -11.4042 C   0  0  0  0  0  0  0  0  0  0  0  0
   10.4516    6.5167  -12.3691 C   0  0  0  0  0  0  0  0  0  0  0  0
   10.7058    5.7682  -13.4305 N   0  0  0  0  0  0  0  0  0  0  0  0
   10.0332    4.6151  -13.2151 N   0  0  0  0  0  0  0  0  0  0  0  0
   10.0828    3.5503  -14.1493 C   0  0  0  0  0  0  0  0  0  0  0  0
   11.2192    3.3684  -14.9709 C   0  0  0  0  0  0  0  0  0  0  0  0
   11.2863    2.2720  -15.8542 C   0  0  0  0  0  0  0  0  0  0  0  0
   10.2236    1.3507  -15.9236 C   0  0  0  0  0  0  0  0  0  0  0  0
   10.3238   -0.0097  -16.9810 Cl  0  0  0  0  0  0  0  0  0  0  0  0
    9.0812    1.5377  -15.1240 C   0  0  0  0  0  0  0  0  0  0  0  0
    9.0088    2.6364  -14.2462 C   0  0  0  0  0  0  0  0  0  0  0  0
    9.3751    4.6523  -12.0008 C   0  0  0  0  0  0  0  0  0  0  0  0
    9.5959    6.6279   -7.7414 C   0  0  0  0  0  0  0  0  0  0  0  0
   10.6687    6.9367   -6.6756 C   0  0  0  0  0  0  0  0  0  0  0  0
   12.4182    9.1207   -1.6128 H   0  0  0  0  0  0  0  0  0  0  0  0
   11.2861    7.9147   -2.2154 H   0  0  0  0  0  0  0  0  0  0  0  0
   12.9408    7.9383   -2.8110 H   0  0  0  0  0  0  0  0  0  0  0  0
   12.5534   10.1680   -3.8510 H   0  0  0  0  0  0  0  0  0  0  0  0
   10.8860   10.1786   -3.2925 H   0  0  0  0  0  0  0  0  0  0  0  0
   12.6379    7.7120   -8.4430 H   0  0  0  0  0  0  0  0  0  0  0  0
   12.1338    9.3721   -8.5323 H   0  0  0  0  0  0  0  0  0  0  0  0
   11.1024    8.0995  -10.3237 H   0  0  0  0  0  0  0  0  0  0  0  0
    9.8665    8.7388   -9.2639 H   0  0  0  0  0  0  0  0  0  0  0  0
    8.4891    7.1875  -10.1748 H   0  0  0  0  0  0  0  0  0  0  0  0
    8.4969    5.5423   -9.6357 H   0  0  0  0  0  0  0  0  0  0  0  0
   10.8786    7.5083  -12.3416 H   0  0  0  0  0  0  0  0  0  0  0  0
   12.0527    4.0520  -14.9114 H   0  0  0  0  0  0  0  0  0  0  0  0
   12.1664    2.1275  -16.4636 H   0  0  0  0  0  0  0  0  0  0  0  0
    8.2621    0.8353  -15.1773 H   0  0  0  0  0  0  0  0  0  0  0  0
    8.1268    2.7652  -13.6370 H   0  0  0  0  0  0  0  0  0  0  0  0
    8.7916    3.8164  -11.6480 H   0  0  0  0  0  0  0  0  0  0  0  0
    8.7659    7.3364   -7.6674 H   0  0  0  0  0  0  0  0  0  0  0  0
    9.1795    5.6375   -7.5447 H   0  0  0  0  0  0  0  0  0  0  0  0
   11.4442    6.1710   -6.6862 H   0  0  0  0  0  0  0  0  0  0  0  0
   10.1882    6.8740   -5.6992 H   0  0  0  0  0  0  0  0  0  0  0  0
  2  1  1  0
  3  2  1  0
  4  3  1  0
  5  4  2  0
  6  4  1  0
  7  6  1  0
  8  7  1  0
  9  8  1  0
 10  9  1  0
 11 10  1  0
 12 11  1  0
 13 12  2  0
 14 13  1  0
 15 14  1  0
 16 15  1  0
 17 16  2  0
 18 17  1  0
 19 18  1  0
 20 18  2  0
 21 15  2  0
 21 20  1  0
 22 11  2  0
 22 14  1  0
 23  9  1  0
 24  6  1  0
 24 23  1  0
 25  1  1  0
 26  1  1  0
 27  1  1  0
 28  2  1  0
 29  2  1  0
 30  7  1  0
 31  7  1  0
 32  8  1  0
 33  8  1  0
 34 10  1  0
 35 10  1  0
 36 12  1  0
 37 16  1  0
 38 17  1  0
 39 20  1  0
 40 21  1  0
 41 22  1  0
 42 23  1  0
 43 23  1  0
 44 24  1  0
 45 24  1  0
M  END
>  <b_m_subgroup_collapsed>  (1124) 
0

>  <r_i_docking_score>  (1124) 
-6.6881073136595397

>  <s_m_subgroup_title>  (1124) 
glide-dock_SP_D22_pv

>  <s_m_subgroupid>  (1124) 
glide-dock_SP_D22_pv

>  <Molecule ChEMBL ID>  (1124) 
CHEMBL5277859

>  <Standard Type>  (1124) 
Ki

>  <Standard Value>  (1124) 
10200.0

>  <label>  (1124) 
0

$$$$
CHEMBL596884
     RDKit          3D

 44 47  0  0  1  0  0  0  0  0999 V2000
   11.8103   10.4726   -6.0770 C   0  0  0  0  0  0  0  0  0  0  0  0
   11.2326    9.7276   -7.0291 C   0  0  0  0  0  0  0  0  0  0  0  0
   11.9816    8.7967   -7.9678 C   0  0  0  0  0  0  0  0  0  0  0  0
   11.1130    8.0370   -8.9621 C   0  0  0  0  0  0  0  0  0  0  0  0
    9.8919    7.5118   -8.5029 C   0  0  0  0  0  0  0  0  0  0  0  0
    9.0936    6.7549   -9.3583 C   0  0  0  0  0  0  0  0  0  0  0  0
    9.4978    6.5262  -10.6821 C   0  0  0  0  0  0  0  0  0  0  0  0
   10.7229    7.0205  -11.1933 C   0  0  0  0  0  0  0  0  0  0  0  0
   11.5401    7.7719  -10.2913 C   0  0  0  0  0  0  0  0  0  0  0  0
   12.7912    8.1725  -10.6630 O   0  0  0  0  0  0  0  0  0  0  0  0
   11.1037    6.6306  -12.5941 C   0  0  0  0  0  0  0  0  0  0  0  0
   12.0861    7.3006  -13.3731 C   0  0  0  0  0  0  0  0  0  0  0  0
   12.4726    6.8856  -14.6596 C   0  0  0  0  0  0  0  0  0  0  0  0
   11.8847    5.7557  -15.2417 C   0  0  0  0  0  0  0  0  0  0  0  0
   10.8990    5.0439  -14.5413 C   0  0  0  0  0  0  0  0  0  0  0  0
   10.5222    5.5049  -13.2471 C   0  0  0  0  0  0  0  0  0  0  0  0
    9.4725    4.7394  -12.4181 C   0  0  1  0  0  0  0  0  0  0  0  0
    8.6167    5.6659  -11.5441 C   0  0  0  0  0  0  0  0  0  0  0  0
    8.6458    3.7717  -13.1731 N   0  0  1  0  0  0  0  0  0  0  0  0
    7.4532    4.3305  -13.8484 C   0  0  0  0  0  0  0  0  0  0  0  0
    9.4944    2.9476  -14.0504 C   0  0  0  0  0  0  0  0  0  0  0  0
   10.1672    3.8291  -15.1003 C   0  0  0  0  0  0  0  0  0  0  0  0
   12.8772   10.4518   -5.9206 H   0  0  0  0  0  0  0  0  0  0  0  0
   11.2228   11.1132   -5.4366 H   0  0  0  0  0  0  0  0  0  0  0  0
   10.1598    9.7774   -7.1416 H   0  0  0  0  0  0  0  0  0  0  0  0
   12.7598    9.3682   -8.4656 H   0  0  0  0  0  0  0  0  0  0  0  0
   12.4828    8.0410   -7.3728 H   0  0  0  0  0  0  0  0  0  0  0  0
    9.5592    7.6610   -7.4864 H   0  0  0  0  0  0  0  0  0  0  0  0
    8.1542    6.3609   -8.9936 H   0  0  0  0  0  0  0  0  0  0  0  0
   13.1274    8.9232  -10.1885 H   0  0  0  0  0  0  0  0  0  0  0  0
   12.5891    8.1722  -12.9933 H   0  0  0  0  0  0  0  0  0  0  0  0
   13.2307    7.4344  -15.1984 H   0  0  0  0  0  0  0  0  0  0  0  0
   12.1842    5.4417  -16.2305 H   0  0  0  0  0  0  0  0  0  0  0  0
   10.0626    4.1255  -11.7335 H   0  0  0  0  0  0  0  0  0  0  0  0
    7.9324    5.0850  -10.9215 H   0  0  0  0  0  0  0  0  0  0  0  0
    8.0067    6.3417  -12.1459 H   0  0  0  0  0  0  0  0  0  0  0  0
    7.7374    5.1681  -14.4840 H   0  0  0  0  0  0  0  0  0  0  0  0
    6.7121    4.6815  -13.1305 H   0  0  0  0  0  0  0  0  0  0  0  0
    6.9646    3.5747  -14.4644 H   0  0  0  0  0  0  0  0  0  0  0  0
   10.2530    2.4458  -13.4468 H   0  0  0  0  0  0  0  0  0  0  0  0
    8.9076    2.1593  -14.5234 H   0  0  0  0  0  0  0  0  0  0  0  0
    9.4356    4.1793  -15.8290 H   0  0  0  0  0  0  0  0  0  0  0  0
   10.8816    3.2280  -15.6646 H   0  0  0  0  0  0  0  0  0  0  0  0
    8.2793    3.1356  -12.4779 H   0  0  0  0  0  0  0  0  0  0  0  0
  2  1  2  0
  3  2  1  0
  4  3  1  0
  5  4  2  0
  6  5  1  0
  7  6  2  0
  8  7  1  0
  9  4  1  0
  9  8  2  0
 10  9  1  0
 11  8  1  0
 12 11  1  0
 13 12  2  0
 14 13  1  0
 15 14  2  0
 16 11  2  0
 16 15  1  0
 17 16  1  0
 18  7  1  0
 18 17  1  0
 19 17  1  0
 20 19  1  0
 21 19  1  0
 22 15  1  0
 22 21  1  0
 23  1  1  0
 24  1  1  0
 25  2  1  0
 26  3  1  0
 27  3  1  0
 28  5  1  0
 29  6  1  0
 30 10  1  0
 31 12  1  0
 32 13  1  0
 33 14  1  0
 17 34  1  1
 35 18  1  0
 36 18  1  0
 37 20  1  0
 38 20  1  0
 39 20  1  0
 40 21  1  0
 41 21  1  0
 42 22  1  0
 43 22  1  0
 19 44  1  1
M  CHG  1  19   1
M  END
>  <b_m_subgroup_collapsed>  (1125) 
0

>  <r_i_docking_score>  (1125) 
-6.6832125817588501

>  <s_m_subgroup_title>  (1125) 
glide-dock_SP_D22_pv

>  <s_m_subgroupid>  (1125) 
glide-dock_SP_D22_pv

>  <Molecule ChEMBL ID>  (1125) 
CHEMBL596884

>  <Standard Type>  (1125) 
Ki

>  <Standard Value>  (1125) 
10000.0

>  <label>  (1125) 
0

$$$$
CHEMBL4092619
     RDKit          3D

 30 32  0  0  1  0  0  0  0  0999 V2000
   10.9466    9.3720   -8.7183 O   0  0  0  0  0  0  0  0  0  0  0  0
   10.6132    8.5152   -7.9031 C   0  0  0  0  0  0  0  0  0  0  0  0
    9.8578    7.4569   -8.2166 N   0  0  0  0  0  0  0  0  0  0  0  0
    9.4818    7.0660   -9.5622 C   0  0  0  0  0  0  0  0  0  0  0  0
    8.6960    5.7770   -9.5873 C   0  0  0  0  0  0  0  0  0  0  0  0
    8.9048    4.7402  -10.6632 C   0  0  0  0  0  0  0  0  0  0  0  0
    9.3632    4.4695   -9.2471 C   0  0  0  0  0  0  0  0  0  0  0  0
   11.0229    8.6032   -6.4888 C   0  0  0  0  0  0  0  0  0  0  0  0
   11.2859    9.6609   -5.6524 C   0  0  0  0  0  0  0  0  0  0  0  0
   11.6929    9.1040   -4.3887 C   0  0  0  0  0  0  0  0  0  0  0  0
   12.0827    9.6285   -3.1340 C   0  0  0  0  0  0  0  0  0  0  0  0
   12.4856    8.7901   -2.0769 C   0  0  0  0  0  0  0  0  0  0  0  0
   12.4853    7.3954   -2.2469 C   0  0  0  0  0  0  0  0  0  0  0  0
   12.0756    6.8408   -3.4658 C   0  0  0  0  0  0  0  0  0  0  0  0
   11.6860    7.6863   -4.5141 C   0  0  0  0  0  0  0  0  0  0  0  0
   11.2537    7.4251   -5.7925 N   0  0  0  0  0  0  0  0  0  0  0  0
    9.5327    6.8648   -7.4668 H   0  0  0  0  0  0  0  0  0  0  0  0
    8.8855    7.8541  -10.0235 H   0  0  0  0  0  0  0  0  0  0  0  0
   10.3828    6.9507  -10.1660 H   0  0  0  0  0  0  0  0  0  0  0  0
    7.6859    5.8836   -9.2058 H   0  0  0  0  0  0  0  0  0  0  0  0
    8.0230    4.2119  -11.0211 H   0  0  0  0  0  0  0  0  0  0  0  0
    9.6718    4.9262  -11.4117 H   0  0  0  0  0  0  0  0  0  0  0  0
   10.4318    4.4829   -9.0473 H   0  0  0  0  0  0  0  0  0  0  0  0
    8.7866    3.7679   -8.6475 H   0  0  0  0  0  0  0  0  0  0  0  0
   11.2087   10.7111   -5.8919 H   0  0  0  0  0  0  0  0  0  0  0  0
   12.0771   10.6923   -2.9729 H   0  0  0  0  0  0  0  0  0  0  0  0
   12.7919    9.2247   -1.1362 H   0  0  0  0  0  0  0  0  0  0  0  0
   12.8016    6.7442   -1.4471 H   0  0  0  0  0  0  0  0  0  0  0  0
   12.0651    5.7724   -3.5981 H   0  0  0  0  0  0  0  0  0  0  0  0
   11.1570    6.5102   -6.2080 H   0  0  0  0  0  0  0  0  0  0  0  0
  2  1  2  0
  3  2  1  0
  4  3  1  0
  5  4  1  0
  6  5  1  0
  7  5  1  0
  7  6  1  0
  8  2  1  0
  9  8  2  0
 10  9  1  0
 11 10  2  0
 12 11  1  0
 13 12  2  0
 14 13  1  0
 15 10  1  0
 15 14  2  0
 16  8  1  0
 16 15  1  0
 17  3  1  0
 18  4  1  0
 19  4  1  0
 20  5  1  0
 21  6  1  0
 22  6  1  0
 23  7  1  0
 24  7  1  0
 25  9  1  0
 26 11  1  0
 27 12  1  0
 28 13  1  0
 29 14  1  0
 30 16  1  0
M  END
>  <b_m_subgroup_collapsed>  (1126) 
0

>  <r_i_docking_score>  (1126) 
-6.6724816957047599

>  <s_m_subgroup_title>  (1126) 
glide-dock_SP_D22_pv

>  <s_m_subgroupid>  (1126) 
glide-dock_SP_D22_pv

>  <Molecule ChEMBL ID>  (1126) 
CHEMBL4092619

>  <Standard Type>  (1126) 
Ki

>  <Standard Value>  (1126) 
100000.0

>  <label>  (1126) 
0

$$$$
CHEMBL434665
     RDKit          3D

 35 37  0  0  1  0  0  0  0  0999 V2000
    9.1967    8.0545   -7.9454 C   0  0  0  0  0  0  0  0  0  0  0  0
    9.6944    6.6018   -7.9599 C   0  0  0  0  0  0  0  0  0  0  0  0
    8.6195    5.5831   -8.3775 C   0  0  0  0  0  0  0  0  0  0  0  0
    8.0860    5.7723   -9.7476 N   0  0  0  0  0  0  0  0  0  0  0  0
    8.9697    5.4422  -10.8856 C   0  0  2  0  0  0  0  0  0  0  0  0
    9.7266    6.6815  -11.4333 C   0  0  0  0  0  0  0  0  0  0  0  0
   10.5920    6.3604  -12.6469 C   0  0  0  0  0  0  0  0  0  0  0  0
   11.7849    6.9570  -13.1133 C   0  0  0  0  0  0  0  0  0  0  0  0
   12.4054    6.4750  -14.3008 C   0  0  0  0  0  0  0  0  0  0  0  0
   11.8606    5.3864  -15.0352 C   0  0  0  0  0  0  0  0  0  0  0  0
   10.6772    4.7859  -14.5637 C   0  0  0  0  0  0  0  0  0  0  0  0
    9.8780    3.7292  -14.9964 N   0  0  0  0  0  0  0  0  0  0  0  0
    8.8444    3.5882  -14.1436 C   0  0  0  0  0  0  0  0  0  0  0  0
    7.9328    2.7715  -14.2469 O   0  0  0  0  0  0  0  0  0  0  0  0
    8.9853    4.5197  -13.1711 N   0  0  0  0  0  0  0  0  0  0  0  0
   10.1203    5.2968  -13.4185 C   0  0  0  0  0  0  0  0  0  0  0  0
    8.1461    4.7576  -12.0028 C   0  0  0  0  0  0  0  0  0  0  0  0
    9.9806    8.7308   -7.6044 H   0  0  0  0  0  0  0  0  0  0  0  0
    8.8860    8.3846   -8.9369 H   0  0  0  0  0  0  0  0  0  0  0  0
    8.3451    8.1723   -7.2735 H   0  0  0  0  0  0  0  0  0  0  0  0
   10.0270    6.3479   -6.9525 H   0  0  0  0  0  0  0  0  0  0  0  0
   10.5813    6.5052   -8.5841 H   0  0  0  0  0  0  0  0  0  0  0  0
    7.7792    5.6538   -7.6854 H   0  0  0  0  0  0  0  0  0  0  0  0
    9.0064    4.5680   -8.2796 H   0  0  0  0  0  0  0  0  0  0  0  0
    7.6502    6.6946   -9.8500 H   0  0  0  0  0  0  0  0  0  0  0  0
    9.7057    4.7133  -10.5411 H   0  0  0  0  0  0  0  0  0  0  0  0
   10.3666    7.1271  -10.6752 H   0  0  0  0  0  0  0  0  0  0  0  0
    9.0120    7.4528  -11.7251 H   0  0  0  0  0  0  0  0  0  0  0  0
   12.2328    7.7723  -12.5668 H   0  0  0  0  0  0  0  0  0  0  0  0
   13.3191    6.9389  -14.6439 H   0  0  0  0  0  0  0  0  0  0  0  0
   12.3468    5.0266  -15.9301 H   0  0  0  0  0  0  0  0  0  0  0  0
    7.3110    5.3916  -12.3058 H   0  0  0  0  0  0  0  0  0  0  0  0
    7.7211    3.8172  -11.6489 H   0  0  0  0  0  0  0  0  0  0  0  0
   10.0571    3.1790  -15.8227 H   0  0  0  0  0  0  0  0  0  0  0  0
    7.3124    5.1207   -9.8107 H   0  0  0  0  0  0  0  0  0  0  0  0
  2  1  1  0
  3  2  1  0
  4  3  1  0
  5  4  1  0
  6  5  1  0
  7  6  1  0
  8  7  1  0
  9  8  2  0
 10  9  1  0
 11 10  2  0
 12 11  1  0
 13 12  1  0
 14 13  2  0
 15 13  1  0
 16  7  2  0
 16 11  1  0
 16 15  1  0
 17  5  1  0
 17 15  1  0
 18  1  1  0
 19  1  1  0
 20  1  1  0
 21  2  1  0
 22  2  1  0
 23  3  1  0
 24  3  1  0
 25  4  1  0
  5 26  1  1
 27  6  1  0
 28  6  1  0
 29  8  1  0
 30  9  1  0
 31 10  1  0
 32 17  1  0
 33 17  1  0
 34 12  1  0
 35  4  1  0
M  CHG  1   4   1
M  END
>  <b_m_subgroup_collapsed>  (1127) 
0

>  <r_i_docking_score>  (1127) 
-6.6649699675956899

>  <s_m_subgroup_title>  (1127) 
glide-dock_SP_D22_pv

>  <s_m_subgroupid>  (1127) 
glide-dock_SP_D22_pv

>  <Molecule ChEMBL ID>  (1127) 
CHEMBL434665

>  <Standard Type>  (1127) 
Ki

>  <Standard Value>  (1127) 
2.5

>  <label>  (1127) 
1

$$$$
CHEMBL4572167
     RDKit          3D

 43 45  0  0  1  0  0  0  0  0999 V2000
    8.7819    3.2033  -14.8200 C   0  0  0  0  0  0  0  0  0  0  0  0
    8.3298    4.5578  -14.2469 C   0  0  0  0  0  0  0  0  0  0  0  0
    8.8499    4.8064  -12.8066 C   0  0  1  0  0  0  0  0  0  0  0  0
   10.0779    5.7226  -12.7532 C   0  0  0  0  0  0  0  0  0  0  0  0
   11.0110    5.7104  -13.8174 C   0  0  0  0  0  0  0  0  0  0  0  0
   12.1368    6.5443  -13.7958 C   0  0  0  0  0  0  0  0  0  0  0  0
   12.3665    7.3723  -12.6885 C   0  0  0  0  0  0  0  0  0  0  0  0
   11.4617    7.3812  -11.6131 C   0  0  0  0  0  0  0  0  0  0  0  0
   10.3093    6.5648  -11.6273 C   0  0  0  0  0  0  0  0  0  0  0  0
    9.4459    6.5553  -10.5104 N   0  0  0  0  0  0  0  0  0  0  0  0
    9.8012    6.9985   -9.2272 C   0  0  0  0  0  0  0  0  0  0  0  0
   10.4126    6.1218   -8.3056 C   0  0  0  0  0  0  0  0  0  0  0  0
   10.7899    6.5723   -7.0268 C   0  0  0  0  0  0  0  0  0  0  0  0
   10.5275    7.8978   -6.6459 C   0  0  0  0  0  0  0  0  0  0  0  0
    9.8980    8.7658   -7.5539 C   0  0  0  0  0  0  0  0  0  0  0  0
    9.5410    8.3274   -8.8426 C   0  0  0  0  0  0  0  0  0  0  0  0
    8.4331    5.4997  -10.4620 C   0  0  0  0  0  0  0  0  0  0  0  0
    7.7499    5.2752  -11.8225 C   0  0  2  0  0  0  0  0  0  0  0  0
    6.6281    4.2186  -11.6859 C   0  0  0  0  0  0  0  0  0  0  0  0
    7.1865    6.5723  -12.2469 N   0  0  0  0  0  0  0  0  0  0  0  0
    8.4860    3.0923  -15.8629 H   0  0  0  0  0  0  0  0  0  0  0  0
    9.8640    3.0823  -14.7769 H   0  0  0  0  0  0  0  0  0  0  0  0
    8.3409    2.3768  -14.2612 H   0  0  0  0  0  0  0  0  0  0  0  0
    7.2432    4.5723  -14.2692 H   0  0  0  0  0  0  0  0  0  0  0  0
    8.6109    5.3725  -14.9144 H   0  0  0  0  0  0  0  0  0  0  0  0
    9.2075    3.8495  -12.4203 H   0  0  0  0  0  0  0  0  0  0  0  0
   10.8794    5.0704  -14.6751 H   0  0  0  0  0  0  0  0  0  0  0  0
   12.8397    6.5323  -14.6162 H   0  0  0  0  0  0  0  0  0  0  0  0
   13.2449    8.0011  -12.6607 H   0  0  0  0  0  0  0  0  0  0  0  0
   11.6726    8.0260  -10.7726 H   0  0  0  0  0  0  0  0  0  0  0  0
   10.6085    5.0973   -8.5846 H   0  0  0  0  0  0  0  0  0  0  0  0
   11.2707    5.8965   -6.3350 H   0  0  0  0  0  0  0  0  0  0  0  0
   10.8012    8.2450   -5.6605 H   0  0  0  0  0  0  0  0  0  0  0  0
    9.6861    9.7723   -7.2556 H   0  0  0  0  0  0  0  0  0  0  0  0
    9.0537    9.0048   -9.5286 H   0  0  0  0  0  0  0  0  0  0  0  0
    8.8941    4.5729  -10.1171 H   0  0  0  0  0  0  0  0  0  0  0  0
    7.6860    5.7700   -9.7140 H   0  0  0  0  0  0  0  0  0  0  0  0
    6.8687    3.4947  -10.9075 H   0  0  0  0  0  0  0  0  0  0  0  0
    5.6709    4.6803  -11.4469 H   0  0  0  0  0  0  0  0  0  0  0  0
    6.4485    3.6312  -12.5829 H   0  0  0  0  0  0  0  0  0  0  0  0
    7.9448    7.1609  -12.5560 H   0  0  0  0  0  0  0  0  0  0  0  0
    6.4847    6.4677  -12.9607 H   0  0  0  0  0  0  0  0  0  0  0  0
    6.7914    7.0287  -11.4043 H   0  0  0  0  0  0  0  0  0  0  0  0
  2  1  1  0
  3  2  1  0
  4  3  1  0
  5  4  2  0
  6  5  1  0
  7  6  2  0
  8  7  1  0
  9  4  1  0
  9  8  2  0
 10  9  1  0
 11 10  1  0
 12 11  2  0
 13 12  1  0
 14 13  2  0
 15 14  1  0
 16 11  1  0
 16 15  2  0
 17 10  1  0
 18  3  1  0
 18 17  1  0
 18 19  1  1
 20 18  1  0
 21  1  1  0
 22  1  1  0
 23  1  1  0
 24  2  1  0
 25  2  1  0
  3 26  1  1
 27  5  1  0
 28  6  1  0
 29  7  1  0
 30  8  1  0
 31 12  1  0
 32 13  1  0
 33 14  1  0
 34 15  1  0
 35 16  1  0
 36 17  1  0
 37 17  1  0
 38 19  1  0
 39 19  1  0
 40 19  1  0
 41 20  1  0
 42 20  1  0
 43 20  1  0
M  CHG  1  20   1
M  END
>  <b_m_subgroup_collapsed>  (1128) 
0

>  <r_i_docking_score>  (1128) 
-6.6638810459843603

>  <s_m_subgroup_title>  (1128) 
glide-dock_SP_D22_pv

>  <s_m_subgroupid>  (1128) 
glide-dock_SP_D22_pv

>  <Molecule ChEMBL ID>  (1128) 
CHEMBL4572167

>  <Standard Type>  (1128) 
Ki

>  <Standard Value>  (1128) 
10000.0

>  <label>  (1128) 
0

$$$$
CHEMBL563635
     RDKit          3D

 43 44  0  0  1  0  0  0  0  0999 V2000
    5.9218    3.9143  -11.8468 C   0  0  0  0  0  0  0  0  0  0  0  0
    6.6868    5.2319  -11.9801 C   0  0  0  0  0  0  0  0  0  0  0  0
    8.1546    5.0375  -12.1450 N   0  0  0  0  0  0  0  0  0  0  0  0
    8.6016    4.9055  -13.5622 C   0  0  0  0  0  0  0  0  0  0  0  0
    8.1470    3.6110  -14.2477 C   0  0  0  0  0  0  0  0  0  0  0  0
    8.9291    6.0880  -11.4360 C   0  0  0  0  0  0  0  0  0  0  0  0
    9.0542    5.7984   -9.9260 C   0  0  0  0  0  0  0  0  0  0  0  0
    9.8251    6.8101   -9.1982 N   0  0  0  0  0  0  0  0  0  0  0  0
   10.6201    7.8369   -9.8525 C   0  0  0  0  0  0  0  0  0  0  0  0
   11.1726    8.6383   -8.6840 C   0  0  0  0  0  0  0  0  0  0  0  0
   10.6664    7.9251   -7.5199 N   0  0  0  0  0  0  0  0  0  0  0  0
   10.9564    8.3470   -6.1949 C   0  0  0  0  0  0  0  0  0  0  0  0
   10.9580    9.7246   -5.9000 C   0  0  0  0  0  0  0  0  0  0  0  0
   11.2861   10.1718   -4.6133 C   0  0  0  0  0  0  0  0  0  0  0  0
   11.6861    9.2600   -3.6209 C   0  0  0  0  0  0  0  0  0  0  0  0
   11.6860    7.8816   -3.9017 C   0  0  0  0  0  0  0  0  0  0  0  0
   12.1087    6.7648   -2.6599 Cl  0  0  0  0  0  0  0  0  0  0  0  0
   11.2897    7.4210   -5.1758 C   0  0  0  0  0  0  0  0  0  0  0  0
    9.8583    6.9090   -7.8617 C   0  0  0  0  0  0  0  0  0  0  0  0
    9.2543    6.1725   -7.0848 O   0  0  0  0  0  0  0  0  0  0  0  0
    4.8860    4.1264  -11.5911 H   0  0  0  0  0  0  0  0  0  0  0  0
    5.9069    3.3143  -12.7515 H   0  0  0  0  0  0  0  0  0  0  0  0
    6.3437    3.3106  -11.0470 H   0  0  0  0  0  0  0  0  0  0  0  0
    6.4909    5.7720  -11.0525 H   0  0  0  0  0  0  0  0  0  0  0  0
    6.2810    5.8470  -12.7835 H   0  0  0  0  0  0  0  0  0  0  0  0
    8.2877    5.7728  -14.1422 H   0  0  0  0  0  0  0  0  0  0  0  0
    9.6918    4.8977  -13.5914 H   0  0  0  0  0  0  0  0  0  0  0  0
    8.6791    3.4766  -15.1910 H   0  0  0  0  0  0  0  0  0  0  0  0
    8.3547    2.7360  -13.6327 H   0  0  0  0  0  0  0  0  0  0  0  0
    7.0870    3.6295  -14.4921 H   0  0  0  0  0  0  0  0  0  0  0  0
    8.4699    7.0627  -11.6120 H   0  0  0  0  0  0  0  0  0  0  0  0
    9.9372    6.1438  -11.8479 H   0  0  0  0  0  0  0  0  0  0  0  0
    9.5278    4.8273   -9.7670 H   0  0  0  0  0  0  0  0  0  0  0  0
    8.0652    5.7354   -9.4707 H   0  0  0  0  0  0  0  0  0  0  0  0
   11.4230    7.3940  -10.4422 H   0  0  0  0  0  0  0  0  0  0  0  0
   10.0049    8.4667  -10.4968 H   0  0  0  0  0  0  0  0  0  0  0  0
   10.8102    9.6652   -8.7224 H   0  0  0  0  0  0  0  0  0  0  0  0
   12.2640    8.6520   -8.6832 H   0  0  0  0  0  0  0  0  0  0  0  0
   10.7000   10.4589   -6.6465 H   0  0  0  0  0  0  0  0  0  0  0  0
   11.2855   11.2277   -4.4096 H   0  0  0  0  0  0  0  0  0  0  0  0
   11.9687    9.6154   -2.6404 H   0  0  0  0  0  0  0  0  0  0  0  0
   11.2909    6.3569   -5.3723 H   0  0  0  0  0  0  0  0  0  0  0  0
    8.3939    4.1704  -11.6849 H   0  0  0  0  0  0  0  0  0  0  0  0
  2  1  1  0
  3  2  1  0
  4  3  1  0
  5  4  1  0
  6  3  1  0
  7  6  1  0
  8  7  1  0
  9  8  1  0
 10  9  1  0
 11 10  1  0
 12 11  1  0
 13 12  2  0
 14 13  1  0
 15 14  2  0
 16 15  1  0
 17 16  1  0
 18 12  1  0
 18 16  2  0
 19  8  1  0
 19 11  1  0
 20 19  2  0
 21  1  1  0
 22  1  1  0
 23  1  1  0
 24  2  1  0
 25  2  1  0
 26  4  1  0
 27  4  1  0
 28  5  1  0
 29  5  1  0
 30  5  1  0
 31  6  1  0
 32  6  1  0
 33  7  1  0
 34  7  1  0
 35  9  1  0
 36  9  1  0
 37 10  1  0
 38 10  1  0
 39 13  1  0
 40 14  1  0
 41 15  1  0
 42 18  1  0
 43  3  1  0
M  CHG  1   3   1
M  END
>  <b_m_subgroup_collapsed>  (1129) 
0

>  <r_i_docking_score>  (1129) 
-6.6620420319588503

>  <s_m_subgroup_title>  (1129) 
glide-dock_SP_D22_pv

>  <s_m_subgroupid>  (1129) 
glide-dock_SP_D22_pv

>  <Molecule ChEMBL ID>  (1129) 
CHEMBL563635

>  <Standard Type>  (1129) 
Ki

>  <Standard Value>  (1129) 
25.12

>  <label>  (1129) 
1

$$$$
CHEMBL5190788
     RDKit          3D

 60 63  0  0  1  0  0  0  0  0999 V2000
   11.6860   11.0094   -6.2468 N   0  0  0  0  0  0  0  0  0  0  0  0
   11.6857   10.0874   -5.5701 C   0  0  0  0  0  0  0  0  0  0  0  0
   11.6888    8.9087   -4.7504 C   0  0  0  0  0  0  0  0  0  0  0  0
   12.1842    9.0240   -3.4361 C   0  0  0  0  0  0  0  0  0  0  0  0
   12.2278    7.8838   -2.6230 C   0  0  0  0  0  0  0  0  0  0  0  0
   11.7728    6.6752   -3.1696 C   0  0  0  0  0  0  0  0  0  0  0  0
   11.2860    6.5722   -4.4245 N   0  0  0  0  0  0  0  0  0  0  0  0
   11.2232    7.6528   -5.2258 C   0  0  0  0  0  0  0  0  0  0  0  0
   10.6393    7.4101   -6.4999 N   0  0  0  0  0  0  0  0  0  0  0  0
   10.9938    8.1636   -7.6981 C   0  0  0  0  0  0  0  0  0  0  0  0
   10.7918    7.3346   -8.9675 C   0  0  0  0  0  0  0  0  0  0  0  0
    9.4655    6.6681   -9.0500 N   0  0  0  0  0  0  0  0  0  0  0  0
    9.4531    5.7148  -10.1865 C   0  0  0  0  0  0  0  0  0  0  0  0
    8.1328    5.7074  -10.9504 C   0  0  0  0  0  0  0  0  0  0  0  0
    8.0148    4.4266  -11.7863 C   0  0  0  0  0  0  0  0  0  0  0  0
    7.6510    4.7456  -13.1621 N   0  0  0  0  0  0  0  0  0  0  0  0
    8.6576    4.2880  -14.1330 C   0  0  0  0  0  0  0  0  0  0  0  0
    8.6510    2.7523  -14.3289 C   0  0  0  0  0  0  0  0  0  0  0  0
    7.2953    2.2670  -14.5611 N   0  0  0  0  0  0  0  0  0  0  0  0
    7.0032    1.3647  -15.6026 C   0  0  0  0  0  0  0  0  0  0  0  0
    7.5125    1.6388  -16.8925 C   0  0  0  0  0  0  0  0  0  0  0  0
    7.2141    0.8011  -17.9823 C   0  0  0  0  0  0  0  0  0  0  0  0
    6.3968   -0.3257  -17.7940 C   0  0  0  0  0  0  0  0  0  0  0  0
    5.8906   -0.6236  -16.5154 C   0  0  0  0  0  0  0  0  0  0  0  0
    4.8860   -2.0139  -16.3205 Cl  0  0  0  0  0  0  0  0  0  0  0  0
    6.1996    0.2047  -15.4127 C   0  0  0  0  0  0  0  0  0  0  0  0
    5.5990   -0.2316  -13.8471 Cl  0  0  0  0  0  0  0  0  0  0  0  0
    6.2854    2.7169  -13.6120 C   0  0  0  0  0  0  0  0  0  0  0  0
    6.3128    4.2466  -13.4945 C   0  0  0  0  0  0  0  0  0  0  0  0
    9.0616    6.0018   -7.7797 C   0  0  0  0  0  0  0  0  0  0  0  0
    9.2824    6.8747   -6.5316 C   0  0  0  0  0  0  0  0  0  0  0  0
   12.5311    9.9719   -3.0517 H   0  0  0  0  0  0  0  0  0  0  0  0
   12.6002    7.9348   -1.6117 H   0  0  0  0  0  0  0  0  0  0  0  0
   11.7894    5.7725   -2.5802 H   0  0  0  0  0  0  0  0  0  0  0  0
   10.3735    9.0592   -7.7551 H   0  0  0  0  0  0  0  0  0  0  0  0
   12.0379    8.4762   -7.6575 H   0  0  0  0  0  0  0  0  0  0  0  0
   10.9441    7.9644   -9.8460 H   0  0  0  0  0  0  0  0  0  0  0  0
   11.5633    6.5728   -8.9930 H   0  0  0  0  0  0  0  0  0  0  0  0
   10.2268    5.9719  -10.9126 H   0  0  0  0  0  0  0  0  0  0  0  0
    9.7047    4.7126   -9.8336 H   0  0  0  0  0  0  0  0  0  0  0  0
    7.2864    5.7711  -10.2684 H   0  0  0  0  0  0  0  0  0  0  0  0
    8.0831    6.6024  -11.5746 H   0  0  0  0  0  0  0  0  0  0  0  0
    8.9538    3.8720  -11.7729 H   0  0  0  0  0  0  0  0  0  0  0  0
    7.2835    3.7724  -11.3137 H   0  0  0  0  0  0  0  0  0  0  0  0
    8.4860    4.7824  -15.0861 H   0  0  0  0  0  0  0  0  0  0  0  0
    9.6477    4.6194  -13.8166 H   0  0  0  0  0  0  0  0  0  0  0  0
    9.3197    2.4791  -15.1452 H   0  0  0  0  0  0  0  0  0  0  0  0
    9.0485    2.2525  -13.4468 H   0  0  0  0  0  0  0  0  0  0  0  0
    8.1213    2.5154  -17.0610 H   0  0  0  0  0  0  0  0  0  0  0  0
    7.6052    1.0270  -18.9640 H   0  0  0  0  0  0  0  0  0  0  0  0
    6.1580   -0.9665  -18.6300 H   0  0  0  0  0  0  0  0  0  0  0  0
    5.2866    2.4082  -13.9158 H   0  0  0  0  0  0  0  0  0  0  0  0
    6.4796    2.2551  -12.6477 H   0  0  0  0  0  0  0  0  0  0  0  0
    5.5935    4.5890  -12.7493 H   0  0  0  0  0  0  0  0  0  0  0  0
    5.9870    4.6529  -14.4457 H   0  0  0  0  0  0  0  0  0  0  0  0
    8.0162    5.6985   -7.8428 H   0  0  0  0  0  0  0  0  0  0  0  0
    9.6448    5.0897   -7.6587 H   0  0  0  0  0  0  0  0  0  0  0  0
    9.0761    6.2802   -5.6424 H   0  0  0  0  0  0  0  0  0  0  0  0
    8.5752    7.7059   -6.5258 H   0  0  0  0  0  0  0  0  0  0  0  0
    8.7672    7.3769   -9.2435 H   0  0  0  0  0  0  0  0  0  0  0  0
  2  1  3  0
  3  2  1  0
  4  3  1  0
  5  4  2  0
  6  5  1  0
  7  6  2  0
  8  3  2  0
  8  7  1  0
  9  8  1  0
 10  9  1  0
 11 10  1  0
 12 11  1  0
 13 12  1  0
 14 13  1  0
 15 14  1  0
 16 15  1  0
 17 16  1  0
 18 17  1  0
 19 18  1  0
 20 19  1  0
 21 20  2  0
 22 21  1  0
 23 22  2  0
 24 23  1  0
 25 24  1  0
 26 20  1  0
 26 24  2  0
 27 26  1  0
 28 19  1  0
 29 16  1  0
 29 28  1  0
 30 12  1  0
 31  9  1  0
 31 30  1  0
 32  4  1  0
 33  5  1  0
 34  6  1  0
 35 10  1  0
 36 10  1  0
 37 11  1  0
 38 11  1  0
 39 13  1  0
 40 13  1  0
 41 14  1  0
 42 14  1  0
 43 15  1  0
 44 15  1  0
 45 17  1  0
 46 17  1  0
 47 18  1  0
 48 18  1  0
 49 21  1  0
 50 22  1  0
 51 23  1  0
 52 28  1  0
 53 28  1  0
 54 29  1  0
 55 29  1  0
 56 30  1  0
 57 30  1  0
 58 31  1  0
 59 31  1  0
 60 12  1  0
M  CHG  1  12   1
M  END
>  <b_m_subgroup_collapsed>  (1130) 
0

>  <r_i_docking_score>  (1130) 
-6.66171780016579

>  <s_m_subgroup_title>  (1130) 
glide-dock_SP_D22_pv

>  <s_m_subgroupid>  (1130) 
glide-dock_SP_D22_pv

>  <Molecule ChEMBL ID>  (1130) 
CHEMBL5190788

>  <Standard Type>  (1130) 
Ki

>  <Standard Value>  (1130) 
10.0

>  <label>  (1130) 
1

$$$$
CHEMBL4570209
     RDKit          3D

 78 83  0  0  1  0  0  0  0  0999 V2000
    9.9086    7.6887   -6.3509 C   0  0  0  0  0  0  0  0  0  0  0  0
    9.8909    8.3577   -7.6026 O   0  0  0  0  0  0  0  0  0  0  0  0
    9.7265    7.5921   -8.7388 C   0  0  0  0  0  0  0  0  0  0  0  0
    9.5469    6.1860   -8.7370 C   0  0  0  0  0  0  0  0  0  0  0  0
    9.4150    5.4817   -9.9481 C   0  0  0  0  0  0  0  0  0  0  0  0
    9.4500    6.1669  -11.1825 C   0  0  0  0  0  0  0  0  0  0  0  0
    9.3781    5.4105  -12.4590 C   0  0  0  0  0  0  0  0  0  0  0  0
   10.5520    5.4447  -13.3402 C   0  0  0  0  0  0  0  0  0  0  0  0
   11.5278    6.1703  -13.1356 O   0  0  0  0  0  0  0  0  0  0  0  0
   10.4917    4.6230  -14.4826 N   0  0  0  0  0  0  0  0  0  0  0  0
   11.5759    4.7187  -15.4458 C   0  0  0  0  0  0  0  0  0  0  0  0
   11.3080    5.8168  -16.4908 C   0  0  0  0  0  0  0  0  0  0  0  0
   12.3434    5.8264  -17.6266 C   0  0  0  0  0  0  0  0  0  0  0  0
   11.9982    6.8060  -18.7659 C   0  0  0  0  0  0  0  0  0  0  0  0
   10.6377    6.6131  -19.3398 N   0  0  2  0  0  0  0  0  0  0  0  0
   10.3809    5.2385  -19.8563 C   0  0  0  0  0  0  0  0  0  0  0  0
    8.9175    5.0777  -20.2921 C   0  0  0  0  0  0  0  0  0  0  0  0
    8.5540    6.1178  -21.3549 C   0  0  0  0  0  0  0  0  0  0  0  0
    8.8491    7.5348  -20.8394 C   0  0  2  0  0  0  0  0  0  0  0  0
    8.4986    8.5483  -21.8889 C   0  0  0  0  0  0  0  0  0  0  0  0
    9.2887    8.9764  -22.9294 C   0  0  0  0  0  0  0  0  0  0  0  0
    8.5799    9.8876  -23.6908 N   0  0  0  0  0  0  0  0  0  0  0  0
    7.3112   10.0652  -23.1803 C   0  0  0  0  0  0  0  0  0  0  0  0
    6.2289   10.8580  -23.5920 C   0  0  0  0  0  0  0  0  0  0  0  0
    5.0146   10.7857  -22.8891 C   0  0  0  0  0  0  0  0  0  0  0  0
    4.8882    9.9308  -21.7647 C   0  0  0  0  0  0  0  0  0  0  0  0
    3.7232    9.7728  -21.0481 O   0  0  0  0  0  0  0  0  0  0  0  0
    2.5340   10.2938  -21.6205 C   0  0  0  0  0  0  0  0  0  0  0  0
    6.0036    9.1809  -21.3416 C   0  0  0  0  0  0  0  0  0  0  0  0
    7.2335    9.2141  -22.0409 C   0  0  0  0  0  0  0  0  0  0  0  0
   10.3143    7.6493  -20.3579 C   0  0  0  0  0  0  0  0  0  0  0  0
    9.3894    3.8178  -14.8197 C   0  0  0  0  0  0  0  0  0  0  0  0
    9.3705    3.1515  -15.8594 O   0  0  0  0  0  0  0  0  0  0  0  0
    8.2851    3.8317  -13.9492 N   0  0  0  0  0  0  0  0  0  0  0  0
    7.1728    3.0455  -14.2429 C   0  0  0  0  0  0  0  0  0  0  0  0
    6.0857    3.0336  -13.4468 C   0  0  0  0  0  0  0  0  0  0  0  0
    6.0467    3.8563  -12.2607 C   0  0  0  0  0  0  0  0  0  0  0  0
    7.1048    4.6175  -11.9515 C   0  0  0  0  0  0  0  0  0  0  0  0
    8.3053    4.6312  -12.7920 C   0  0  0  0  0  0  0  0  0  0  0  0
    9.6136    7.5690  -11.1891 C   0  0  0  0  0  0  0  0  0  0  0  0
    9.7494    8.2707   -9.9730 C   0  0  0  0  0  0  0  0  0  0  0  0
   10.0868    8.4086   -5.5527 H   0  0  0  0  0  0  0  0  0  0  0  0
    8.9539    7.1967   -6.1608 H   0  0  0  0  0  0  0  0  0  0  0  0
   10.7117    6.9528   -6.3031 H   0  0  0  0  0  0  0  0  0  0  0  0
    9.5126    5.6187   -7.8198 H   0  0  0  0  0  0  0  0  0  0  0  0
    9.2985    4.4084   -9.9247 H   0  0  0  0  0  0  0  0  0  0  0  0
   12.5078    4.8878  -14.9027 H   0  0  0  0  0  0  0  0  0  0  0  0
   11.6983    3.7372  -15.9040 H   0  0  0  0  0  0  0  0  0  0  0  0
   10.3099    5.6623  -16.9007 H   0  0  0  0  0  0  0  0  0  0  0  0
   11.2879    6.7946  -16.0070 H   0  0  0  0  0  0  0  0  0  0  0  0
   13.3176    6.0908  -17.2163 H   0  0  0  0  0  0  0  0  0  0  0  0
   12.4719    4.8183  -18.0232 H   0  0  0  0  0  0  0  0  0  0  0  0
   12.0774    7.8264  -18.3856 H   0  0  0  0  0  0  0  0  0  0  0  0
   12.7407    6.7160  -19.5608 H   0  0  0  0  0  0  0  0  0  0  0  0
   11.0518    5.0272  -20.6902 H   0  0  0  0  0  0  0  0  0  0  0  0
   10.5753    4.4870  -19.0929 H   0  0  0  0  0  0  0  0  0  0  0  0
    8.7510    4.0742  -20.6845 H   0  0  0  0  0  0  0  0  0  0  0  0
    8.2589    5.1872  -19.4302 H   0  0  0  0  0  0  0  0  0  0  0  0
    9.1208    5.9247  -22.2653 H   0  0  0  0  0  0  0  0  0  0  0  0
    7.4976    6.0235  -21.6167 H   0  0  0  0  0  0  0  0  0  0  0  0
    8.2126    7.7089  -19.9709 H   0  0  0  0  0  0  0  0  0  0  0  0
   10.3013    8.7102  -23.1976 H   0  0  0  0  0  0  0  0  0  0  0  0
    8.9666   10.3631  -24.4974 H   0  0  0  0  0  0  0  0  0  0  0  0
    6.3218   11.4970  -24.4591 H   0  0  0  0  0  0  0  0  0  0  0  0
    4.1878   11.3869  -23.2390 H   0  0  0  0  0  0  0  0  0  0  0  0
    1.6861    9.9419  -21.0431 H   0  0  0  0  0  0  0  0  0  0  0  0
    2.5226   11.3858  -21.6036 H   0  0  0  0  0  0  0  0  0  0  0  0
    2.3923    9.9467  -22.6461 H   0  0  0  0  0  0  0  0  0  0  0  0
    5.9053    8.5374  -20.4797 H   0  0  0  0  0  0  0  0  0  0  0  0
   10.4794    8.6427  -19.9360 H   0  0  0  0  0  0  0  0  0  0  0  0
   11.0028    7.5433  -21.1968 H   0  0  0  0  0  0  0  0  0  0  0  0
    7.1609    2.4172  -15.1223 H   0  0  0  0  0  0  0  0  0  0  0  0
    5.2432    2.4066  -13.6963 H   0  0  0  0  0  0  0  0  0  0  0  0
    5.1739    3.8758  -11.6272 H   0  0  0  0  0  0  0  0  0  0  0  0
    7.0273    5.2461  -11.0731 H   0  0  0  0  0  0  0  0  0  0  0  0
    9.6451    8.1103  -12.1231 H   0  0  0  0  0  0  0  0  0  0  0  0
    9.8778    9.3432   -9.9865 H   0  0  0  0  0  0  0  0  0  0  0  0
    9.9898    6.7556  -18.5778 H   0  0  0  0  0  0  0  0  0  0  0  0
  2  1  1  0
  3  2  1  0
  4  3  1  0
  5  4  2  0
  6  5  1  0
  7  6  1  0
  8  7  1  0
  9  8  2  0
 10  8  1  0
 11 10  1  0
 12 11  1  0
 13 12  1  0
 14 13  1  0
 15 14  1  0
 16 15  1  0
 17 16  1  0
 18 17  1  0
 19 18  1  0
 20 19  1  0
 21 20  2  0
 22 21  1  0
 23 22  1  0
 24 23  2  0
 25 24  1  0
 26 25  2  0
 27 26  1  0
 28 27  1  0
 29 26  1  0
 30 20  1  0
 30 23  1  0
 30 29  2  0
 31 15  1  0
 31 19  1  0
 32 10  1  0
 33 32  2  0
 34 32  1  0
 35 34  1  0
 36 35  2  0
 37 36  1  0
 38 37  2  0
 39  7  2  0
 39 34  1  0
 39 38  1  0
 40  6  2  0
 41  3  2  0
 41 40  1  0
 42  1  1  0
 43  1  1  0
 44  1  1  0
 45  4  1  0
 46  5  1  0
 47 11  1  0
 48 11  1  0
 49 12  1  0
 50 12  1  0
 51 13  1  0
 52 13  1  0
 53 14  1  0
 54 14  1  0
 55 16  1  0
 56 16  1  0
 57 17  1  0
 58 17  1  0
 59 18  1  0
 60 18  1  0
 19 61  1  1
 62 21  1  0
 63 22  1  0
 64 24  1  0
 65 25  1  0
 66 28  1  0
 67 28  1  0
 68 28  1  0
 69 29  1  0
 70 31  1  0
 71 31  1  0
 72 35  1  0
 73 36  1  0
 74 37  1  0
 75 38  1  0
 76 40  1  0
 77 41  1  0
 15 78  1  1
M  CHG  1  15   1
M  END
>  <b_m_subgroup_collapsed>  (1131) 
0

>  <r_i_docking_score>  (1131) 
-6.6583455526027997

>  <s_m_subgroup_title>  (1131) 
glide-dock_SP_D22_pv

>  <s_m_subgroupid>  (1131) 
glide-dock_SP_D22_pv

>  <Molecule ChEMBL ID>  (1131) 
CHEMBL4570209

>  <Standard Type>  (1131) 
Ki

>  <Standard Value>  (1131) 
11160.0

>  <label>  (1131) 
0

$$$$
CHEMBL5870203
     RDKit          3D

 71 74  0  0  1  0  0  0  0  0999 V2000
   12.4608    9.3755   -4.4858 C   0  0  0  0  0  0  0  0  0  0  0  0
   11.6859    8.6359   -5.4574 N   0  0  0  0  0  0  0  0  0  0  0  0
   11.6612    8.7659   -6.8272 C   0  0  0  0  0  0  0  0  0  0  0  0
   10.7801    7.8347   -7.3047 C   0  0  0  0  0  0  0  0  0  0  0  0
   10.4680    7.4948   -8.6502 C   0  0  0  0  0  0  0  0  0  0  0  0
   11.2877    7.7642   -9.6787 C   0  0  0  0  0  0  0  0  0  0  0  0
   10.9149    7.3726  -11.0182 C   0  0  0  0  0  0  0  0  0  0  0  0
    9.7893    7.0597  -11.3961 O   0  0  0  0  0  0  0  0  0  0  0  0
   11.9884    7.3774  -11.8215 N   0  0  0  0  0  0  0  0  0  0  0  0
   11.9278    7.1263  -13.2447 C   0  0  1  0  0  0  0  0  0  0  0  0
   13.0170    7.9121  -13.9876 C   0  0  0  0  0  0  0  0  0  0  0  0
   12.9883    7.6239  -15.5002 C   0  0  0  0  0  0  0  0  0  0  0  0
   13.0103    6.1204  -15.8506 C   0  0  2  0  0  0  0  0  0  0  0  0
   14.1965    5.6442  -15.4875 F   0  0  0  0  0  0  0  0  0  0  0  0
   12.8901    5.9379  -17.3812 C   0  0  0  0  0  0  0  0  0  0  0  0
   13.0463    4.4908  -17.9092 C   0  0  0  0  0  0  0  0  0  0  0  0
   11.8407    3.6494  -17.6727 N   0  0  1  0  0  0  0  0  0  0  0  0
   10.7119    3.9648  -18.5927 C   0  0  0  0  0  0  0  0  0  0  0  0
    9.3431    3.7651  -17.9245 C   0  0  0  0  0  0  0  0  0  0  0  0
    8.9851    2.3226  -17.7384 C   0  0  0  0  0  0  0  0  0  0  0  0
    7.7289    1.8738  -18.1521 N   0  0  0  0  0  0  0  0  0  0  0  0
    7.5731    0.5607  -17.9515 C   0  0  0  0  0  0  0  0  0  0  0  0
    6.5018   -0.2151  -18.2024 O   0  0  0  0  0  0  0  0  0  0  0  0
    5.3549    0.4680  -18.6956 C   0  0  0  0  0  0  0  0  0  0  0  0
    4.2416   -0.5288  -19.0414 C   0  0  0  0  0  0  0  0  0  0  0  0
    3.7137   -1.3192  -17.8360 C   0  0  0  0  0  0  0  0  0  0  0  0
    3.2339    0.1658  -19.5612 F   0  0  0  0  0  0  0  0  0  0  0  0
    4.6833   -1.3761  -19.9705 F   0  0  0  0  0  0  0  0  0  0  0  0
    8.9856   -0.2273  -17.2755 S   0  0  0  0  0  0  0  0  0  0  0  0
    9.7808    1.3294  -17.2070 C   0  0  0  0  0  0  0  0  0  0  0  0
   11.1669    1.4484  -16.6657 C   0  0  0  0  0  0  0  0  0  0  0  0
   12.1530    2.1965  -17.5794 C   0  0  0  0  0  0  0  0  0  0  0  0
   11.9187    5.3606  -15.0591 C   0  0  0  0  0  0  0  0  0  0  0  0
   11.9819    5.6235  -13.5503 C   0  0  0  0  0  0  0  0  0  0  0  0
   10.3278    7.1631   -6.1408 C   0  0  0  0  0  0  0  0  0  0  0  0
   10.8884    7.6351   -5.0442 N   0  0  0  0  0  0  0  0  0  0  0  0
   13.2759    9.9027   -4.9821 H   0  0  0  0  0  0  0  0  0  0  0  0
   11.8176   10.0940   -3.9769 H   0  0  0  0  0  0  0  0  0  0  0  0
   12.8852    8.6943   -3.7478 H   0  0  0  0  0  0  0  0  0  0  0  0
   12.2757    9.4872   -7.3412 H   0  0  0  0  0  0  0  0  0  0  0  0
    9.5238    7.0000   -8.8427 H   0  0  0  0  0  0  0  0  0  0  0  0
   12.2278    8.2663   -9.5047 H   0  0  0  0  0  0  0  0  0  0  0  0
   12.8747    7.6559  -11.4340 H   0  0  0  0  0  0  0  0  0  0  0  0
   10.9663    7.5019  -13.5615 H   0  0  0  0  0  0  0  0  0  0  0  0
   12.8860    8.9723  -13.8469 H   0  0  0  0  0  0  0  0  0  0  0  0
   13.9918    7.7690  -13.5340 H   0  0  0  0  0  0  0  0  0  0  0  0
   12.0861    8.0690  -15.9160 H   0  0  0  0  0  0  0  0  0  0  0  0
   13.8200    8.1351  -15.9873 H   0  0  0  0  0  0  0  0  0  0  0  0
   11.9601    6.3874  -17.7272 H   0  0  0  0  0  0  0  0  0  0  0  0
   13.6775    6.5348  -17.8433 H   0  0  0  0  0  0  0  0  0  0  0  0
   13.2622    4.5015  -18.9780 H   0  0  0  0  0  0  0  0  0  0  0  0
   13.9265    4.0542  -17.4348 H   0  0  0  0  0  0  0  0  0  0  0  0
   10.7669    5.0061  -18.9039 H   0  0  0  0  0  0  0  0  0  0  0  0
   10.7919    3.3870  -19.5137 H   0  0  0  0  0  0  0  0  0  0  0  0
    9.3104    4.2889  -16.9697 H   0  0  0  0  0  0  0  0  0  0  0  0
    8.5886    4.2487  -18.5456 H   0  0  0  0  0  0  0  0  0  0  0  0
    4.9991    1.1795  -17.9492 H   0  0  0  0  0  0  0  0  0  0  0  0
    5.6119    1.0363  -19.5908 H   0  0  0  0  0  0  0  0  0  0  0  0
    2.9074   -1.9891  -18.1342 H   0  0  0  0  0  0  0  0  0  0  0  0
    4.4969   -1.9267  -17.3832 H   0  0  0  0  0  0  0  0  0  0  0  0
    3.3200   -0.6535  -17.0672 H   0  0  0  0  0  0  0  0  0  0  0  0
   11.1320    1.9241  -15.6849 H   0  0  0  0  0  0  0  0  0  0  0  0
   11.5599    0.4473  -16.4824 H   0  0  0  0  0  0  0  0  0  0  0  0
   12.1979    1.7368  -18.5677 H   0  0  0  0  0  0  0  0  0  0  0  0
   13.1408    2.0622  -17.1395 H   0  0  0  0  0  0  0  0  0  0  0  0
   10.9328    5.6408  -15.4317 H   0  0  0  0  0  0  0  0  0  0  0  0
   12.0222    4.2876  -15.1989 H   0  0  0  0  0  0  0  0  0  0  0  0
   12.8861    5.1839  -13.1368 H   0  0  0  0  0  0  0  0  0  0  0  0
   11.1516    5.1132  -13.0578 H   0  0  0  0  0  0  0  0  0  0  0  0
    9.6398    6.3335   -6.0643 H   0  0  0  0  0  0  0  0  0  0  0  0
   11.5337    3.9108  -16.7468 H   0  0  0  0  0  0  0  0  0  0  0  0
  2  1  1  0
  3  2  1  0
  4  3  2  0
  5  4  1  0
  6  5  2  0
  7  6  1  0
  8  7  2  0
  9  7  1  0
 10  9  1  0
 11 10  1  0
 12 11  1  0
 13 12  1  0
 13 14  1  1
 15 13  1  0
 16 15  1  0
 17 16  1  0
 18 17  1  0
 19 18  1  0
 20 19  1  0
 21 20  1  0
 22 21  2  0
 23 22  1  0
 24 23  1  0
 25 24  1  0
 26 25  1  0
 27 25  1  0
 28 25  1  0
 29 22  1  0
 30 20  2  0
 30 29  1  0
 31 30  1  0
 32 17  1  0
 32 31  1  0
 33 13  1  0
 34 10  1  0
 34 33  1  0
 35  4  1  0
 36  2  1  0
 36 35  2  0
 37  1  1  0
 38  1  1  0
 39  1  1  0
 40  3  1  0
 41  5  1  0
 42  6  1  0
 43  9  1  0
 10 44  1  6
 45 11  1  0
 46 11  1  0
 47 12  1  0
 48 12  1  0
 49 15  1  0
 50 15  1  0
 51 16  1  0
 52 16  1  0
 53 18  1  0
 54 18  1  0
 55 19  1  0
 56 19  1  0
 57 24  1  0
 58 24  1  0
 59 26  1  0
 60 26  1  0
 61 26  1  0
 62 31  1  0
 63 31  1  0
 64 32  1  0
 65 32  1  0
 66 33  1  0
 67 33  1  0
 68 34  1  0
 69 34  1  0
 70 35  1  0
 17 71  1  1
M  CHG  1  17   1
M  END
>  <b_m_subgroup_collapsed>  (1132) 
0

>  <r_i_docking_score>  (1132) 
-6.6569685203819704

>  <s_m_subgroup_title>  (1132) 
glide-dock_SP_D22_pv

>  <s_m_subgroupid>  (1132) 
glide-dock_SP_D22_pv

>  <Molecule ChEMBL ID>  (1132) 
CHEMBL5870203

>  <Standard Type>  (1132) 
Ki

>  <Standard Value>  (1132) 
63.0

>  <label>  (1132) 
1

$$$$
CHEMBL242599
     RDKit          3D

 67 71  0  0  1  0  0  0  0  0999 V2000
   12.0619    7.0748   -2.7372 C   0  0  0  0  0  0  0  0  0  0  0  0
   11.6865    6.5722   -4.0091 O   0  0  0  0  0  0  0  0  0  0  0  0
   11.5006    7.4670   -5.0401 C   0  0  0  0  0  0  0  0  0  0  0  0
   11.6487    8.8706   -4.9099 C   0  0  0  0  0  0  0  0  0  0  0  0
   11.4592    9.7058   -6.0273 C   0  0  0  0  0  0  0  0  0  0  0  0
   11.1145    9.1467   -7.2716 C   0  0  0  0  0  0  0  0  0  0  0  0
   10.9553    7.7571   -7.4195 C   0  0  0  0  0  0  0  0  0  0  0  0
   10.5713    7.2333   -8.7319 C   0  0  0  0  0  0  0  0  0  0  0  0
   11.1684    7.6564   -9.8542 N   0  0  0  0  0  0  0  0  0  0  0  0
   10.5001    7.0577  -10.8978 N   0  0  0  0  0  0  0  0  0  0  0  0
    9.5529    6.3128  -10.3297 C   0  0  0  0  0  0  0  0  0  0  0  0
    8.3610    5.3722  -11.2305 S   0  0  0  0  0  0  0  0  0  0  0  0
    9.4594    4.3321  -12.2266 C   0  0  0  0  0  0  0  0  0  0  0  0
    9.8732    4.9998  -13.5512 C   0  0  0  0  0  0  0  0  0  0  0  0
   11.1688    4.4537  -14.1862 C   0  0  0  0  0  0  0  0  0  0  0  0
   10.9730    3.2915  -15.1003 N   0  0  1  0  0  0  0  0  0  0  0  0
   11.9708    3.3298  -16.2135 C   0  0  0  0  0  0  0  0  0  0  0  0
   11.8541    2.2090  -17.2609 C   0  0  0  0  0  0  0  0  0  0  0  0
   10.4194    1.7790  -17.5037 C   0  0  0  0  0  0  0  0  0  0  0  0
    9.7591    2.0794  -18.7105 C   0  0  0  0  0  0  0  0  0  0  0  0
    8.4336    1.6533  -18.9112 C   0  0  0  0  0  0  0  0  0  0  0  0
    7.7522    0.9240  -17.9088 C   0  0  0  0  0  0  0  0  0  0  0  0
    6.3865    0.4332  -18.1166 C   0  0  0  0  0  0  0  0  0  0  0  0
    5.7118   -0.6053  -17.4176 C   0  0  0  0  0  0  0  0  0  0  0  0
    4.4847   -0.6553  -18.0116 C   0  0  0  0  0  0  0  0  0  0  0  0
    3.2868   -1.5009  -17.7648 C   0  0  0  0  0  0  0  0  0  0  0  0
    4.3958    0.2777  -18.9923 O   0  0  0  0  0  0  0  0  0  0  0  0
    5.6092    0.9711  -19.0470 N   0  0  0  0  0  0  0  0  0  0  0  0
    8.4184    0.6354  -16.6974 C   0  0  0  0  0  0  0  0  0  0  0  0
    9.7431    1.0652  -16.4929 C   0  0  0  0  0  0  0  0  0  0  0  0
   10.4769    0.7513  -15.2025 C   0  0  0  0  0  0  0  0  0  0  0  0
   10.8192    2.0005  -14.3587 C   0  0  0  0  0  0  0  0  0  0  0  0
    9.5716    6.3547   -8.9828 N   0  0  0  0  0  0  0  0  0  0  0  0
    8.6624    5.6787   -8.0769 C   0  0  0  0  0  0  0  0  0  0  0  0
   11.1684    6.9256   -6.2999 C   0  0  0  0  0  0  0  0  0  0  0  0
   12.2065    6.2389   -2.0500 H   0  0  0  0  0  0  0  0  0  0  0  0
   11.2864    7.7173   -2.3149 H   0  0  0  0  0  0  0  0  0  0  0  0
   13.0005    7.6268   -2.7899 H   0  0  0  0  0  0  0  0  0  0  0  0
   11.9131    9.3304   -3.9692 H   0  0  0  0  0  0  0  0  0  0  0  0
   11.5780   10.7750   -5.9315 H   0  0  0  0  0  0  0  0  0  0  0  0
   10.9657    9.7726   -8.1342 H   0  0  0  0  0  0  0  0  0  0  0  0
   10.3233    4.0625  -11.6238 H   0  0  0  0  0  0  0  0  0  0  0  0
    8.9060    3.4172  -12.4168 H   0  0  0  0  0  0  0  0  0  0  0  0
    9.0466    4.9835  -14.2629 H   0  0  0  0  0  0  0  0  0  0  0  0
   10.0487    6.0555  -13.3493 H   0  0  0  0  0  0  0  0  0  0  0  0
   11.5830    5.2803  -14.7643 H   0  0  0  0  0  0  0  0  0  0  0  0
   11.9240    4.2338  -13.4314 H   0  0  0  0  0  0  0  0  0  0  0  0
   11.8146    4.2716  -16.7406 H   0  0  0  0  0  0  0  0  0  0  0  0
   12.9877    3.3721  -15.8204 H   0  0  0  0  0  0  0  0  0  0  0  0
   12.2996    2.5458  -18.1978 H   0  0  0  0  0  0  0  0  0  0  0  0
   12.4514    1.3462  -16.9654 H   0  0  0  0  0  0  0  0  0  0  0  0
   10.2658    2.6258  -19.4902 H   0  0  0  0  0  0  0  0  0  0  0  0
    7.9476    1.8726  -19.8507 H   0  0  0  0  0  0  0  0  0  0  0  0
    6.0716   -1.2318  -16.6128 H   0  0  0  0  0  0  0  0  0  0  0  0
    3.5772   -2.4827  -17.3817 H   0  0  0  0  0  0  0  0  0  0  0  0
    2.7146   -1.6552  -18.6800 H   0  0  0  0  0  0  0  0  0  0  0  0
    2.6441   -1.0275  -17.0233 H   0  0  0  0  0  0  0  0  0  0  0  0
    7.9165    0.0738  -15.9227 H   0  0  0  0  0  0  0  0  0  0  0  0
    9.8817    0.0642  -14.5964 H   0  0  0  0  0  0  0  0  0  0  0  0
   11.3716    0.1876  -15.4482 H   0  0  0  0  0  0  0  0  0  0  0  0
   11.6857    1.7997  -13.7318 H   0  0  0  0  0  0  0  0  0  0  0  0
    9.9852    2.1277  -13.6788 H   0  0  0  0  0  0  0  0  0  0  0  0
    8.5987    4.6208   -8.3303 H   0  0  0  0  0  0  0  0  0  0  0  0
    7.6860    6.1337   -8.1809 H   0  0  0  0  0  0  0  0  0  0  0  0
    8.9628    5.7806   -7.0428 H   0  0  0  0  0  0  0  0  0  0  0  0
   11.0871    5.8540   -6.4023 H   0  0  0  0  0  0  0  0  0  0  0  0
   10.0851    3.4357  -15.5603 H   0  0  0  0  0  0  0  0  0  0  0  0
  2  1  1  0
  3  2  1  0
  4  3  1  0
  5  4  2  0
  6  5  1  0
  7  6  2  0
  8  7  1  0
  9  8  2  0
 10  9  1  0
 11 10  2  0
 12 11  1  0
 13 12  1  0
 14 13  1  0
 15 14  1  0
 16 15  1  0
 17 16  1  0
 18 17  1  0
 19 18  1  0
 20 19  1  0
 21 20  2  0
 22 21  1  0
 23 22  1  0
 24 23  1  0
 25 24  2  0
 26 25  1  0
 27 25  1  0
 28 23  2  0
 28 27  1  0
 29 22  2  0
 30 19  2  0
 30 29  1  0
 31 30  1  0
 32 16  1  0
 32 31  1  0
 33  8  1  0
 33 11  1  0
 34 33  1  0
 35  3  2  0
 35  7  1  0
 36  1  1  0
 37  1  1  0
 38  1  1  0
 39  4  1  0
 40  5  1  0
 41  6  1  0
 42 13  1  0
 43 13  1  0
 44 14  1  0
 45 14  1  0
 46 15  1  0
 47 15  1  0
 48 17  1  0
 49 17  1  0
 50 18  1  0
 51 18  1  0
 52 20  1  0
 53 21  1  0
 54 24  1  0
 55 26  1  0
 56 26  1  0
 57 26  1  0
 58 29  1  0
 59 31  1  0
 60 31  1  0
 61 32  1  0
 62 32  1  0
 63 34  1  0
 64 34  1  0
 65 34  1  0
 66 35  1  0
 16 67  1  6
M  CHG  1  16   1
M  END
>  <b_m_subgroup_collapsed>  (1133) 
0

>  <r_i_docking_score>  (1133) 
-6.6569107660975702

>  <s_m_subgroup_title>  (1133) 
glide-dock_SP_D22_pv

>  <s_m_subgroupid>  (1133) 
glide-dock_SP_D22_pv

>  <Molecule ChEMBL ID>  (1133) 
CHEMBL242599

>  <Standard Type>  (1133) 
Ki

>  <Standard Value>  (1133) 
7.943

>  <label>  (1133) 
1

$$$$
CHEMBL240888
     RDKit          3D

 37 40  0  0  1  0  0  0  0  0999 V2000
   12.3588    9.7652   -5.3917 C   0  0  0  0  0  0  0  0  0  0  0  0
   12.4852    9.3779   -6.7516 O   0  0  0  0  0  0  0  0  0  0  0  0
   11.4078    8.7847   -7.3671 C   0  0  0  0  0  0  0  0  0  0  0  0
   10.2025    8.4751   -6.7019 C   0  0  0  0  0  0  0  0  0  0  0  0
    9.1639    7.8406   -7.3971 C   0  0  0  0  0  0  0  0  0  0  0  0
    9.3193    7.5000   -8.7521 C   0  0  0  0  0  0  0  0  0  0  0  0
   10.5122    7.8058   -9.4563 C   0  0  0  0  0  0  0  0  0  0  0  0
   10.7453    7.4199  -10.8983 C   0  0  0  0  0  0  0  0  0  0  0  0
   11.8613    7.7520  -11.4500 N   0  0  0  0  0  0  0  0  0  0  0  0
   12.1958    7.3774  -12.8430 C   0  0  0  0  0  0  0  0  0  0  0  0
   11.6107    6.0180  -13.3273 C   0  0  0  0  0  0  0  0  0  0  0  0
   10.2310    5.8560  -12.7812 C   0  0  0  0  0  0  0  0  0  0  0  0
    9.8417    6.5683  -11.6853 C   0  0  0  0  0  0  0  0  0  0  0  0
    8.4840    6.3769  -11.4926 N   0  0  0  0  0  0  0  0  0  0  0  0
    8.0145    5.3927  -12.3418 C   0  0  0  0  0  0  0  0  0  0  0  0
    6.7525    4.7875  -12.4792 C   0  0  0  0  0  0  0  0  0  0  0  0
    6.5751    3.7680  -13.4322 C   0  0  0  0  0  0  0  0  0  0  0  0
    7.6564    3.3732  -14.2454 C   0  0  0  0  0  0  0  0  0  0  0  0
    8.9084    4.0129  -14.1285 C   0  0  0  0  0  0  0  0  0  0  0  0
    9.1215    5.0292  -13.1675 C   0  0  0  0  0  0  0  0  0  0  0  0
   11.5440    8.4600   -8.7330 C   0  0  0  0  0  0  0  0  0  0  0  0
   13.3090   10.1717   -5.0490 H   0  0  0  0  0  0  0  0  0  0  0  0
   12.1239    8.9167   -4.7471 H   0  0  0  0  0  0  0  0  0  0  0  0
   11.6011   10.5428   -5.2718 H   0  0  0  0  0  0  0  0  0  0  0  0
   10.0560    8.7060   -5.6595 H   0  0  0  0  0  0  0  0  0  0  0  0
    8.2390    7.6012   -6.8899 H   0  0  0  0  0  0  0  0  0  0  0  0
    8.4823    6.9948   -9.1976 H   0  0  0  0  0  0  0  0  0  0  0  0
   11.8521    8.1630  -13.5186 H   0  0  0  0  0  0  0  0  0  0  0  0
   13.2797    7.3734  -12.9676 H   0  0  0  0  0  0  0  0  0  0  0  0
   11.5876    6.0059  -14.4173 H   0  0  0  0  0  0  0  0  0  0  0  0
   12.2517    5.1836  -13.0472 H   0  0  0  0  0  0  0  0  0  0  0  0
    7.9040    6.9004  -10.8346 H   0  0  0  0  0  0  0  0  0  0  0  0
    5.9370    5.0912  -11.8376 H   0  0  0  0  0  0  0  0  0  0  0  0
    5.6145    3.2852  -13.5355 H   0  0  0  0  0  0  0  0  0  0  0  0
    7.5203    2.5865  -14.9735 H   0  0  0  0  0  0  0  0  0  0  0  0
    9.7241    3.7110  -14.7685 H   0  0  0  0  0  0  0  0  0  0  0  0
   12.4784    8.7109   -9.2126 H   0  0  0  0  0  0  0  0  0  0  0  0
  2  1  1  0
  3  2  1  0
  4  3  1  0
  5  4  2  0
  6  5  1  0
  7  6  2  0
  8  7  1  0
  9  8  2  0
 10  9  1  0
 11 10  1  0
 12 11  1  0
 13  8  1  0
 13 12  2  0
 14 13  1  0
 15 14  1  0
 16 15  2  0
 17 16  1  0
 18 17  2  0
 19 18  1  0
 20 12  1  0
 20 15  1  0
 20 19  2  0
 21  3  2  0
 21  7  1  0
 22  1  1  0
 23  1  1  0
 24  1  1  0
 25  4  1  0
 26  5  1  0
 27  6  1  0
 28 10  1  0
 29 10  1  0
 30 11  1  0
 31 11  1  0
 32 14  1  0
 33 16  1  0
 34 17  1  0
 35 18  1  0
 36 19  1  0
 37 21  1  0
M  END
>  <b_m_subgroup_collapsed>  (1134) 
0

>  <r_i_docking_score>  (1134) 
-6.65161542122424

>  <s_m_subgroup_title>  (1134) 
glide-dock_SP_D22_pv

>  <s_m_subgroupid>  (1134) 
glide-dock_SP_D22_pv

>  <Molecule ChEMBL ID>  (1134) 
CHEMBL240888

>  <Standard Type>  (1134) 
Ki

>  <Standard Value>  (1134) 
31000.0

>  <label>  (1134) 
0

$$$$
CHEMBL5170927
     RDKit          3D

 54 57  0  0  1  0  0  0  0  0999 V2000
   11.6860   10.9723   -6.2469 N   0  0  0  0  0  0  0  0  0  0  0  0
   11.6828   10.0766   -5.5242 C   0  0  0  0  0  0  0  0  0  0  0  0
   11.6884    8.9445   -4.6219 C   0  0  0  0  0  0  0  0  0  0  0  0
   12.1788    9.1095   -3.3121 C   0  0  0  0  0  0  0  0  0  0  0  0
   12.2939    7.9807   -2.4836 C   0  0  0  0  0  0  0  0  0  0  0  0
   11.9240    6.7310   -3.0106 C   0  0  0  0  0  0  0  0  0  0  0  0
   11.4318    6.5723   -4.2572 N   0  0  0  0  0  0  0  0  0  0  0  0
   11.2860    7.6553   -5.0469 C   0  0  0  0  0  0  0  0  0  0  0  0
   10.7088    7.4391   -6.3081 N   0  0  0  0  0  0  0  0  0  0  0  0
   11.2961    6.5265   -7.2712 C   0  0  0  0  0  0  0  0  0  0  0  0
   11.2952    7.2137   -8.6559 C   0  0  0  0  0  0  0  0  0  0  0  0
    9.9571    7.6348   -9.0584 N   0  0  0  0  0  0  0  0  0  0  0  0
    9.0337    6.5235   -9.2846 C   0  0  0  0  0  0  0  0  0  0  0  0
    9.3981    5.6140  -10.4672 C   0  0  0  0  0  0  0  0  0  0  0  0
    9.5382    6.3556  -11.8112 C   0  0  0  0  0  0  0  0  0  0  0  0
   10.0860    5.4978  -12.8073 O   0  0  0  0  0  0  0  0  0  0  0  0
    9.3115    4.4858  -13.3317 C   0  0  0  0  0  0  0  0  0  0  0  0
    7.8944    4.4550  -13.2874 C   0  0  0  0  0  0  0  0  0  0  0  0
    7.1856    3.3723  -13.8469 C   0  0  0  0  0  0  0  0  0  0  0  0
    7.8861    2.3062  -14.4443 C   0  0  0  0  0  0  0  0  0  0  0  0
    9.2959    2.3391  -14.5085 C   0  0  0  0  0  0  0  0  0  0  0  0
    9.9998    3.4269  -13.9582 C   0  0  0  0  0  0  0  0  0  0  0  0
   10.0075    1.2656  -15.1002 N   0  0  0  0  0  0  0  0  0  0  0  0
    9.4370    0.3029  -15.8424 C   0  0  0  0  0  0  0  0  0  0  0  0
   10.0860   -0.6277  -16.3115 O   0  0  0  0  0  0  0  0  0  0  0  0
    7.9331    0.4187  -16.1299 C   0  0  0  0  0  0  0  0  0  0  0  0
    7.1630    1.0805  -14.9718 C   0  0  0  0  0  0  0  0  0  0  0  0
    9.4280    8.5810   -8.0708 C   0  0  0  0  0  0  0  0  0  0  0  0
    9.4015    7.9893   -6.6451 C   0  0  0  0  0  0  0  0  0  0  0  0
   12.4860   10.0807   -2.9505 H   0  0  0  0  0  0  0  0  0  0  0  0
   12.6718    8.0704   -1.4762 H   0  0  0  0  0  0  0  0  0  0  0  0
   12.0139    5.8367   -2.4117 H   0  0  0  0  0  0  0  0  0  0  0  0
   12.3112    6.2604   -6.9795 H   0  0  0  0  0  0  0  0  0  0  0  0
   10.7260    5.5997   -7.2905 H   0  0  0  0  0  0  0  0  0  0  0  0
   11.9461    8.0892   -8.6308 H   0  0  0  0  0  0  0  0  0  0  0  0
   11.6860    6.5723   -9.4375 H   0  0  0  0  0  0  0  0  0  0  0  0
    8.8841    5.9256   -8.3864 H   0  0  0  0  0  0  0  0  0  0  0  0
    8.0860    6.9723   -9.5033 H   0  0  0  0  0  0  0  0  0  0  0  0
   10.3050    5.0658  -10.2357 H   0  0  0  0  0  0  0  0  0  0  0  0
    8.6232    4.8527  -10.5581 H   0  0  0  0  0  0  0  0  0  0  0  0
    8.6035    6.8216  -12.1227 H   0  0  0  0  0  0  0  0  0  0  0  0
   10.2468    7.1763  -11.7008 H   0  0  0  0  0  0  0  0  0  0  0  0
    7.3268    5.2466  -12.8228 H   0  0  0  0  0  0  0  0  0  0  0  0
    6.1069    3.3521  -13.7900 H   0  0  0  0  0  0  0  0  0  0  0  0
   11.0791    3.4482  -13.9971 H   0  0  0  0  0  0  0  0  0  0  0  0
   11.0070    1.2327  -14.9664 H   0  0  0  0  0  0  0  0  0  0  0  0
    7.8229    1.0210  -17.0319 H   0  0  0  0  0  0  0  0  0  0  0  0
    7.5148   -0.5635  -16.3536 H   0  0  0  0  0  0  0  0  0  0  0  0
    7.0477    0.3718  -14.1505 H   0  0  0  0  0  0  0  0  0  0  0  0
    6.1591    1.3511  -15.2967 H   0  0  0  0  0  0  0  0  0  0  0  0
   10.0656    9.4629   -8.0804 H   0  0  0  0  0  0  0  0  0  0  0  0
    8.4346    8.9195   -8.3650 H   0  0  0  0  0  0  0  0  0  0  0  0
    8.6453    7.2083   -6.5610 H   0  0  0  0  0  0  0  0  0  0  0  0
    9.1267    8.7692   -5.9393 H   0  0  0  0  0  0  0  0  0  0  0  0
  2  1  3  0
  3  2  1  0
  4  3  1  0
  5  4  2  0
  6  5  1  0
  7  6  2  0
  8  3  2  0
  8  7  1  0
  9  8  1  0
 10  9  1  0
 11 10  1  0
 12 11  1  0
 13 12  1  0
 14 13  1  0
 15 14  1  0
 16 15  1  0
 17 16  1  0
 18 17  1  0
 19 18  2  0
 20 19  1  0
 21 20  2  0
 22 17  2  0
 22 21  1  0
 23 21  1  0
 24 23  1  0
 25 24  2  0
 26 24  1  0
 27 20  1  0
 27 26  1  0
 28 12  1  0
 29  9  1  0
 29 28  1  0
 30  4  1  0
 31  5  1  0
 32  6  1  0
 33 10  1  0
 34 10  1  0
 35 11  1  0
 36 11  1  0
 37 13  1  0
 38 13  1  0
 39 14  1  0
 40 14  1  0
 41 15  1  0
 42 15  1  0
 43 18  1  0
 44 19  1  0
 45 22  1  0
 46 23  1  0
 47 26  1  0
 48 26  1  0
 49 27  1  0
 50 27  1  0
 51 28  1  0
 52 28  1  0
 53 29  1  0
 54 29  1  0
M  END
>  <b_m_subgroup_collapsed>  (1135) 
0

>  <r_i_docking_score>  (1135) 
-6.6485713536490101

>  <s_m_subgroup_title>  (1135) 
glide-dock_SP_D22_pv

>  <s_m_subgroupid>  (1135) 
glide-dock_SP_D22_pv

>  <Molecule ChEMBL ID>  (1135) 
CHEMBL5170927

>  <Standard Type>  (1135) 
Ki

>  <Standard Value>  (1135) 
81.0

>  <label>  (1135) 
1

$$$$
CHEMBL4103891
     RDKit          3D

 39 43  0  0  1  0  0  0  0  0999 V2000
   10.1297   -0.2274  -16.0286 N   0  0  0  0  0  0  0  0  0  0  0  0
    9.8432    0.7544  -15.4872 C   0  0  0  0  0  0  0  0  0  0  0  0
    9.4792    1.9855  -14.8080 C   0  0  0  0  0  0  0  0  0  0  0  0
   10.5072    2.8727  -14.3783 C   0  0  0  0  0  0  0  0  0  0  0  0
   10.1339    4.0443  -13.6791 C   0  0  0  0  0  0  0  0  0  0  0  0
   10.8834    5.0405  -13.1048 C   0  0  0  0  0  0  0  0  0  0  0  0
    9.9303    5.8743  -12.4585 N   0  0  0  0  0  0  0  0  0  0  0  0
   10.3410    7.2287  -11.4375 S   0  0  0  0  0  0  0  0  0  0  0  0
   11.7983    7.3724  -11.5847 O   0  0  0  0  0  0  0  0  0  0  0  0
    9.4366    8.3133  -11.8479 O   0  0  0  0  0  0  0  0  0  0  0  0
    9.9490    6.7689   -9.7193 C   0  0  0  0  0  0  0  0  0  0  0  0
    9.0048    5.7366   -9.5169 C   0  0  0  0  0  0  0  0  0  0  0  0
    8.4944    5.4577   -8.2464 C   0  0  0  0  0  0  0  0  0  0  0  0
    8.9374    6.1963   -7.1471 C   0  0  0  0  0  0  0  0  0  0  0  0
    9.9680    7.1338   -7.2930 C   0  0  0  0  0  0  0  0  0  0  0  0
   10.4650    7.7408   -6.1245 C   0  0  0  0  0  0  0  0  0  0  0  0
   11.5100    8.6654   -6.2005 C   0  0  0  0  0  0  0  0  0  0  0  0
   12.0603    8.9718   -7.4511 C   0  0  0  0  0  0  0  0  0  0  0  0
   11.5406    8.4014   -8.6388 C   0  0  0  0  0  0  0  0  0  0  0  0
   10.4926    7.4447   -8.5795 C   0  0  0  0  0  0  0  0  0  0  0  0
    8.6876    5.4102  -12.7507 C   0  0  0  0  0  0  0  0  0  0  0  0
    7.3718    5.7976  -12.4258 C   0  0  0  0  0  0  0  0  0  0  0  0
    6.2847    4.9737  -12.8048 C   0  0  0  0  0  0  0  0  0  0  0  0
    6.4943    3.7758  -13.5342 C   0  0  0  0  0  0  0  0  0  0  0  0
    7.7992    3.3779  -13.9003 C   0  0  0  0  0  0  0  0  0  0  0  0
    8.7999    4.2471  -13.4705 C   0  0  0  0  0  0  0  0  0  0  0  0
    8.1238    2.2268  -14.5897 O   0  0  0  0  0  0  0  0  0  0  0  0
   11.5496    2.6488  -14.5553 H   0  0  0  0  0  0  0  0  0  0  0  0
   11.9475    5.2171  -13.0473 H   0  0  0  0  0  0  0  0  0  0  0  0
    8.6078    5.1445  -10.3151 H   0  0  0  0  0  0  0  0  0  0  0  0
    7.7465    4.6927   -8.1185 H   0  0  0  0  0  0  0  0  0  0  0  0
    8.5105    6.0085   -6.1755 H   0  0  0  0  0  0  0  0  0  0  0  0
   10.0677    7.4763   -5.1567 H   0  0  0  0  0  0  0  0  0  0  0  0
   11.9109    9.1129   -5.3025 H   0  0  0  0  0  0  0  0  0  0  0  0
   12.9019    9.6461   -7.4492 H   0  0  0  0  0  0  0  0  0  0  0  0
   11.9902    8.6887   -9.5761 H   0  0  0  0  0  0  0  0  0  0  0  0
    7.1979    6.6930  -11.8488 H   0  0  0  0  0  0  0  0  0  0  0  0
    5.2871    5.2652  -12.5216 H   0  0  0  0  0  0  0  0  0  0  0  0
    5.6500    3.1609  -13.8095 H   0  0  0  0  0  0  0  0  0  0  0  0
  2  1  3  0
  3  2  1  0
  4  3  2  0
  5  4  1  0
  6  5  2  0
  7  6  1  0
  8  7  1  0
  9  8  2  0
 10  8  2  0
 11  8  1  0
 12 11  2  0
 13 12  1  0
 14 13  2  0
 15 14  1  0
 16 15  2  0
 17 16  1  0
 18 17  2  0
 19 18  1  0
 20 11  1  0
 20 15  1  0
 20 19  2  0
 21  7  1  0
 22 21  2  0
 23 22  1  0
 24 23  2  0
 25 24  1  0
 26  5  1  0
 26 21  1  0
 26 25  2  0
 27  3  1  0
 27 25  1  0
 28  4  1  0
 29  6  1  0
 30 12  1  0
 31 13  1  0
 32 14  1  0
 33 16  1  0
 34 17  1  0
 35 18  1  0
 36 19  1  0
 37 22  1  0
 38 23  1  0
 39 24  1  0
M  END
>  <b_m_subgroup_collapsed>  (1136) 
0

>  <r_i_docking_score>  (1136) 
-6.64829506025377

>  <s_m_subgroup_title>  (1136) 
glide-dock_SP_D22_pv

>  <s_m_subgroupid>  (1136) 
glide-dock_SP_D22_pv

>  <Molecule ChEMBL ID>  (1136) 
CHEMBL4103891

>  <Standard Type>  (1136) 
Ki

>  <Standard Value>  (1136) 
10000.0

>  <label>  (1136) 
0

$$$$
CHEMBL5200771
     RDKit          3D

 48 48  0  0  1  0  0  0  0  0999 V2000
   11.7694    7.9606   -2.2913 C   0  0  0  0  0  0  0  0  0  0  0  0
   12.4469    7.1785   -3.4218 C   0  0  0  0  0  0  0  0  0  0  0  0
   11.4812    6.7160   -4.5252 C   0  0  0  0  0  0  0  0  0  0  0  0
   10.9186    7.8476   -5.4074 C   0  0  0  0  0  0  0  0  0  0  0  0
    9.8319    7.3583   -6.3816 C   0  0  0  0  0  0  0  0  0  0  0  0
   10.3869    6.5974   -7.5931 C   0  0  0  0  0  0  0  0  0  0  0  0
    9.2952    6.0496   -8.3909 N   0  0  0  0  0  0  0  0  0  0  0  0
    9.2619    6.0286   -9.7306 C   0  0  0  0  0  0  0  0  0  0  0  0
   10.1224    6.5158  -10.4640 O   0  0  0  0  0  0  0  0  0  0  0  0
    8.1008    5.3723  -10.2610 N   0  0  0  0  0  0  0  0  0  0  0  0
    7.8117    5.1694  -11.5657 C   0  0  0  0  0  0  0  0  0  0  0  0
    8.6489    5.5001  -12.5678 N   0  0  0  0  0  0  0  0  0  0  0  0
    6.6271    4.5947  -11.8469 N   0  0  0  0  0  0  0  0  0  0  0  0
    6.0670    4.3038  -13.1721 C   0  0  0  0  0  0  0  0  0  0  0  0
    6.2487    2.8345  -13.5750 C   0  0  0  0  0  0  0  0  0  0  0  0
    5.3012    1.8660  -12.8345 C   0  0  0  0  0  0  0  0  0  0  0  0
    5.0368    0.6117  -13.6045 C   0  0  0  0  0  0  0  0  0  0  0  0
    3.7959    0.1725  -13.8507 N   0  0  0  0  0  0  0  0  0  0  0  0
    3.7801   -0.9346  -14.6845 N   0  0  0  0  0  0  0  0  0  0  0  0
    5.0139   -1.3028  -15.0382 C   0  0  0  0  0  0  0  0  0  0  0  0
    5.2859   -2.3510  -15.8944 N   0  0  0  0  0  0  0  0  0  0  0  0
    6.3124   -0.3666  -14.3133 S   0  0  0  0  0  0  0  0  0  0  0  0
   12.4819    8.1998   -1.5022 H   0  0  0  0  0  0  0  0  0  0  0  0
   11.3526    8.9023   -2.6477 H   0  0  0  0  0  0  0  0  0  0  0  0
   10.9626    7.3765   -1.8461 H   0  0  0  0  0  0  0  0  0  0  0  0
   12.9066    6.2923   -2.9828 H   0  0  0  0  0  0  0  0  0  0  0  0
   13.2580    7.7686   -3.8476 H   0  0  0  0  0  0  0  0  0  0  0  0
   10.6568    6.1718   -4.0650 H   0  0  0  0  0  0  0  0  0  0  0  0
   11.9978    5.9965   -5.1607 H   0  0  0  0  0  0  0  0  0  0  0  0
   11.7240    8.3359   -5.9582 H   0  0  0  0  0  0  0  0  0  0  0  0
   10.4862    8.6176   -4.7726 H   0  0  0  0  0  0  0  0  0  0  0  0
    9.2595    8.2157   -6.7382 H   0  0  0  0  0  0  0  0  0  0  0  0
    9.1203    6.7294   -5.8475 H   0  0  0  0  0  0  0  0  0  0  0  0
   11.0212    5.7723   -7.2733 H   0  0  0  0  0  0  0  0  0  0  0  0
   11.0154    7.2654   -8.1851 H   0  0  0  0  0  0  0  0  0  0  0  0
    8.5055    5.6825   -7.8796 H   0  0  0  0  0  0  0  0  0  0  0  0
    9.5133    5.9741  -12.3404 H   0  0  0  0  0  0  0  0  0  0  0  0
    8.4144    5.3135  -13.5302 H   0  0  0  0  0  0  0  0  0  0  0  0
    6.0122    4.4090  -11.0614 H   0  0  0  0  0  0  0  0  0  0  0  0
    5.0103    4.5723  -13.1804 H   0  0  0  0  0  0  0  0  0  0  0  0
    6.5408    4.9475  -13.9078 H   0  0  0  0  0  0  0  0  0  0  0  0
    6.0852    2.7716  -14.6502 H   0  0  0  0  0  0  0  0  0  0  0  0
    7.2852    2.5257  -13.4475 H   0  0  0  0  0  0  0  0  0  0  0  0
    5.6856    1.6107  -11.8482 H   0  0  0  0  0  0  0  0  0  0  0  0
    4.3414    2.3557  -12.6622 H   0  0  0  0  0  0  0  0  0  0  0  0
    4.5553   -3.0146  -16.1318 H   0  0  0  0  0  0  0  0  0  0  0  0
    6.2470   -2.6855  -15.9553 H   0  0  0  0  0  0  0  0  0  0  0  0
    7.3699    5.0318   -9.6491 H   0  0  0  0  0  0  0  0  0  0  0  0
  2  1  1  0
  3  2  1  0
  4  3  1  0
  5  4  1  0
  6  5  1  0
  7  6  1  0
  8  7  1  0
  9  8  2  0
 10  8  1  0
 11 10  2  0
 12 11  1  0
 13 11  1  0
 14 13  1  0
 15 14  1  0
 16 15  1  0
 17 16  1  0
 18 17  2  0
 19 18  1  0
 20 19  2  0
 21 20  1  0
 22 17  1  0
 22 20  1  0
 23  1  1  0
 24  1  1  0
 25  1  1  0
 26  2  1  0
 27  2  1  0
 28  3  1  0
 29  3  1  0
 30  4  1  0
 31  4  1  0
 32  5  1  0
 33  5  1  0
 34  6  1  0
 35  6  1  0
 36  7  1  0
 37 12  1  0
 38 12  1  0
 39 13  1  0
 40 14  1  0
 41 14  1  0
 42 15  1  0
 43 15  1  0
 44 16  1  0
 45 16  1  0
 46 21  1  0
 47 21  1  0
 48 10  1  0
M  CHG  1  10   1
M  END
>  <b_m_subgroup_collapsed>  (1137) 
0

>  <r_i_docking_score>  (1137) 
-6.6420790551887201

>  <s_m_subgroup_title>  (1137) 
glide-dock_SP_D22_pv

>  <s_m_subgroupid>  (1137) 
glide-dock_SP_D22_pv

>  <Molecule ChEMBL ID>  (1137) 
CHEMBL5200771

>  <Standard Type>  (1137) 
Ki

>  <Standard Value>  (1137) 
10000.0

>  <label>  (1137) 
0

$$$$
CHEMBL394862
     RDKit          3D

 64 68  0  0  1  0  0  0  0  0999 V2000
   10.0853    5.3288  -15.1605 O   0  0  0  0  0  0  0  0  0  0  0  0
   11.0280    5.6765  -14.4518 C   0  0  0  0  0  0  0  0  0  0  0  0
   12.3040    5.7182  -14.8779 N   0  0  0  0  0  0  0  0  0  0  0  0
   12.7519    5.6260  -16.2682 C   0  0  0  0  0  0  0  0  0  0  0  0
   12.1937    4.4258  -17.0713 C   0  0  1  0  0  0  0  0  0  0  0  0
   12.6981    4.4874  -18.3897 O   0  0  0  0  0  0  0  0  0  0  0  0
   12.5590    3.0659  -16.4546 C   0  0  0  0  0  0  0  0  0  0  0  0
   11.7592    1.8632  -16.9844 C   0  0  0  0  0  0  0  0  0  0  0  0
   10.4808    1.7679  -16.2778 N   0  0  0  0  0  0  0  0  0  0  0  0
    9.3712    2.1765  -17.1454 C   0  0  0  0  0  0  0  0  0  0  0  0
    8.0757    2.2536  -16.3233 C   0  0  0  0  0  0  0  0  0  0  0  0
    7.8168    0.9908  -15.6554 N   0  0  0  0  0  0  0  0  0  0  0  0
    6.6989    0.2152  -15.9995 C   0  0  0  0  0  0  0  0  0  0  0  0
    6.5354   -0.2563  -17.3191 C   0  0  0  0  0  0  0  0  0  0  0  0
    5.3937   -1.0004  -17.6732 C   0  0  0  0  0  0  0  0  0  0  0  0
    4.3950   -1.2589  -16.7134 C   0  0  0  0  0  0  0  0  0  0  0  0
    4.5438   -0.7748  -15.3996 C   0  0  0  0  0  0  0  0  0  0  0  0
    3.2860   -1.0271  -14.2489 Cl  0  0  0  0  0  0  0  0  0  0  0  0
    5.6993   -0.0524  -15.0333 C   0  0  0  0  0  0  0  0  0  0  0  0
    5.8457    0.5587  -13.4197 Cl  0  0  0  0  0  0  0  0  0  0  0  0
    8.9318    0.3938  -14.9342 C   0  0  0  0  0  0  0  0  0  0  0  0
   10.2085    0.4067  -15.8014 C   0  0  0  0  0  0  0  0  0  0  0  0
   10.7698    6.0938  -13.0309 C   0  0  0  0  0  0  0  0  0  0  0  0
    9.6139    5.6090  -12.3608 C   0  0  0  0  0  0  0  0  0  0  0  0
    9.3005    6.0125  -11.0432 C   0  0  0  0  0  0  0  0  0  0  0  0
   10.1646    6.9125  -10.3987 C   0  0  0  0  0  0  0  0  0  0  0  0
   11.2927    7.4166  -11.0557 C   0  0  0  0  0  0  0  0  0  0  0  0
   11.6082    7.0309  -12.3744 C   0  0  0  0  0  0  0  0  0  0  0  0
   12.0936    8.3434  -10.1540 C   0  0  0  0  0  0  0  0  0  0  0  0
   11.2999    8.2230   -8.8638 C   0  0  0  0  0  0  0  0  0  0  0  0
   11.6207    8.7810   -7.6150 C   0  0  0  0  0  0  0  0  0  0  0  0
   10.7511    8.5353   -6.5274 C   0  0  0  0  0  0  0  0  0  0  0  0
    9.5947    7.7387   -6.6969 C   0  0  0  0  0  0  0  0  0  0  0  0
    9.2895    7.1732   -7.9560 C   0  0  0  0  0  0  0  0  0  0  0  0
   10.1658    7.4199   -9.0293 C   0  0  0  0  0  0  0  0  0  0  0  0
   13.0078    5.9578  -14.1939 H   0  0  0  0  0  0  0  0  0  0  0  0
   13.8406    5.5872  -16.2590 H   0  0  0  0  0  0  0  0  0  0  0  0
   12.4858    6.5581  -16.7696 H   0  0  0  0  0  0  0  0  0  0  0  0
   11.1144    4.5187  -17.1587 H   0  0  0  0  0  0  0  0  0  0  0  0
   13.6386    4.4164  -18.3588 H   0  0  0  0  0  0  0  0  0  0  0  0
   13.6190    2.9069  -16.6485 H   0  0  0  0  0  0  0  0  0  0  0  0
   12.4618    3.0998  -15.3700 H   0  0  0  0  0  0  0  0  0  0  0  0
   11.6307    1.9107  -18.0673 H   0  0  0  0  0  0  0  0  0  0  0  0
   12.3501    0.9665  -16.7911 H   0  0  0  0  0  0  0  0  0  0  0  0
    9.5629    3.1521  -17.5891 H   0  0  0  0  0  0  0  0  0  0  0  0
    9.2642    1.4746  -17.9731 H   0  0  0  0  0  0  0  0  0  0  0  0
    8.1674    3.0235  -15.5570 H   0  0  0  0  0  0  0  0  0  0  0  0
    7.2367    2.5294  -16.9621 H   0  0  0  0  0  0  0  0  0  0  0  0
    7.2922   -0.0572  -18.0623 H   0  0  0  0  0  0  0  0  0  0  0  0
    5.2771   -1.3673  -18.6833 H   0  0  0  0  0  0  0  0  0  0  0  0
    3.5092   -1.8160  -16.9883 H   0  0  0  0  0  0  0  0  0  0  0  0
    9.0955    0.9552  -14.0149 H   0  0  0  0  0  0  0  0  0  0  0  0
    8.6844   -0.6276  -14.6506 H   0  0  0  0  0  0  0  0  0  0  0  0
   10.1091   -0.2786  -16.6454 H   0  0  0  0  0  0  0  0  0  0  0  0
   11.0461    0.0496  -15.1983 H   0  0  0  0  0  0  0  0  0  0  0  0
    8.9544    4.9138  -12.8576 H   0  0  0  0  0  0  0  0  0  0  0  0
    8.4266    5.6275  -10.5380 H   0  0  0  0  0  0  0  0  0  0  0  0
   12.4861    7.4376  -12.8584 H   0  0  0  0  0  0  0  0  0  0  0  0
   13.1234    8.0054  -10.0278 H   0  0  0  0  0  0  0  0  0  0  0  0
   12.0832    9.3691  -10.5311 H   0  0  0  0  0  0  0  0  0  0  0  0
   12.5150    9.3720   -7.4803 H   0  0  0  0  0  0  0  0  0  0  0  0
   10.9768    8.9503   -5.5552 H   0  0  0  0  0  0  0  0  0  0  0  0
    8.9463    7.5526   -5.8509 H   0  0  0  0  0  0  0  0  0  0  0  0
    8.4104    6.5572   -8.0868 H   0  0  0  0  0  0  0  0  0  0  0  0
  2  1  2  0
  3  2  1  0
  4  3  1  0
  5  4  1  0
  6  5  1  0
  7  5  1  0
  8  7  1  0
  9  8  1  0
 10  9  1  0
 11 10  1  0
 12 11  1  0
 13 12  1  0
 14 13  2  0
 15 14  1  0
 16 15  2  0
 17 16  1  0
 18 17  1  0
 19 13  1  0
 19 17  2  0
 20 19  1  0
 21 12  1  0
 22  9  1  0
 22 21  1  0
 23  2  1  0
 24 23  2  0
 25 24  1  0
 26 25  2  0
 27 26  1  0
 28 23  1  0
 28 27  2  0
 29 27  1  0
 30 29  1  0
 31 30  2  0
 32 31  1  0
 33 32  2  0
 34 33  1  0
 35 26  1  0
 35 30  1  0
 35 34  2  0
 36  3  1  0
 37  4  1  0
 38  4  1  0
  5 39  1  6
 40  6  1  0
 41  7  1  0
 42  7  1  0
 43  8  1  0
 44  8  1  0
 45 10  1  0
 46 10  1  0
 47 11  1  0
 48 11  1  0
 49 14  1  0
 50 15  1  0
 51 16  1  0
 52 21  1  0
 53 21  1  0
 54 22  1  0
 55 22  1  0
 56 24  1  0
 57 25  1  0
 58 28  1  0
 59 29  1  0
 60 29  1  0
 61 31  1  0
 62 32  1  0
 63 33  1  0
 64 34  1  0
M  END
>  <b_m_subgroup_collapsed>  (1138) 
0

>  <r_i_docking_score>  (1138) 
-6.6403674950489204

>  <s_m_subgroup_title>  (1138) 
glide-dock_SP_D22_pv

>  <s_m_subgroupid>  (1138) 
glide-dock_SP_D22_pv

>  <Molecule ChEMBL ID>  (1138) 
CHEMBL394862

>  <Standard Type>  (1138) 
Ki

>  <Standard Value>  (1138) 
84.0

>  <label>  (1138) 
1

$$$$
CHEMBL255229
     RDKit          3D

 48 51  0  0  1  0  0  0  0  0999 V2000
    9.5292    6.9513   -6.8916 C   0  0  0  0  0  0  0  0  0  0  0  0
    9.4958    7.5997   -8.2808 C   0  0  0  0  0  0  0  0  0  0  0  0
    9.1871    6.5810   -9.3964 C   0  0  0  0  0  0  0  0  0  0  0  0
    8.8860    7.1966  -10.7263 N   0  0  1  0  0  0  0  0  0  0  0  0
    9.8562    8.1996  -11.1985 C   0  0  0  0  0  0  0  0  0  0  0  0
   11.1430    7.4806  -11.5769 C   0  0  0  0  0  0  0  0  0  0  0  0
   10.9572    6.4217  -12.6469 C   0  0  0  0  0  0  0  0  0  0  0  0
   11.9776    6.0211  -13.5158 C   0  0  0  0  0  0  0  0  0  0  0  0
   11.7991    4.8907  -14.3152 C   0  0  0  0  0  0  0  0  0  0  0  0
   10.5918    4.1757  -14.2600 C   0  0  0  0  0  0  0  0  0  0  0  0
    9.4734    4.5578  -13.4654 C   0  0  0  0  0  0  0  0  0  0  0  0
    9.7271    5.7073  -12.6541 C   0  0  0  0  0  0  0  0  0  0  0  0
    8.5445    6.2497  -11.8295 C   0  0  1  0  0  0  0  0  0  0  0  0
    7.5453    5.1770  -11.3924 C   0  0  0  0  0  0  0  0  0  0  0  0
    7.2140    4.1723  -12.4603 C   0  0  0  0  0  0  0  0  0  0  0  0
    5.9654    3.5329  -12.3546 C   0  0  0  0  0  0  0  0  0  0  0  0
    5.6220    2.5087  -13.2402 C   0  0  0  0  0  0  0  0  0  0  0  0
    6.5248    2.1471  -14.2468 C   0  0  0  0  0  0  0  0  0  0  0  0
    7.7838    2.7816  -14.3666 C   0  0  0  0  0  0  0  0  0  0  0  0
    8.5730    2.3883  -15.4221 O   0  0  0  0  0  0  0  0  0  0  0  0
    9.0698    1.1255  -15.4833 C   0  0  0  0  0  0  0  0  0  0  0  0
    9.9006    0.8906  -16.7369 C   0  0  0  0  0  0  0  0  0  0  0  0
    8.9181    0.2364  -14.6469 O   0  0  0  0  0  0  0  0  0  0  0  0
    8.1629    3.8260  -13.4586 C   0  0  0  0  0  0  0  0  0  0  0  0
    9.7517    7.6904   -6.1217 H   0  0  0  0  0  0  0  0  0  0  0  0
   10.2890    6.1714   -6.8344 H   0  0  0  0  0  0  0  0  0  0  0  0
    8.5658    6.5022   -6.6457 H   0  0  0  0  0  0  0  0  0  0  0  0
    8.7386    8.3855   -8.2798 H   0  0  0  0  0  0  0  0  0  0  0  0
   10.4570    8.0824   -8.4566 H   0  0  0  0  0  0  0  0  0  0  0  0
    9.9917    5.8495   -9.4828 H   0  0  0  0  0  0  0  0  0  0  0  0
    8.3040    6.0390   -9.0596 H   0  0  0  0  0  0  0  0  0  0  0  0
    9.4466    8.7159  -12.0684 H   0  0  0  0  0  0  0  0  0  0  0  0
   10.0375    8.9724  -10.4541 H   0  0  0  0  0  0  0  0  0  0  0  0
   11.9089    8.1723  -11.9120 H   0  0  0  0  0  0  0  0  0  0  0  0
   11.5803    7.0013  -10.7010 H   0  0  0  0  0  0  0  0  0  0  0  0
   12.9146    6.5531  -13.5306 H   0  0  0  0  0  0  0  0  0  0  0  0
   12.5996    4.5527  -14.9573 H   0  0  0  0  0  0  0  0  0  0  0  0
   10.5799    3.3034  -14.8815 H   0  0  0  0  0  0  0  0  0  0  0  0
    8.0033    6.8616  -12.5538 H   0  0  0  0  0  0  0  0  0  0  0  0
    7.9384    4.5739  -10.5750 H   0  0  0  0  0  0  0  0  0  0  0  0
    6.6314    5.6604  -11.0469 H   0  0  0  0  0  0  0  0  0  0  0  0
    5.2860    3.8052  -11.5604 H   0  0  0  0  0  0  0  0  0  0  0  0
    4.6696    2.0069  -13.1525 H   0  0  0  0  0  0  0  0  0  0  0  0
    6.2467    1.3659  -14.9395 H   0  0  0  0  0  0  0  0  0  0  0  0
    9.4007    1.3095  -17.6101 H   0  0  0  0  0  0  0  0  0  0  0  0
   10.0460   -0.1775  -16.9005 H   0  0  0  0  0  0  0  0  0  0  0  0
   10.8783    1.3615  -16.6341 H   0  0  0  0  0  0  0  0  0  0  0  0
    7.9903    7.6756  -10.5593 H   0  0  0  0  0  0  0  0  0  0  0  0
  2  1  1  0
  3  2  1  0
  4  3  1  0
  5  4  1  0
  6  5  1  0
  7  6  1  0
  8  7  2  0
  9  8  1  0
 10  9  2  0
 11 10  1  0
 12  7  1  0
 12 11  2  0
 13  4  1  0
 13 12  1  0
 14 13  1  0
 15 14  1  0
 16 15  2  0
 17 16  1  0
 18 17  2  0
 19 18  1  0
 20 19  1  0
 21 20  1  0
 22 21  1  0
 23 21  2  0
 24 11  1  0
 24 15  1  0
 24 19  2  0
 25  1  1  0
 26  1  1  0
 27  1  1  0
 28  2  1  0
 29  2  1  0
 30  3  1  0
 31  3  1  0
 32  5  1  0
 33  5  1  0
 34  6  1  0
 35  6  1  0
 36  8  1  0
 37  9  1  0
 38 10  1  0
 13 39  1  6
 40 14  1  0
 41 14  1  0
 42 16  1  0
 43 17  1  0
 44 18  1  0
 45 22  1  0
 46 22  1  0
 47 22  1  0
  4 48  1  1
M  CHG  1   4   1
M  END
>  <b_m_subgroup_collapsed>  (1139) 
0

>  <r_i_docking_score>  (1139) 
-6.6402120757021104

>  <s_m_subgroup_title>  (1139) 
glide-dock_SP_D22_pv

>  <s_m_subgroupid>  (1139) 
glide-dock_SP_D22_pv

>  <Molecule ChEMBL ID>  (1139) 
CHEMBL255229

>  <Standard Type>  (1139) 
Ki

>  <Standard Value>  (1139) 
72.3

>  <label>  (1139) 
1

$$$$
CHEMBL4441655
     RDKit          3D

 45 47  0  0  1  0  0  0  0  0999 V2000
    8.9833    7.0657   -8.0381 C   0  0  0  0  0  0  0  0  0  0  0  0
    8.8860    6.7317   -9.4758 N   0  0  0  0  0  0  0  0  0  0  0  0
    8.8710    5.2705   -9.7232 C   0  0  0  0  0  0  0  0  0  0  0  0
    8.6432    4.9812  -11.2137 C   0  0  0  0  0  0  0  0  0  0  0  0
    9.6550    5.6569  -12.0303 N   0  0  0  0  0  0  0  0  0  0  0  0
   10.3696    5.0079  -13.0469 C   0  0  0  0  0  0  0  0  0  0  0  0
   11.3033    5.7176  -13.6865 N   0  0  0  0  0  0  0  0  0  0  0  0
   11.9101    5.0275  -14.6480 C   0  0  0  0  0  0  0  0  0  0  0  0
   12.8860    5.6888  -15.3360 N   0  0  0  0  0  0  0  0  0  0  0  0
   11.6860    3.7723  -15.0243 N   0  0  0  0  0  0  0  0  0  0  0  0
   10.7186    3.1927  -14.3128 C   0  0  0  0  0  0  0  0  0  0  0  0
   10.3403    1.7734  -14.7038 C   0  0  0  0  0  0  0  0  0  0  0  0
    8.8027    1.7306  -15.7233 S   0  0  0  0  0  0  0  0  0  0  0  0
    8.6746    0.3708  -16.2663 O   0  0  0  0  0  0  0  0  0  0  0  0
    8.8656    2.8591  -16.6662 O   0  0  0  0  0  0  0  0  0  0  0  0
    7.4290    2.0558  -14.5807 C   0  0  0  0  0  0  0  0  0  0  0  0
    7.1998    3.4061  -14.2469 C   0  0  0  0  0  0  0  0  0  0  0  0
    6.1392    3.7845  -13.4105 C   0  0  0  0  0  0  0  0  0  0  0  0
    5.3015    2.7983  -12.8758 C   0  0  0  0  0  0  0  0  0  0  0  0
    5.5297    1.4435  -13.1624 C   0  0  0  0  0  0  0  0  0  0  0  0
    6.5908    1.0606  -14.0054 C   0  0  0  0  0  0  0  0  0  0  0  0
    6.7938   -0.6277  -14.2469 Cl  0  0  0  0  0  0  0  0  0  0  0  0
   10.0521    3.7318  -13.2911 N   0  0  0  0  0  0  0  0  0  0  0  0
    9.7125    7.1050  -11.8036 C   0  0  0  0  0  0  0  0  0  0  0  0
    9.8958    7.4300  -10.3085 C   0  0  0  0  0  0  0  0  0  0  0  0
    9.9429    6.7535   -7.6242 H   0  0  0  0  0  0  0  0  0  0  0  0
    8.8731    8.1400   -7.8859 H   0  0  0  0  0  0  0  0  0  0  0  0
    8.1914    6.5723   -7.4720 H   0  0  0  0  0  0  0  0  0  0  0  0
    8.0860    4.8003   -9.1314 H   0  0  0  0  0  0  0  0  0  0  0  0
    9.8159    4.8319   -9.3976 H   0  0  0  0  0  0  0  0  0  0  0  0
    7.6593    5.3468  -11.5097 H   0  0  0  0  0  0  0  0  0  0  0  0
    8.6250    3.9044  -11.3707 H   0  0  0  0  0  0  0  0  0  0  0  0
   13.2481    6.5441  -14.9426 H   0  0  0  0  0  0  0  0  0  0  0  0
   13.4837    5.1517  -15.9451 H   0  0  0  0  0  0  0  0  0  0  0  0
   10.1938    1.1291  -13.8469 H   0  0  0  0  0  0  0  0  0  0  0  0
   11.1401    1.3405  -15.3040 H   0  0  0  0  0  0  0  0  0  0  0  0
    7.8382    4.1784  -14.6469 H   0  0  0  0  0  0  0  0  0  0  0  0
    5.9680    4.8269  -13.1834 H   0  0  0  0  0  0  0  0  0  0  0  0
    4.4860    3.0878  -12.2469 H   0  0  0  0  0  0  0  0  0  0  0  0
    4.8861    0.6912  -12.7319 H   0  0  0  0  0  0  0  0  0  0  0  0
   10.5066    7.5913  -12.3690 H   0  0  0  0  0  0  0  0  0  0  0  0
    8.7779    7.5399  -12.1613 H   0  0  0  0  0  0  0  0  0  0  0  0
    9.8179    8.5072  -10.1549 H   0  0  0  0  0  0  0  0  0  0  0  0
   10.8959    7.1335   -9.9876 H   0  0  0  0  0  0  0  0  0  0  0  0
    7.9706    7.0785   -9.7777 H   0  0  0  0  0  0  0  0  0  0  0  0
  2  1  1  0
  3  2  1  0
  4  3  1  0
  5  4  1  0
  6  5  1  0
  7  6  1  0
  8  7  2  0
  9  8  1  0
 10  8  1  0
 11 10  2  0
 12 11  1  0
 13 12  1  0
 14 13  2  0
 15 13  2  0
 16 13  1  0
 17 16  2  0
 18 17  1  0
 19 18  2  0
 20 19  1  0
 21 16  1  0
 21 20  2  0
 22 21  1  0
 23  6  2  0
 23 11  1  0
 24  5  1  0
 25  2  1  0
 25 24  1  0
 26  1  1  0
 27  1  1  0
 28  1  1  0
 29  3  1  0
 30  3  1  0
 31  4  1  0
 32  4  1  0
 33  9  1  0
 34  9  1  0
 35 12  1  0
 36 12  1  0
 37 17  1  0
 38 18  1  0
 39 19  1  0
 40 20  1  0
 41 24  1  0
 42 24  1  0
 43 25  1  0
 44 25  1  0
 45  2  1  0
M  CHG  1   2   1
M  END
>  <b_m_subgroup_collapsed>  (1140) 
0

>  <r_i_docking_score>  (1140) 
-6.6366998967638002

>  <s_m_subgroup_title>  (1140) 
glide-dock_SP_D22_pv

>  <s_m_subgroupid>  (1140) 
glide-dock_SP_D22_pv

>  <Molecule ChEMBL ID>  (1140) 
CHEMBL4441655

>  <Standard Type>  (1140) 
Ki

>  <Standard Value>  (1140) 
50140.0

>  <label>  (1140) 
0

$$$$
CHEMBL25074
     RDKit          3D

 52 55  0  0  1  0  0  0  0  0999 V2000
    6.2348    5.3202  -11.4512 C   0  0  0  0  0  0  0  0  0  0  0  0
    6.7631    5.6215  -12.7789 N   0  0  1  0  0  0  0  0  0  0  0  0
    7.6104    6.8474  -12.7837 C   0  0  0  0  0  0  0  0  0  0  0  0
    9.0473    6.6304  -12.2740 C   0  0  1  0  0  0  0  0  0  0  0  0
    9.1222    6.6110  -10.8083 N   0  0  0  0  0  0  0  0  0  0  0  0
   10.1553    7.0794  -10.0771 C   0  0  0  0  0  0  0  0  0  0  0  0
   11.2364    7.3720  -10.5892 O   0  0  0  0  0  0  0  0  0  0  0  0
    9.9140    7.3224   -8.5631 C   0  0  0  0  0  0  0  0  0  0  0  0
   11.2407    7.3236   -7.7708 C   0  0  0  0  0  0  0  0  0  0  0  0
    9.3020    8.7291   -8.4142 C   0  0  0  0  0  0  0  0  0  0  0  0
    8.9985    6.2362   -7.9481 C   0  0  0  0  0  0  0  0  0  0  0  0
    9.7043    5.4323  -12.9904 C   0  0  0  0  0  0  0  0  0  0  0  0
    8.8150    4.1682  -13.0804 C   0  0  2  0  0  0  0  0  0  0  0  0
    9.4157    3.0992  -14.0042 C   0  0  0  0  0  0  0  0  0  0  0  0
   10.7393    2.9740  -14.4633 C   0  0  0  0  0  0  0  0  0  0  0  0
   11.0824    1.8738  -15.2703 C   0  0  0  0  0  0  0  0  0  0  0  0
   10.1379    0.8669  -15.5387 C   0  0  0  0  0  0  0  0  0  0  0  0
    8.8357    1.0009  -15.1040 C   0  0  0  0  0  0  0  0  0  0  0  0
    7.7567    0.1719  -15.2233 N   0  0  0  0  0  0  0  0  0  0  0  0
    6.6571    0.7726  -14.6581 C   0  0  0  0  0  0  0  0  0  0  0  0
    5.1811   -0.0974  -14.5470 Cl  0  0  0  0  0  0  0  0  0  0  0  0
    7.0564    2.0138  -14.2444 C   0  0  0  0  0  0  0  0  0  0  0  0
    8.4568    2.1366  -14.4002 C   0  0  0  0  0  0  0  0  0  0  0  0
    6.4594    3.1999  -13.5380 C   0  0  0  0  0  0  0  0  0  0  0  0
    7.3651    4.4771  -13.5196 C   0  0  1  0  0  0  0  0  0  0  0  0
    7.0524    5.0897  -10.7700 H   0  0  0  0  0  0  0  0  0  0  0  0
    5.5279    4.4931  -11.4477 H   0  0  0  0  0  0  0  0  0  0  0  0
    5.6701    6.1717  -11.0795 H   0  0  0  0  0  0  0  0  0  0  0  0
    7.6867    7.1723  -13.8132 H   0  0  0  0  0  0  0  0  0  0  0  0
    7.1181    7.6587  -12.2470 H   0  0  0  0  0  0  0  0  0  0  0  0
    9.6050    7.5184  -12.5818 H   0  0  0  0  0  0  0  0  0  0  0  0
    8.2472    6.5124  -10.3086 H   0  0  0  0  0  0  0  0  0  0  0  0
   11.9766    8.0161   -8.1842 H   0  0  0  0  0  0  0  0  0  0  0  0
   11.6849    6.3294   -7.7450 H   0  0  0  0  0  0  0  0  0  0  0  0
   11.0750    7.6182   -6.7339 H   0  0  0  0  0  0  0  0  0  0  0  0
    9.0505    8.9527   -7.3767 H   0  0  0  0  0  0  0  0  0  0  0  0
    8.3986    8.8476   -9.0096 H   0  0  0  0  0  0  0  0  0  0  0  0
   10.0095    9.4909   -8.7486 H   0  0  0  0  0  0  0  0  0  0  0  0
    8.7989    6.4502   -6.8970 H   0  0  0  0  0  0  0  0  0  0  0  0
    9.4672    5.2519   -8.0020 H   0  0  0  0  0  0  0  0  0  0  0  0
    8.0333    6.1604   -8.4452 H   0  0  0  0  0  0  0  0  0  0  0  0
    9.9461    5.7667  -14.0007 H   0  0  0  0  0  0  0  0  0  0  0  0
   10.6546    5.1855  -12.5216 H   0  0  0  0  0  0  0  0  0  0  0  0
    8.7759    3.7528  -12.0728 H   0  0  0  0  0  0  0  0  0  0  0  0
   11.4892    3.7095  -14.2114 H   0  0  0  0  0  0  0  0  0  0  0  0
   12.0872    1.7720  -15.6465 H   0  0  0  0  0  0  0  0  0  0  0  0
   10.4355   -0.0093  -16.0949 H   0  0  0  0  0  0  0  0  0  0  0  0
    7.7649   -0.7784  -15.5776 H   0  0  0  0  0  0  0  0  0  0  0  0
    5.4919    3.4416  -13.9810 H   0  0  0  0  0  0  0  0  0  0  0  0
    6.2458    2.8618  -12.5268 H   0  0  0  0  0  0  0  0  0  0  0  0
    7.4487    4.8152  -14.5502 H   0  0  0  0  0  0  0  0  0  0  0  0
    5.9337    5.8668  -13.3034 H   0  0  0  0  0  0  0  0  0  0  0  0
  2  1  1  0
  3  2  1  0
  4  3  1  0
  5  4  1  0
  6  5  1  0
  7  6  2  0
  8  6  1  0
  9  8  1  0
 10  8  1  0
 11  8  1  0
 12  4  1  0
 13 12  1  0
 14 13  1  0
 15 14  1  0
 16 15  2  0
 17 16  1  0
 18 17  2  0
 19 18  1  0
 20 19  1  0
 21 20  1  0
 22 20  2  0
 23 14  2  0
 23 18  1  0
 23 22  1  0
 24 22  1  0
 25  2  1  0
 25 13  1  0
 25 24  1  0
 26  1  1  0
 27  1  1  0
 28  1  1  0
 29  3  1  0
 30  3  1  0
  4 31  1  6
 32  5  1  0
 33  9  1  0
 34  9  1  0
 35  9  1  0
 36 10  1  0
 37 10  1  0
 38 10  1  0
 39 11  1  0
 40 11  1  0
 41 11  1  0
 42 12  1  0
 43 12  1  0
 13 44  1  1
 45 15  1  0
 46 16  1  0
 47 17  1  0
 48 19  1  0
 49 24  1  0
 50 24  1  0
 25 51  1  6
  2 52  1  6
M  CHG  1   2   1
M  END
>  <b_m_subgroup_collapsed>  (1141) 
0

>  <r_i_docking_score>  (1141) 
-6.6358628022085702

>  <s_m_subgroup_title>  (1141) 
glide-dock_SP_D22_pv

>  <s_m_subgroupid>  (1141) 
glide-dock_SP_D22_pv

>  <Molecule ChEMBL ID>  (1141) 
CHEMBL25074

>  <Standard Type>  (1141) 
Ki

>  <Standard Value>  (1141) 
3.6

>  <label>  (1141) 
1

$$$$
CHEMBL161792
     RDKit          3D

 55 58  0  0  1  0  0  0  0  0999 V2000
   12.4634    9.3722   -1.6691 O   0  0  0  0  0  0  0  0  0  0  0  0
   12.0983    8.7488   -2.6555 C   0  0  0  0  0  0  0  0  0  0  0  0
   12.0849    7.2915   -2.6747 C   0  0  0  0  0  0  0  0  0  0  0  0
   11.7868    6.6098   -3.7877 C   0  0  0  0  0  0  0  0  0  0  0  0
   11.4666    7.2860   -5.0325 C   0  0  0  0  0  0  0  0  0  0  0  0
   11.2893    6.5724   -6.2218 C   0  0  0  0  0  0  0  0  0  0  0  0
   11.0996    7.2503   -7.4243 C   0  0  0  0  0  0  0  0  0  0  0  0
   11.0546    8.6640   -7.4578 C   0  0  0  0  0  0  0  0  0  0  0  0
   10.8866    9.3721   -8.6287 O   0  0  0  0  0  0  0  0  0  0  0  0
   10.8871    8.6555   -9.8639 C   0  0  0  0  0  0  0  0  0  0  0  0
    9.5274    7.9760  -10.1497 C   0  0  0  0  0  0  0  0  0  0  0  0
    9.5650    6.9663  -11.3171 C   0  0  0  0  0  0  0  0  0  0  0  0
    8.5848    5.7948  -11.0965 C   0  0  0  0  0  0  0  0  0  0  0  0
    8.2066    5.1591  -12.3562 N   0  0  0  0  0  0  0  0  0  0  0  0
    6.8968    4.5212  -12.1780 C   0  0  0  0  0  0  0  0  0  0  0  0
    6.4211    3.9072  -13.5044 C   0  0  0  0  0  0  0  0  0  0  0  0
    7.4152    2.9652  -14.0039 N   0  0  0  0  0  0  0  0  0  0  0  0
    6.9884    1.7630  -14.6063 C   0  0  0  0  0  0  0  0  0  0  0  0
    6.0816    0.9592  -13.8744 C   0  0  0  0  0  0  0  0  0  0  0  0
    5.5603   -0.2278  -14.4163 C   0  0  0  0  0  0  0  0  0  0  0  0
    5.9355   -0.6273  -15.7078 C   0  0  0  0  0  0  0  0  0  0  0  0
    6.8468    0.1452  -16.4493 C   0  0  0  0  0  0  0  0  0  0  0  0
    7.2791   -0.3831  -18.0373 Cl  0  0  0  0  0  0  0  0  0  0  0  0
    7.3891    1.3335  -15.9054 C   0  0  0  0  0  0  0  0  0  0  0  0
    8.4877    2.2477  -16.8874 Cl  0  0  0  0  0  0  0  0  0  0  0  0
    8.7802    3.4756  -14.0800 C   0  0  0  0  0  0  0  0  0  0  0  0
    9.1865    4.1357  -12.7439 C   0  0  0  0  0  0  0  0  0  0  0  0
   11.2179    9.3839   -6.2460 C   0  0  0  0  0  0  0  0  0  0  0  0
   11.4471    8.6932   -5.0340 C   0  0  0  0  0  0  0  0  0  0  0  0
   11.7250    9.3658   -3.8056 N   0  0  0  0  0  0  0  0  0  0  0  0
   12.3500    6.7476   -1.7829 H   0  0  0  0  0  0  0  0  0  0  0  0
   11.8186    5.5389   -3.7884 H   0  0  0  0  0  0  0  0  0  0  0  0
   11.3960    5.5036   -6.2422 H   0  0  0  0  0  0  0  0  0  0  0  0
   11.0161    6.6356   -8.3067 H   0  0  0  0  0  0  0  0  0  0  0  0
   11.7159    7.9469   -9.9006 H   0  0  0  0  0  0  0  0  0  0  0  0
   11.1049    9.3724  -10.6505 H   0  0  0  0  0  0  0  0  0  0  0  0
    8.7705    8.7383  -10.3460 H   0  0  0  0  0  0  0  0  0  0  0  0
    9.1640    7.4653   -9.2546 H   0  0  0  0  0  0  0  0  0  0  0  0
   10.5705    6.5641  -11.4459 H   0  0  0  0  0  0  0  0  0  0  0  0
    9.3280    7.4956  -12.2407 H   0  0  0  0  0  0  0  0  0  0  0  0
    7.6860    6.1725  -10.6144 H   0  0  0  0  0  0  0  0  0  0  0  0
    8.9973    5.0676  -10.3951 H   0  0  0  0  0  0  0  0  0  0  0  0
    6.1659    5.2643  -11.8539 H   0  0  0  0  0  0  0  0  0  0  0  0
    6.9443    3.7658  -11.3923 H   0  0  0  0  0  0  0  0  0  0  0  0
    6.2834    4.6903  -14.2464 H   0  0  0  0  0  0  0  0  0  0  0  0
    5.4436    3.4408  -13.3719 H   0  0  0  0  0  0  0  0  0  0  0  0
    5.7803    1.2513  -12.8775 H   0  0  0  0  0  0  0  0  0  0  0  0
    4.8707   -0.8310  -13.8471 H   0  0  0  0  0  0  0  0  0  0  0  0
    5.5374   -1.5409  -16.1270 H   0  0  0  0  0  0  0  0  0  0  0  0
    9.4738    2.6666  -14.3108 H   0  0  0  0  0  0  0  0  0  0  0  0
    8.8439    4.2098  -14.8845 H   0  0  0  0  0  0  0  0  0  0  0  0
   10.1712    4.5937  -12.8490 H   0  0  0  0  0  0  0  0  0  0  0  0
    9.2770    3.3757  -11.9654 H   0  0  0  0  0  0  0  0  0  0  0  0
   11.2083   10.4630   -6.2644 H   0  0  0  0  0  0  0  0  0  0  0  0
   11.7128   10.3754   -3.8083 H   0  0  0  0  0  0  0  0  0  0  0  0
  2  1  2  0
  3  2  1  0
  4  3  2  0
  5  4  1  0
  6  5  2  0
  7  6  1  0
  8  7  2  0
  9  8  1  0
 10  9  1  0
 11 10  1  0
 12 11  1  0
 13 12  1  0
 14 13  1  0
 15 14  1  0
 16 15  1  0
 17 16  1  0
 18 17  1  0
 19 18  2  0
 20 19  1  0
 21 20  2  0
 22 21  1  0
 23 22  1  0
 24 18  1  0
 24 22  2  0
 25 24  1  0
 26 17  1  0
 27 14  1  0
 27 26  1  0
 28  8  1  0
 29  5  1  0
 29 28  2  0
 30  2  1  0
 30 29  1  0
 31  3  1  0
 32  4  1  0
 33  6  1  0
 34  7  1  0
 35 10  1  0
 36 10  1  0
 37 11  1  0
 38 11  1  0
 39 12  1  0
 40 12  1  0
 41 13  1  0
 42 13  1  0
 43 15  1  0
 44 15  1  0
 45 16  1  0
 46 16  1  0
 47 19  1  0
 48 20  1  0
 49 21  1  0
 50 26  1  0
 51 26  1  0
 52 27  1  0
 53 27  1  0
 54 28  1  0
 55 30  1  0
M  END
>  <b_m_subgroup_collapsed>  (1142) 
0

>  <r_i_docking_score>  (1142) 
-6.6351033698168003

>  <s_m_subgroup_title>  (1142) 
glide-dock_SP_D22_pv

>  <s_m_subgroupid>  (1142) 
glide-dock_SP_D22_pv

>  <Molecule ChEMBL ID>  (1142) 
CHEMBL161792

>  <Standard Type>  (1142) 
Ki

>  <Standard Value>  (1142) 
7.3

>  <label>  (1142) 
1

$$$$
CHEMBL500627
     RDKit          3D

 43 45  0  0  1  0  0  0  0  0999 V2000
    6.7744    5.8901  -12.6342 C   0  0  0  0  0  0  0  0  0  0  0  0
    8.1989    5.3208  -12.6820 C   0  0  0  0  0  0  0  0  0  0  0  0
    9.2135    6.0759  -11.7959 C   0  0  0  0  0  0  0  0  0  0  0  0
    8.8831    6.1085  -10.3378 N   0  0  1  0  0  0  0  0  0  0  0  0
    8.6858    4.7452   -9.7736 C   0  0  0  0  0  0  0  0  0  0  0  0
    8.4314    4.7817   -8.2615 C   0  0  0  0  0  0  0  0  0  0  0  0
    9.5000    5.4589   -7.6455 O   0  0  0  0  0  0  0  0  0  0  0  0
    9.5002    6.8159   -8.0127 C   0  0  1  0  0  0  0  0  0  0  0  0
   10.4216    7.6357   -7.1283 C   0  0  0  0  0  0  0  0  0  0  0  0
   10.8270    7.2192   -5.8351 C   0  0  0  0  0  0  0  0  0  0  0  0
   11.5544    8.0956   -4.9889 C   0  0  0  0  0  0  0  0  0  0  0  0
   11.9638    7.6760   -3.6043 C   0  0  0  0  0  0  0  0  0  0  0  0
   12.0919    8.6510   -2.7018 N   0  0  0  0  0  0  0  0  0  0  0  0
   12.0905    6.4978   -3.2981 O   0  0  0  0  0  0  0  0  0  0  0  0
   11.8910    9.3773   -5.4675 C   0  0  0  0  0  0  0  0  0  0  0  0
   11.4827    9.7827   -6.7445 C   0  0  0  0  0  0  0  0  0  0  0  0
   10.7721    8.9106   -7.5896 C   0  0  0  0  0  0  0  0  0  0  0  0
   10.2673    9.3723   -8.9447 C   0  0  0  0  0  0  0  0  0  0  0  0
   10.0757    8.3070  -10.0261 C   0  0  0  0  0  0  0  0  0  0  0  0
    9.8771    6.8686   -9.5153 C   0  0  2  0  0  0  0  0  0  0  0  0
    6.1244    5.3711  -13.3393 H   0  0  0  0  0  0  0  0  0  0  0  0
    6.7589    6.9528  -12.8772 H   0  0  0  0  0  0  0  0  0  0  0  0
    6.3343    5.7719  -11.6425 H   0  0  0  0  0  0  0  0  0  0  0  0
    8.1850    4.2570  -12.4433 H   0  0  0  0  0  0  0  0  0  0  0  0
    8.5482    5.3707  -13.7145 H   0  0  0  0  0  0  0  0  0  0  0  0
   10.1983    5.6216  -11.9209 H   0  0  0  0  0  0  0  0  0  0  0  0
    9.2967    7.0867  -12.1936 H   0  0  0  0  0  0  0  0  0  0  0  0
    7.8424    4.2453  -10.2503 H   0  0  0  0  0  0  0  0  0  0  0  0
    9.5797    4.1552   -9.9762 H   0  0  0  0  0  0  0  0  0  0  0  0
    7.5117    5.3034   -8.0060 H   0  0  0  0  0  0  0  0  0  0  0  0
    8.3603    3.7735   -7.8509 H   0  0  0  0  0  0  0  0  0  0  0  0
    8.5080    7.2482   -7.8624 H   0  0  0  0  0  0  0  0  0  0  0  0
   10.5411    6.2421   -5.4718 H   0  0  0  0  0  0  0  0  0  0  0  0
   11.9403    9.6135   -2.9618 H   0  0  0  0  0  0  0  0  0  0  0  0
   12.3140    8.4109   -1.7473 H   0  0  0  0  0  0  0  0  0  0  0  0
   12.4496   10.0724   -4.8594 H   0  0  0  0  0  0  0  0  0  0  0  0
   11.6861   10.7967   -7.0468 H   0  0  0  0  0  0  0  0  0  0  0  0
    9.2751    9.7723   -8.7459 H   0  0  0  0  0  0  0  0  0  0  0  0
   10.8905   10.1722   -9.3461 H   0  0  0  0  0  0  0  0  0  0  0  0
    9.2326    8.6339  -10.6366 H   0  0  0  0  0  0  0  0  0  0  0  0
   10.9447    8.3171  -10.6870 H   0  0  0  0  0  0  0  0  0  0  0  0
   10.8408    6.3639   -9.6109 H   0  0  0  0  0  0  0  0  0  0  0  0
    7.9944    6.6015  -10.2482 H   0  0  0  0  0  0  0  0  0  0  0  0
  2  1  1  0
  3  2  1  0
  4  3  1  0
  5  4  1  0
  6  5  1  0
  7  6  1  0
  8  7  1  0
  9  8  1  0
 10  9  1  0
 11 10  2  0
 12 11  1  0
 13 12  1  0
 14 12  2  0
 15 11  1  0
 16 15  2  0
 17  9  2  0
 17 16  1  0
 18 17  1  0
 19 18  1  0
 20  4  1  0
 20  8  1  0
 20 19  1  0
 21  1  1  0
 22  1  1  0
 23  1  1  0
 24  2  1  0
 25  2  1  0
 26  3  1  0
 27  3  1  0
 28  5  1  0
 29  5  1  0
 30  6  1  0
 31  6  1  0
  8 32  1  6
 33 10  1  0
 34 13  1  0
 35 13  1  0
 36 15  1  0
 37 16  1  0
 38 18  1  0
 39 18  1  0
 40 19  1  0
 41 19  1  0
 20 42  1  1
  4 43  1  6
M  CHG  1   4   1
M  END
>  <b_m_subgroup_collapsed>  (1143) 
0

>  <r_i_docking_score>  (1143) 
-6.63426743073832

>  <s_m_subgroup_title>  (1143) 
glide-dock_SP_D22_pv

>  <s_m_subgroupid>  (1143) 
glide-dock_SP_D22_pv

>  <Molecule ChEMBL ID>  (1143) 
CHEMBL500627

>  <Standard Type>  (1143) 
Ki

>  <Standard Value>  (1143) 
10000.0

>  <label>  (1143) 
0

$$$$
CHEMBL324073
     RDKit          3D

 40 43  0  0  1  0  0  0  0  0999 V2000
    9.3155    6.3774   -9.9496 C   0  0  0  0  0  0  0  0  0  0  0  0
    8.8809    6.9416  -11.2522 N   0  0  1  0  0  0  0  0  0  0  0  0
    9.8172    7.9392  -11.7973 C   0  0  0  0  0  0  0  0  0  0  0  0
   11.1170    7.2424  -12.2100 C   0  0  0  0  0  0  0  0  0  0  0  0
   10.9609    5.9957  -13.0667 C   0  0  0  0  0  0  0  0  0  0  0  0
   12.0191    5.4352  -13.7971 C   0  0  0  0  0  0  0  0  0  0  0  0
   11.8658    4.1749  -14.3781 C   0  0  0  0  0  0  0  0  0  0  0  0
   10.6345    3.5092  -14.2868 C   0  0  0  0  0  0  0  0  0  0  0  0
    9.4630    4.0856  -13.7240 C   0  0  0  0  0  0  0  0  0  0  0  0
    9.7085    5.3187  -13.0480 C   0  0  0  0  0  0  0  0  0  0  0  0
    8.5158    5.9496  -12.3045 C   0  0  1  0  0  0  0  0  0  0  0  0
    7.5070    4.9168  -11.7844 C   0  0  0  0  0  0  0  0  0  0  0  0
    7.1661    3.8449  -12.7915 C   0  0  0  0  0  0  0  0  0  0  0  0
    5.9160    3.2145  -12.6475 C   0  0  0  0  0  0  0  0  0  0  0  0
    5.5936    2.1145  -13.4460 C   0  0  0  0  0  0  0  0  0  0  0  0
    6.4862    1.7026  -14.4431 C   0  0  0  0  0  0  0  0  0  0  0  0
    7.7154    2.3666  -14.6528 C   0  0  0  0  0  0  0  0  0  0  0  0
    8.4879    1.9449  -15.8747 C   0  0  0  0  0  0  0  0  0  0  0  0
    8.6704    0.6321  -16.0296 N   0  0  0  0  0  0  0  0  0  0  0  0
    8.9283    2.7634  -16.6779 O   0  0  0  0  0  0  0  0  0  0  0  0
    8.1187    3.4234  -13.7615 C   0  0  0  0  0  0  0  0  0  0  0  0
   10.0893    5.6184  -10.0706 H   0  0  0  0  0  0  0  0  0  0  0  0
    8.4725    5.9331   -9.4181 H   0  0  0  0  0  0  0  0  0  0  0  0
    9.7078    7.1598   -9.2992 H   0  0  0  0  0  0  0  0  0  0  0  0
    9.3533    8.4369  -12.6468 H   0  0  0  0  0  0  0  0  0  0  0  0
   10.0148    8.7200  -11.0621 H   0  0  0  0  0  0  0  0  0  0  0  0
   11.7807    7.9010  -12.7603 H   0  0  0  0  0  0  0  0  0  0  0  0
   11.6791    6.9728  -11.3169 H   0  0  0  0  0  0  0  0  0  0  0  0
   12.9716    5.9375  -13.8456 H   0  0  0  0  0  0  0  0  0  0  0  0
   12.6986    3.7079  -14.8827 H   0  0  0  0  0  0  0  0  0  0  0  0
   10.6252    2.5166  -14.7001 H   0  0  0  0  0  0  0  0  0  0  0  0
    7.9902    6.5159  -13.0768 H   0  0  0  0  0  0  0  0  0  0  0  0
    7.9032    4.3772  -10.9249 H   0  0  0  0  0  0  0  0  0  0  0  0
    6.5994    5.4238  -11.4472 H   0  0  0  0  0  0  0  0  0  0  0  0
    5.2294    3.5413  -11.8798 H   0  0  0  0  0  0  0  0  0  0  0  0
    4.6473    1.6074  -13.3224 H   0  0  0  0  0  0  0  0  0  0  0  0
    6.1800    0.8970  -15.0949 H   0  0  0  0  0  0  0  0  0  0  0  0
    8.2957   -0.0206  -15.3574 H   0  0  0  0  0  0  0  0  0  0  0  0
    9.1781    0.3005  -16.8348 H   0  0  0  0  0  0  0  0  0  0  0  0
    8.0076    7.4232  -11.0252 H   0  0  0  0  0  0  0  0  0  0  0  0
  2  1  1  0
  3  2  1  0
  4  3  1  0
  5  4  1  0
  6  5  2  0
  7  6  1  0
  8  7  2  0
  9  8  1  0
 10  5  1  0
 10  9  2  0
 11  2  1  0
 11 10  1  0
 12 11  1  0
 13 12  1  0
 14 13  2  0
 15 14  1  0
 16 15  2  0
 17 16  1  0
 18 17  1  0
 19 18  1  0
 20 18  2  0
 21  9  1  0
 21 13  1  0
 21 17  2  0
 22  1  1  0
 23  1  1  0
 24  1  1  0
 25  3  1  0
 26  3  1  0
 27  4  1  0
 28  4  1  0
 29  6  1  0
 30  7  1  0
 31  8  1  0
 11 32  1  6
 33 12  1  0
 34 12  1  0
 35 14  1  0
 36 15  1  0
 37 16  1  0
 38 19  1  0
 39 19  1  0
  2 40  1  1
M  CHG  1   2   1
M  END
>  <b_m_subgroup_collapsed>  (1144) 
0

>  <r_i_docking_score>  (1144) 
-6.6324623420733504

>  <s_m_subgroup_title>  (1144) 
glide-dock_SP_D22_pv

>  <s_m_subgroupid>  (1144) 
glide-dock_SP_D22_pv

>  <Molecule ChEMBL ID>  (1144) 
CHEMBL324073

>  <Standard Type>  (1144) 
Ki

>  <Standard Value>  (1144) 
10000.0

>  <label>  (1144) 
0

$$$$
CHEMBL5416644
     RDKit          3D

 73 76  0  0  1  0  0  0  0  0999 V2000
    5.6860    0.4340  -12.5981 C   0  0  0  0  0  0  0  0  0  0  0  0
    4.8649   -0.1157  -13.6176 O   0  0  0  0  0  0  0  0  0  0  0  0
    5.3960   -0.2173  -14.8855 C   0  0  0  0  0  0  0  0  0  0  0  0
    4.5278   -0.6276  -15.9156 C   0  0  0  0  0  0  0  0  0  0  0  0
    4.9868   -0.7156  -17.2433 C   0  0  0  0  0  0  0  0  0  0  0  0
    6.3235   -0.3983  -17.5505 C   0  0  0  0  0  0  0  0  0  0  0  0
    7.2218    0.0015  -16.5388 C   0  0  0  0  0  0  0  0  0  0  0  0
    8.6396    0.2876  -16.8520 C   0  0  0  0  0  0  0  0  0  0  0  0
    9.4064   -0.7053  -17.5040 C   0  0  0  0  0  0  0  0  0  0  0  0
   10.7673   -0.5082  -17.8006 C   0  0  0  0  0  0  0  0  0  0  0  0
   11.3942    0.6926  -17.4309 C   0  0  0  0  0  0  0  0  0  0  0  0
   10.6482    1.7019  -16.7982 C   0  0  0  0  0  0  0  0  0  0  0  0
    9.2739    1.5185  -16.5317 C   0  0  0  0  0  0  0  0  0  0  0  0
    8.4879    2.7054  -16.0025 C   0  0  0  0  0  0  0  0  0  0  0  0
    8.6327    2.9560  -14.5694 N   0  0  0  0  0  0  0  0  0  0  0  0
    9.1394    4.0759  -14.0355 C   0  0  0  0  0  0  0  0  0  0  0  0
    9.6666    4.9730  -14.6877 O   0  0  0  0  0  0  0  0  0  0  0  0
    8.9978    4.1169  -12.7043 N   0  0  0  0  0  0  0  0  0  0  0  0
    9.5530    5.1403  -11.8262 C   0  0  0  0  0  0  0  0  0  0  0  0
    8.5807    6.3050  -11.5517 C   0  0  0  0  0  0  0  0  0  0  0  0
    9.1799    7.5021  -10.7639 C   0  0  0  0  0  0  0  0  0  0  0  0
    9.2866    7.2588   -9.2980 N   0  0  0  0  0  0  0  0  0  0  0  0
    9.0398    8.4646   -8.4562 C   0  0  0  0  0  0  0  0  0  0  0  0
    8.9816    8.0785   -6.9608 C   0  0  0  0  0  0  0  0  0  0  0  0
   10.1399    7.2673   -6.5831 N   0  0  0  0  0  0  0  0  0  0  0  0
   10.9568    7.5927   -5.4856 C   0  0  0  0  0  0  0  0  0  0  0  0
   11.2849    6.6023   -4.5345 C   0  0  0  0  0  0  0  0  0  0  0  0
   12.0329    6.9041   -3.3837 C   0  0  0  0  0  0  0  0  0  0  0  0
   12.4856    8.2141   -3.1832 C   0  0  0  0  0  0  0  0  0  0  0  0
   12.2160    9.1950   -4.1509 C   0  0  0  0  0  0  0  0  0  0  0  0
   11.4653    8.8975   -5.3208 C   0  0  0  0  0  0  0  0  0  0  0  0
   11.2348    9.7999   -6.3383 O   0  0  0  0  0  0  0  0  0  0  0  0
   11.8112   11.0720   -6.1883 C   0  0  0  0  0  0  0  0  0  0  0  0
   10.5067    6.1560   -7.4375 C   0  0  0  0  0  0  0  0  0  0  0  0
   10.5691    6.6209   -8.8957 C   0  0  0  0  0  0  0  0  0  0  0  0
    6.7445    0.0820  -15.2090 C   0  0  0  0  0  0  0  0  0  0  0  0
    5.1134    0.5550  -11.6790 H   0  0  0  0  0  0  0  0  0  0  0  0
    6.5244   -0.2275  -12.3731 H   0  0  0  0  0  0  0  0  0  0  0  0
    6.0637    1.4210  -12.8756 H   0  0  0  0  0  0  0  0  0  0  0  0
    3.4992   -0.8697  -15.6906 H   0  0  0  0  0  0  0  0  0  0  0  0
    4.3110   -1.0296  -18.0249 H   0  0  0  0  0  0  0  0  0  0  0  0
    6.6645   -0.4776  -18.5723 H   0  0  0  0  0  0  0  0  0  0  0  0
    8.9440   -1.6406  -17.7832 H   0  0  0  0  0  0  0  0  0  0  0  0
   11.3310   -1.2836  -18.2970 H   0  0  0  0  0  0  0  0  0  0  0  0
   12.4428    0.8460  -17.6419 H   0  0  0  0  0  0  0  0  0  0  0  0
   11.1262    2.6374  -16.5487 H   0  0  0  0  0  0  0  0  0  0  0  0
    7.4305    2.5723  -16.2296 H   0  0  0  0  0  0  0  0  0  0  0  0
    8.8168    3.5681  -16.5840 H   0  0  0  0  0  0  0  0  0  0  0  0
    8.2577    2.2557  -13.9520 H   0  0  0  0  0  0  0  0  0  0  0  0
    8.5298    3.3499  -12.2518 H   0  0  0  0  0  0  0  0  0  0  0  0
   10.4871    5.5215  -12.2398 H   0  0  0  0  0  0  0  0  0  0  0  0
    9.7873    4.6149  -10.9028 H   0  0  0  0  0  0  0  0  0  0  0  0
    7.6872    5.9372  -11.0466 H   0  0  0  0  0  0  0  0  0  0  0  0
    8.2351    6.6841  -12.5145 H   0  0  0  0  0  0  0  0  0  0  0  0
    8.5090    8.3472  -10.9289 H   0  0  0  0  0  0  0  0  0  0  0  0
   10.1414    7.8080  -11.1794 H   0  0  0  0  0  0  0  0  0  0  0  0
    8.1165    8.9718   -8.7390 H   0  0  0  0  0  0  0  0  0  0  0  0
    9.8421    9.1850   -8.6214 H   0  0  0  0  0  0  0  0  0  0  0  0
    8.0859    7.4871   -6.7679 H   0  0  0  0  0  0  0  0  0  0  0  0
    8.8954    8.9681   -6.3376 H   0  0  0  0  0  0  0  0  0  0  0  0
   10.8863    5.6129   -4.6473 H   0  0  0  0  0  0  0  0  0  0  0  0
   12.2306    6.1351   -2.6503 H   0  0  0  0  0  0  0  0  0  0  0  0
   13.0497    8.4666   -2.2975 H   0  0  0  0  0  0  0  0  0  0  0  0
   12.6203   10.1723   -3.9599 H   0  0  0  0  0  0  0  0  0  0  0  0
   11.6861   11.7184   -7.0466 H   0  0  0  0  0  0  0  0  0  0  0  0
   11.3225   11.5541   -5.3406 H   0  0  0  0  0  0  0  0  0  0  0  0
   12.8859   10.9722   -6.0357 H   0  0  0  0  0  0  0  0  0  0  0  0
   11.4680    5.7374   -7.1355 H   0  0  0  0  0  0  0  0  0  0  0  0
    9.7563    5.3725   -7.3301 H   0  0  0  0  0  0  0  0  0  0  0  0
   10.8190    5.7716   -9.5166 H   0  0  0  0  0  0  0  0  0  0  0  0
   11.3837    7.3390   -9.0204 H   0  0  0  0  0  0  0  0  0  0  0  0
    7.4476    0.3637  -14.4428 H   0  0  0  0  0  0  0  0  0  0  0  0
    8.5286    6.6307   -9.0689 H   0  0  0  0  0  0  0  0  0  0  0  0
  2  1  1  0
  3  2  1  0
  4  3  1  0
  5  4  2  0
  6  5  1  0
  7  6  2  0
  8  7  1  0
  9  8  2  0
 10  9  1  0
 11 10  2  0
 12 11  1  0
 13  8  1  0
 13 12  2  0
 14 13  1  0
 15 14  1  0
 16 15  1  0
 17 16  2  0
 18 16  1  0
 19 18  1  0
 20 19  1  0
 21 20  1  0
 22 21  1  0
 23 22  1  0
 24 23  1  0
 25 24  1  0
 26 25  1  0
 27 26  2  0
 28 27  1  0
 29 28  2  0
 30 29  1  0
 31 26  1  0
 31 30  2  0
 32 31  1  0
 33 32  1  0
 34 25  1  0
 35 22  1  0
 35 34  1  0
 36  3  2  0
 36  7  1  0
 37  1  1  0
 38  1  1  0
 39  1  1  0
 40  4  1  0
 41  5  1  0
 42  6  1  0
 43  9  1  0
 44 10  1  0
 45 11  1  0
 46 12  1  0
 47 14  1  0
 48 14  1  0
 49 15  1  0
 50 18  1  0
 51 19  1  0
 52 19  1  0
 53 20  1  0
 54 20  1  0
 55 21  1  0
 56 21  1  0
 57 23  1  0
 58 23  1  0
 59 24  1  0
 60 24  1  0
 61 27  1  0
 62 28  1  0
 63 29  1  0
 64 30  1  0
 65 33  1  0
 66 33  1  0
 67 33  1  0
 68 34  1  0
 69 34  1  0
 70 35  1  0
 71 35  1  0
 72 36  1  0
 73 22  1  0
M  CHG  1  22   1
M  END
>  <b_m_subgroup_collapsed>  (1145) 
0

>  <r_i_docking_score>  (1145) 
-6.62125924408255

>  <s_m_subgroup_title>  (1145) 
glide-dock_SP_D22_pv

>  <s_m_subgroupid>  (1145) 
glide-dock_SP_D22_pv

>  <Molecule ChEMBL ID>  (1145) 
CHEMBL5416644

>  <Standard Type>  (1145) 
Ki

>  <Standard Value>  (1145) 
88.0

>  <label>  (1145) 
1

$$$$
CHEMBL3085816
     RDKit          3D

 56 58  0  0  1  0  0  0  0  0999 V2000
   11.7165    6.3601   -3.0604 C   0  0  0  0  0  0  0  0  0  0  0  0
   12.0046    7.7924   -3.1611 N   0  0  0  0  0  0  0  0  0  0  0  0
   12.4886    8.4411   -1.9391 C   0  0  0  0  0  0  0  0  0  0  0  0
   11.6879    8.5517   -4.2342 C   0  0  0  0  0  0  0  0  0  0  0  0
   11.7783    9.7736   -4.2200 O   0  0  0  0  0  0  0  0  0  0  0  0
   11.2855    7.8779   -5.3258 N   0  0  0  0  0  0  0  0  0  0  0  0
   10.9084    8.5029   -6.5936 C   0  0  1  0  0  0  0  0  0  0  0  0
   11.9285    8.1426   -7.6913 C   0  0  0  0  0  0  0  0  0  0  0  0
   11.5140    8.6853   -9.0669 C   0  0  0  0  0  0  0  0  0  0  0  0
   10.0912    8.2670   -9.4716 C   0  0  1  0  0  0  0  0  0  0  0  0
   10.0177    6.7787   -9.8977 C   0  0  0  0  0  0  0  0  0  0  0  0
    8.7253    6.4380  -10.6694 C   0  0  0  0  0  0  0  0  0  0  0  0
    8.8493    5.3119  -11.6290 N   0  0  2  0  0  0  0  0  0  0  0  0
    9.6750    5.6430  -12.8161 C   0  0  0  0  0  0  0  0  0  0  0  0
   10.0204    4.3739  -13.5970 C   0  0  0  0  0  0  0  0  0  0  0  0
    8.7866    3.5434  -13.8869 C   0  0  0  0  0  0  0  0  0  0  0  0
    8.8546    2.5092  -14.8422 C   0  0  0  0  0  0  0  0  0  0  0  0
    7.7354    1.6918  -15.0793 C   0  0  0  0  0  0  0  0  0  0  0  0
    6.5395    1.9191  -14.3726 C   0  0  0  0  0  0  0  0  0  0  0  0
    6.4560    2.9734  -13.4433 C   0  0  0  0  0  0  0  0  0  0  0  0
    7.5858    3.7725  -13.1692 C   0  0  0  0  0  0  0  0  0  0  0  0
    7.5120    4.8227  -12.0631 C   0  0  0  0  0  0  0  0  0  0  0  0
    9.1019    8.6689   -8.3558 C   0  0  0  0  0  0  0  0  0  0  0  0
    9.4853    8.0779   -6.9918 C   0  0  0  0  0  0  0  0  0  0  0  0
   10.6573    6.1722   -3.2499 H   0  0  0  0  0  0  0  0  0  0  0  0
   12.2963    5.7895   -3.7859 H   0  0  0  0  0  0  0  0  0  0  0  0
   11.9402    5.9538   -2.0718 H   0  0  0  0  0  0  0  0  0  0  0  0
   13.2861    9.1481   -2.1636 H   0  0  0  0  0  0  0  0  0  0  0  0
   11.6860    8.9969   -1.4567 H   0  0  0  0  0  0  0  0  0  0  0  0
   12.8856    7.7352   -1.2125 H   0  0  0  0  0  0  0  0  0  0  0  0
   11.2277    6.8724   -5.2646 H   0  0  0  0  0  0  0  0  0  0  0  0
   10.9014    9.5914   -6.5012 H   0  0  0  0  0  0  0  0  0  0  0  0
   12.0573    7.0621   -7.7418 H   0  0  0  0  0  0  0  0  0  0  0  0
   12.8984    8.5710   -7.4471 H   0  0  0  0  0  0  0  0  0  0  0  0
   12.2380    8.3855   -9.8234 H   0  0  0  0  0  0  0  0  0  0  0  0
   11.5569    9.7724   -9.0420 H   0  0  0  0  0  0  0  0  0  0  0  0
    9.8424    8.8590  -10.3534 H   0  0  0  0  0  0  0  0  0  0  0  0
   10.1225    6.1162   -9.0387 H   0  0  0  0  0  0  0  0  0  0  0  0
   10.8895    6.5789  -10.5132 H   0  0  0  0  0  0  0  0  0  0  0  0
    8.3814    7.3099  -11.2283 H   0  0  0  0  0  0  0  0  0  0  0  0
    7.9547    6.1731   -9.9417 H   0  0  0  0  0  0  0  0  0  0  0  0
   10.5953    6.1681  -12.5672 H   0  0  0  0  0  0  0  0  0  0  0  0
    9.0924    6.3081  -13.4467 H   0  0  0  0  0  0  0  0  0  0  0  0
   10.7295    3.7650  -13.0360 H   0  0  0  0  0  0  0  0  0  0  0  0
   10.5097    4.6399  -14.5363 H   0  0  0  0  0  0  0  0  0  0  0  0
    9.7753    2.3244  -15.3790 H   0  0  0  0  0  0  0  0  0  0  0  0
    7.7941    0.8854  -15.7943 H   0  0  0  0  0  0  0  0  0  0  0  0
    5.6862    1.2819  -14.5470 H   0  0  0  0  0  0  0  0  0  0  0  0
    5.5348    3.1300  -12.8995 H   0  0  0  0  0  0  0  0  0  0  0  0
    6.9087    5.6570  -12.4230 H   0  0  0  0  0  0  0  0  0  0  0  0
    6.9895    4.3980  -11.2067 H   0  0  0  0  0  0  0  0  0  0  0  0
    9.0667    9.7605   -8.2777 H   0  0  0  0  0  0  0  0  0  0  0  0
    8.0908    8.3675   -8.6081 H   0  0  0  0  0  0  0  0  0  0  0  0
    9.4007    6.9916   -7.0168 H   0  0  0  0  0  0  0  0  0  0  0  0
    8.7666    8.4178   -6.2469 H   0  0  0  0  0  0  0  0  0  0  0  0
    9.2985    4.5475  -11.1451 H   0  0  0  0  0  0  0  0  0  0  0  0
  2  1  1  0
  3  2  1  0
  4  2  1  0
  5  4  2  0
  6  4  1  0
  7  6  1  0
  8  7  1  0
  9  8  1  0
 10  9  1  0
 11 10  1  0
 12 11  1  0
 13 12  1  0
 14 13  1  0
 15 14  1  0
 16 15  1  0
 17 16  2  0
 18 17  1  0
 19 18  2  0
 20 19  1  0
 21 16  1  0
 21 20  2  0
 22 13  1  0
 22 21  1  0
 23 10  1  0
 24  7  1  0
 24 23  1  0
 25  1  1  0
 26  1  1  0
 27  1  1  0
 28  3  1  0
 29  3  1  0
 30  3  1  0
 31  6  1  0
  7 32  1  1
 33  8  1  0
 34  8  1  0
 35  9  1  0
 36  9  1  0
 10 37  1  6
 38 11  1  0
 39 11  1  0
 40 12  1  0
 41 12  1  0
 42 14  1  0
 43 14  1  0
 44 15  1  0
 45 15  1  0
 46 17  1  0
 47 18  1  0
 48 19  1  0
 49 20  1  0
 50 22  1  0
 51 22  1  0
 52 23  1  0
 53 23  1  0
 54 24  1  0
 55 24  1  0
 13 56  1  1
M  CHG  1  13   1
M  END
>  <b_m_subgroup_collapsed>  (1146) 
0

>  <r_i_docking_score>  (1146) 
-6.6189038390515798

>  <s_m_subgroup_title>  (1146) 
glide-dock_SP_D22_pv

>  <s_m_subgroupid>  (1146) 
glide-dock_SP_D22_pv

>  <Molecule ChEMBL ID>  (1146) 
CHEMBL3085816

>  <Standard Type>  (1146) 
Ki

>  <Standard Value>  (1146) 
13489.63

>  <label>  (1146) 
0

$$$$
CHEMBL603752
     RDKit          3D

 48 51  0  0  1  0  0  0  0  0999 V2000
   11.7774    9.5689   -6.2997 C   0  0  0  0  0  0  0  0  0  0  0  0
   10.9622    9.3665   -7.3480 C   0  0  0  0  0  0  0  0  0  0  0  0
   11.4469    9.1598   -8.7738 C   0  0  0  0  0  0  0  0  0  0  0  0
   10.7684    8.0887   -9.6251 C   0  0  0  0  0  0  0  0  0  0  0  0
    9.5750    7.4667   -9.2073 C   0  0  0  0  0  0  0  0  0  0  0  0
    8.9657    6.5038  -10.0199 C   0  0  0  0  0  0  0  0  0  0  0  0
    9.5102    6.1853  -11.2764 C   0  0  0  0  0  0  0  0  0  0  0  0
   10.6921    6.8033  -11.7410 C   0  0  0  0  0  0  0  0  0  0  0  0
   11.3421    7.7231  -10.8690 C   0  0  0  0  0  0  0  0  0  0  0  0
   12.5773    8.2154  -11.1815 O   0  0  0  0  0  0  0  0  0  0  0  0
   11.2521    6.3527  -13.0488 C   0  0  0  0  0  0  0  0  0  0  0  0
   12.0860    7.1555  -13.8693 C   0  0  0  0  0  0  0  0  0  0  0  0
   12.5930    6.7452  -15.1167 C   0  0  0  0  0  0  0  0  0  0  0  0
   13.3076    7.6788  -15.8338 O   0  0  0  0  0  0  0  0  0  0  0  0
   13.8946    7.2815  -17.0629 C   0  0  0  0  0  0  0  0  0  0  0  0
   12.3274    5.4349  -15.5661 C   0  0  0  0  0  0  0  0  0  0  0  0
   11.5025    4.5863  -14.8138 C   0  0  0  0  0  0  0  0  0  0  0  0
   10.9419    5.0767  -13.6009 C   0  0  0  0  0  0  0  0  0  0  0  0
    9.9385    4.2293  -12.7842 C   0  0  1  0  0  0  0  0  0  0  0  0
    8.8610    5.0981  -12.1057 C   0  0  0  0  0  0  0  0  0  0  0  0
    9.3881    3.0535  -13.5029 N   0  0  1  0  0  0  0  0  0  0  0  0
    8.2368    3.3519  -14.3875 C   0  0  0  0  0  0  0  0  0  0  0  0
   10.4678    2.3149  -14.1827 C   0  0  0  0  0  0  0  0  0  0  0  0
   11.0982    3.1870  -15.2646 C   0  0  0  0  0  0  0  0  0  0  0  0
   12.8560    9.5793   -6.4132 H   0  0  0  0  0  0  0  0  0  0  0  0
   11.3751    9.7286   -5.3100 H   0  0  0  0  0  0  0  0  0  0  0  0
    9.8933    9.3786   -7.1860 H   0  0  0  0  0  0  0  0  0  0  0  0
   11.2866   10.1007   -9.3031 H   0  0  0  0  0  0  0  0  0  0  0  0
   12.5214    8.9728   -8.7419 H   0  0  0  0  0  0  0  0  0  0  0  0
    9.1031    7.7013   -8.2656 H   0  0  0  0  0  0  0  0  0  0  0  0
    8.0613    6.0236   -9.6785 H   0  0  0  0  0  0  0  0  0  0  0  0
   12.8913    8.9020  -10.6057 H   0  0  0  0  0  0  0  0  0  0  0  0
   12.3303    8.1629  -13.5692 H   0  0  0  0  0  0  0  0  0  0  0  0
   14.4491    8.1216  -17.4840 H   0  0  0  0  0  0  0  0  0  0  0  0
   13.1360    6.9871  -17.7895 H   0  0  0  0  0  0  0  0  0  0  0  0
   14.5983    6.4606  -16.9172 H   0  0  0  0  0  0  0  0  0  0  0  0
   12.7115    5.0746  -16.5099 H   0  0  0  0  0  0  0  0  0  0  0  0
   10.4872    3.7861  -11.9608 H   0  0  0  0  0  0  0  0  0  0  0  0
    8.2146    4.4847  -11.4778 H   0  0  0  0  0  0  0  0  0  0  0  0
    8.2245    5.5921  -12.8421 H   0  0  0  0  0  0  0  0  0  0  0  0
    8.4831    4.1852  -15.0466 H   0  0  0  0  0  0  0  0  0  0  0  0
    7.3516    3.6202  -13.8093 H   0  0  0  0  0  0  0  0  0  0  0  0
    7.9727    2.4877  -14.9978 H   0  0  0  0  0  0  0  0  0  0  0  0
   11.2269    2.0315  -13.4488 H   0  0  0  0  0  0  0  0  0  0  0  0
   10.0859    1.3838  -14.6005 H   0  0  0  0  0  0  0  0  0  0  0  0
   10.4177    3.2875  -16.1119 H   0  0  0  0  0  0  0  0  0  0  0  0
   11.9821    2.6792  -15.6535 H   0  0  0  0  0  0  0  0  0  0  0  0
    9.0464    2.4279  -12.7869 H   0  0  0  0  0  0  0  0  0  0  0  0
  2  1  2  0
  3  2  1  0
  4  3  1  0
  5  4  2  0
  6  5  1  0
  7  6  2  0
  8  7  1  0
  9  4  1  0
  9  8  2  0
 10  9  1  0
 11  8  1  0
 12 11  1  0
 13 12  2  0
 14 13  1  0
 15 14  1  0
 16 13  1  0
 17 16  2  0
 18 11  2  0
 18 17  1  0
 19 18  1  0
 20  7  1  0
 20 19  1  0
 21 19  1  0
 22 21  1  0
 23 21  1  0
 24 17  1  0
 24 23  1  0
 25  1  1  0
 26  1  1  0
 27  2  1  0
 28  3  1  0
 29  3  1  0
 30  5  1  0
 31  6  1  0
 32 10  1  0
 33 12  1  0
 34 15  1  0
 35 15  1  0
 36 15  1  0
 37 16  1  0
 19 38  1  1
 39 20  1  0
 40 20  1  0
 41 22  1  0
 42 22  1  0
 43 22  1  0
 44 23  1  0
 45 23  1  0
 46 24  1  0
 47 24  1  0
 21 48  1  1
M  CHG  1  21   1
M  END
>  <b_m_subgroup_collapsed>  (1147) 
0

>  <r_i_docking_score>  (1147) 
-6.6179451759270203

>  <s_m_subgroup_title>  (1147) 
glide-dock_SP_D22_pv

>  <s_m_subgroupid>  (1147) 
glide-dock_SP_D22_pv

>  <Molecule ChEMBL ID>  (1147) 
CHEMBL603752

>  <Standard Type>  (1147) 
Ki

>  <Standard Value>  (1147) 
10000.0

>  <label>  (1147) 
0

$$$$
CHEMBL5827336
     RDKit          3D

 57 61  0  0  1  0  0  0  0  0999 V2000
   10.8848   10.1987   -4.4531 C   0  0  0  0  0  0  0  0  0  0  0  0
   11.3980    8.7848   -4.7583 C   0  0  0  0  0  0  0  0  0  0  0  0
   11.1532    8.3825   -6.1974 C   0  0  0  0  0  0  0  0  0  0  0  0
   10.3265    7.2908   -6.5378 C   0  0  0  0  0  0  0  0  0  0  0  0
   10.2022    6.9427   -7.9003 C   0  0  0  0  0  0  0  0  0  0  0  0
   10.8860    7.7076   -8.8642 C   0  0  0  0  0  0  0  0  0  0  0  0
   11.6865    8.7724   -8.4132 C   0  0  0  0  0  0  0  0  0  0  0  0
   11.8270    9.1035   -7.1147 N   0  0  0  0  0  0  0  0  0  0  0  0
   10.8245    7.3717  -10.3251 C   0  0  0  0  0  0  0  0  0  0  0  0
   11.6084    7.9228  -11.0951 O   0  0  0  0  0  0  0  0  0  0  0  0
    9.9297    6.4259  -10.7179 N   0  0  0  0  0  0  0  0  0  0  0  0
    9.8198    6.0565  -12.1459 C   0  0  0  0  0  0  0  0  0  0  0  0
    9.5219    4.5661  -12.4253 C   0  0  0  0  0  0  0  0  0  0  0  0
    9.7636    4.2461  -13.8346 N   0  0  0  0  0  0  0  0  0  0  0  0
   11.1382    3.7607  -14.0282 C   0  0  0  0  0  0  0  0  0  0  0  0
   11.4318    3.4645  -15.5206 C   0  0  0  0  0  0  0  0  0  0  0  0
   10.4348    2.5546  -16.0770 N   0  0  0  0  0  0  0  0  0  0  0  0
   10.7371    1.3968  -16.8351 C   0  0  0  0  0  0  0  0  0  0  0  0
    9.9578    0.3377  -16.7265 N   0  0  0  0  0  0  0  0  0  0  0  0
   10.4854   -0.8862  -17.7408 S   0  0  0  0  0  0  0  0  0  0  0  0
   11.8576   -0.0012  -18.3658 C   0  0  0  0  0  0  0  0  0  0  0  0
   12.8349   -0.4104  -19.2933 C   0  0  0  0  0  0  0  0  0  0  0  0
   13.8223    0.5013  -19.7040 C   0  0  0  0  0  0  0  0  0  0  0  0
   13.8202    1.8083  -19.1840 C   0  0  0  0  0  0  0  0  0  0  0  0
   12.8488    2.1995  -18.2384 C   0  0  0  0  0  0  0  0  0  0  0  0
   11.8433    1.3054  -17.7845 C   0  0  0  0  0  0  0  0  0  0  0  0
    9.0637    2.9602  -15.8004 C   0  0  0  0  0  0  0  0  0  0  0  0
    8.8544    3.1907  -14.2914 C   0  0  0  0  0  0  0  0  0  0  0  0
    8.9176    5.8806   -9.7942 C   0  0  0  0  0  0  0  0  0  0  0  0
    9.3922    5.7446   -8.3394 C   0  0  0  0  0  0  0  0  0  0  0  0
   11.0635   10.4669   -3.4133 H   0  0  0  0  0  0  0  0  0  0  0  0
   11.3768   10.9439   -5.0780 H   0  0  0  0  0  0  0  0  0  0  0  0
    9.8197   10.2841   -4.6487 H   0  0  0  0  0  0  0  0  0  0  0  0
   10.9268    8.0622   -4.0959 H   0  0  0  0  0  0  0  0  0  0  0  0
   12.4687    8.7323   -4.5595 H   0  0  0  0  0  0  0  0  0  0  0  0
    9.8151    6.7175   -5.7770 H   0  0  0  0  0  0  0  0  0  0  0  0
   12.2532    9.3720   -9.1076 H   0  0  0  0  0  0  0  0  0  0  0  0
    9.0290    6.6642  -12.5826 H   0  0  0  0  0  0  0  0  0  0  0  0
   10.7280    6.3263  -12.6838 H   0  0  0  0  0  0  0  0  0  0  0  0
   10.0880    3.9033  -11.7724 H   0  0  0  0  0  0  0  0  0  0  0  0
    8.4708    4.3884  -12.1983 H   0  0  0  0  0  0  0  0  0  0  0  0
   11.8550    4.4945  -13.6528 H   0  0  0  0  0  0  0  0  0  0  0  0
   11.2856    2.8485  -13.4471 H   0  0  0  0  0  0  0  0  0  0  0  0
   11.4305    4.3909  -16.0980 H   0  0  0  0  0  0  0  0  0  0  0  0
   12.4269    3.0282  -15.6048 H   0  0  0  0  0  0  0  0  0  0  0  0
   12.8195   -1.4146  -19.6942 H   0  0  0  0  0  0  0  0  0  0  0  0
   14.5748    0.2076  -20.4228 H   0  0  0  0  0  0  0  0  0  0  0  0
   14.5691    2.5178  -19.5086 H   0  0  0  0  0  0  0  0  0  0  0  0
   12.8751    3.2087  -17.8594 H   0  0  0  0  0  0  0  0  0  0  0  0
    8.8862    3.8876  -16.3444 H   0  0  0  0  0  0  0  0  0  0  0  0
    8.3436    2.2284  -16.1696 H   0  0  0  0  0  0  0  0  0  0  0  0
    9.0193    2.2696  -13.7286 H   0  0  0  0  0  0  0  0  0  0  0  0
    7.8220    3.4962  -14.1216 H   0  0  0  0  0  0  0  0  0  0  0  0
    8.0860    6.5725   -9.8139 H   0  0  0  0  0  0  0  0  0  0  0  0
    8.5144    4.9205  -10.1114 H   0  0  0  0  0  0  0  0  0  0  0  0
   10.0262    4.8638   -8.2470 H   0  0  0  0  0  0  0  0  0  0  0  0
    8.5371    5.6019   -7.6768 H   0  0  0  0  0  0  0  0  0  0  0  0
  2  1  1  0
  3  2  1  0
  4  3  2  0
  5  4  1  0
  6  5  2  0
  7  6  1  0
  8  3  1  0
  8  7  2  0
  9  6  1  0
 10  9  2  0
 11  9  1  0
 12 11  1  0
 13 12  1  0
 14 13  1  0
 15 14  1  0
 16 15  1  0
 17 16  1  0
 18 17  1  0
 19 18  2  0
 20 19  1  0
 21 20  1  0
 22 21  2  0
 23 22  1  0
 24 23  2  0
 25 24  1  0
 26 18  1  0
 26 21  1  0
 26 25  2  0
 27 17  1  0
 28 14  1  0
 28 27  1  0
 29 11  1  0
 30  5  1  0
 30 29  1  0
 31  1  1  0
 32  1  1  0
 33  1  1  0
 34  2  1  0
 35  2  1  0
 36  4  1  0
 37  7  1  0
 38 12  1  0
 39 12  1  0
 40 13  1  0
 41 13  1  0
 42 15  1  0
 43 15  1  0
 44 16  1  0
 45 16  1  0
 46 22  1  0
 47 23  1  0
 48 24  1  0
 49 25  1  0
 50 27  1  0
 51 27  1  0
 52 28  1  0
 53 28  1  0
 54 29  1  0
 55 29  1  0
 56 30  1  0
 57 30  1  0
M  END
>  <b_m_subgroup_collapsed>  (1148) 
0

>  <r_i_docking_score>  (1148) 
-6.6156037603043396

>  <s_m_subgroup_title>  (1148) 
glide-dock_SP_D22_pv

>  <s_m_subgroupid>  (1148) 
glide-dock_SP_D22_pv

>  <Molecule ChEMBL ID>  (1148) 
CHEMBL5827336

>  <Standard Type>  (1148) 
Ki

>  <Standard Value>  (1148) 
93.0

>  <label>  (1148) 
1

$$$$
CHEMBL595608
     RDKit          3D

 48 51  0  0  1  0  0  0  0  0999 V2000
    5.3112    3.5393  -12.4140 C   0  0  0  0  0  0  0  0  0  0  0  0
    6.4877    3.3768  -13.2492 N   0  0  0  0  0  0  0  0  0  0  0  0
    7.5217    4.2418  -13.4238 C   0  0  0  0  0  0  0  0  0  0  0  0
    7.5923    5.6018  -12.7847 C   0  0  0  0  0  0  0  0  0  0  0  0
    8.7414    5.7644  -11.8962 N   0  0  0  0  0  0  0  0  0  0  0  0
    9.0201    7.1891  -11.7035 C   0  0  0  0  0  0  0  0  0  0  0  0
   10.2839    7.3771  -10.8552 C   0  0  0  0  0  0  0  0  0  0  0  0
   10.1053    6.7107   -9.5745 N   0  0  0  0  0  0  0  0  0  0  0  0
   10.5248    7.3205   -8.3774 C   0  0  0  0  0  0  0  0  0  0  0  0
    9.9299    6.9699   -7.1469 C   0  0  0  0  0  0  0  0  0  0  0  0
   10.3253    7.6011   -5.9591 C   0  0  0  0  0  0  0  0  0  0  0  0
   11.2875    8.6268   -5.9725 C   0  0  0  0  0  0  0  0  0  0  0  0
   11.6572    9.3847   -4.7100 C   0  0  0  0  0  0  0  0  0  0  0  0
   11.4807    8.6416   -3.6198 F   0  0  0  0  0  0  0  0  0  0  0  0
   12.9318    9.7692   -4.7454 F   0  0  0  0  0  0  0  0  0  0  0  0
   10.8861   10.4696   -4.6378 F   0  0  0  0  0  0  0  0  0  0  0  0
   11.8961    8.9715   -7.1925 C   0  0  0  0  0  0  0  0  0  0  0  0
   11.5301    8.3188   -8.3827 C   0  0  0  0  0  0  0  0  0  0  0  0
    9.6479    5.3246   -9.6431 C   0  0  0  0  0  0  0  0  0  0  0  0
    8.4243    5.2127  -10.5734 C   0  0  0  0  0  0  0  0  0  0  0  0
    8.4881    3.8227  -14.2436 N   0  0  0  0  0  0  0  0  0  0  0  0
    8.0543    2.5705  -14.6186 C   0  0  0  0  0  0  0  0  0  0  0  0
    8.6536    1.6130  -15.4657 C   0  0  0  0  0  0  0  0  0  0  0  0
    8.0174    0.3753  -15.6994 C   0  0  0  0  0  0  0  0  0  0  0  0
    6.7812    0.0792  -15.0903 C   0  0  0  0  0  0  0  0  0  0  0  0
    6.1661    1.0221  -14.2437 C   0  0  0  0  0  0  0  0  0  0  0  0
    6.8022    2.2585  -14.0164 C   0  0  0  0  0  0  0  0  0  0  0  0
    4.5485    2.8077  -12.6749 H   0  0  0  0  0  0  0  0  0  0  0  0
    5.5867    3.3786  -11.3738 H   0  0  0  0  0  0  0  0  0  0  0  0
    4.8867    4.5344  -12.5393 H   0  0  0  0  0  0  0  0  0  0  0  0
    6.6643    5.8485  -12.2663 H   0  0  0  0  0  0  0  0  0  0  0  0
    7.6861    6.3232  -13.5960 H   0  0  0  0  0  0  0  0  0  0  0  0
    8.1699    7.6927  -11.2554 H   0  0  0  0  0  0  0  0  0  0  0  0
    9.1840    7.6845  -12.6471 H   0  0  0  0  0  0  0  0  0  0  0  0
   10.4405    8.4459  -10.7286 H   0  0  0  0  0  0  0  0  0  0  0  0
   11.1605    6.9739  -11.3601 H   0  0  0  0  0  0  0  0  0  0  0  0
    9.1450    6.2324   -7.0944 H   0  0  0  0  0  0  0  0  0  0  0  0
    9.8430    7.3029   -5.0472 H   0  0  0  0  0  0  0  0  0  0  0  0
   12.6532    9.7428   -7.2086 H   0  0  0  0  0  0  0  0  0  0  0  0
   12.0325    8.6070   -9.2928 H   0  0  0  0  0  0  0  0  0  0  0  0
   10.4549    4.7074  -10.0291 H   0  0  0  0  0  0  0  0  0  0  0  0
    9.4048    4.9060   -8.6700 H   0  0  0  0  0  0  0  0  0  0  0  0
    7.5915    5.7687  -10.1380 H   0  0  0  0  0  0  0  0  0  0  0  0
    8.1163    4.1731  -10.6583 H   0  0  0  0  0  0  0  0  0  0  0  0
    9.6073    1.8333  -15.9249 H   0  0  0  0  0  0  0  0  0  0  0  0
    8.4871   -0.3587  -16.3394 H   0  0  0  0  0  0  0  0  0  0  0  0
    6.3163   -0.8811  -15.2672 H   0  0  0  0  0  0  0  0  0  0  0  0
    5.2231    0.7952  -13.7731 H   0  0  0  0  0  0  0  0  0  0  0  0
  2  1  1  0
  3  2  1  0
  4  3  1  0
  5  4  1  0
  6  5  1  0
  7  6  1  0
  8  7  1  0
  9  8  1  0
 10  9  1  0
 11 10  2  0
 12 11  1  0
 13 12  1  0
 14 13  1  0
 15 13  1  0
 16 13  1  0
 17 12  2  0
 18  9  2  0
 18 17  1  0
 19  8  1  0
 20  5  1  0
 20 19  1  0
 21  3  2  0
 22 21  1  0
 23 22  2  0
 24 23  1  0
 25 24  2  0
 26 25  1  0
 27  2  1  0
 27 22  1  0
 27 26  2  0
 28  1  1  0
 29  1  1  0
 30  1  1  0
 31  4  1  0
 32  4  1  0
 33  6  1  0
 34  6  1  0
 35  7  1  0
 36  7  1  0
 37 10  1  0
 38 11  1  0
 39 17  1  0
 40 18  1  0
 41 19  1  0
 42 19  1  0
 43 20  1  0
 44 20  1  0
 45 23  1  0
 46 24  1  0
 47 25  1  0
 48 26  1  0
M  END
>  <b_m_subgroup_collapsed>  (1149) 
0

>  <r_i_docking_score>  (1149) 
-6.6133157971077798

>  <s_m_subgroup_title>  (1149) 
glide-dock_SP_D22_pv

>  <s_m_subgroupid>  (1149) 
glide-dock_SP_D22_pv

>  <Molecule ChEMBL ID>  (1149) 
CHEMBL595608

>  <Standard Type>  (1149) 
Ki

>  <Standard Value>  (1149) 
10000.0

>  <label>  (1149) 
0

$$$$
CHEMBL2159475
     RDKit          3D

 44 46  0  0  1  0  0  0  0  0999 V2000
   11.3014   10.7806   -6.5916 O   0  0  0  0  0  0  0  0  0  0  0  0
   11.4223    9.3449   -6.8612 S   0  0  0  0  0  0  0  0  0  0  0  0
   12.4827    8.8088   -7.7234 O   0  0  0  0  0  0  0  0  0  0  0  0
    9.9256    8.7761   -7.4522 N   0  0  0  0  0  0  0  0  0  0  0  0
    9.8883    7.4073   -7.9437 C   0  0  1  0  0  0  0  0  0  0  0  0
    8.9119    6.5662   -7.1473 C   0  0  0  0  0  0  0  0  0  0  0  0
    8.5729    5.4845   -8.1620 C   0  0  0  0  0  0  0  0  0  0  0  0
    8.4903    6.1715   -9.4701 N   0  0  2  0  0  0  0  0  0  0  0  0
    8.7525    5.2730  -10.6184 C   0  0  0  0  0  0  0  0  0  0  0  0
    8.4271    5.9173  -11.9771 C   0  0  0  0  0  0  0  0  0  0  0  0
    9.0210    5.1430  -13.0167 O   0  0  0  0  0  0  0  0  0  0  0  0
   10.2712    5.4723  -13.5165 C   0  0  0  0  0  0  0  0  0  0  0  0
   11.0852    6.5367  -13.0402 C   0  0  0  0  0  0  0  0  0  0  0  0
   12.2968    6.8689  -13.6832 C   0  0  0  0  0  0  0  0  0  0  0  0
   13.2692    8.1722  -13.1043 Cl  0  0  0  0  0  0  0  0  0  0  0  0
   12.7246    6.1182  -14.7939 C   0  0  0  0  0  0  0  0  0  0  0  0
   11.9522    5.0371  -15.2515 C   0  0  0  0  0  0  0  0  0  0  0  0
   10.7332    4.7189  -14.6203 C   0  0  0  0  0  0  0  0  0  0  0  0
    9.7920    3.4060  -15.2269 Cl  0  0  0  0  0  0  0  0  0  0  0  0
    9.4142    7.3280   -9.3942 C   0  0  0  0  0  0  0  0  0  0  0  0
   11.5908    8.5719   -5.2885 C   0  0  0  0  0  0  0  0  0  0  0  0
   11.6848    7.2380   -4.9746 C   0  0  0  0  0  0  0  0  0  0  0  0
   12.0481    7.0348   -3.6128 C   0  0  0  0  0  0  0  0  0  0  0  0
   12.1815    8.2297   -2.9651 C   0  0  0  0  0  0  0  0  0  0  0  0
   12.8217    8.5724   -1.4464 Cl  0  0  0  0  0  0  0  0  0  0  0  0
   11.7142    9.5926   -3.8989 S   0  0  0  0  0  0  0  0  0  0  0  0
    9.5015    9.4402   -8.0998 H   0  0  0  0  0  0  0  0  0  0  0  0
   10.8713    6.9388   -7.8764 H   0  0  0  0  0  0  0  0  0  0  0  0
    9.3375    6.1821   -6.2220 H   0  0  0  0  0  0  0  0  0  0  0  0
    8.0313    7.1490   -6.8825 H   0  0  0  0  0  0  0  0  0  0  0  0
    9.3819    4.7517   -8.1856 H   0  0  0  0  0  0  0  0  0  0  0  0
    7.6795    4.9380   -7.9007 H   0  0  0  0  0  0  0  0  0  0  0  0
    9.7961    4.9552  -10.5895 H   0  0  0  0  0  0  0  0  0  0  0  0
    8.1525    4.3668  -10.5114 H   0  0  0  0  0  0  0  0  0  0  0  0
    7.3472    5.9016  -12.1246 H   0  0  0  0  0  0  0  0  0  0  0  0
    8.6983    6.9708  -12.0309 H   0  0  0  0  0  0  0  0  0  0  0  0
   10.7979    7.1432  -12.1984 H   0  0  0  0  0  0  0  0  0  0  0  0
   13.6581    6.3623  -15.2817 H   0  0  0  0  0  0  0  0  0  0  0  0
   12.2896    4.4568  -16.0989 H   0  0  0  0  0  0  0  0  0  0  0  0
    8.8823    8.2256   -9.7072 H   0  0  0  0  0  0  0  0  0  0  0  0
   10.2774    7.2135  -10.0467 H   0  0  0  0  0  0  0  0  0  0  0  0
   11.6072    6.4204   -5.6738 H   0  0  0  0  0  0  0  0  0  0  0  0
   12.2532    6.0617   -3.1912 H   0  0  0  0  0  0  0  0  0  0  0  0
    7.5570    6.5823   -9.5605 H   0  0  0  0  0  0  0  0  0  0  0  0
  2  1  2  0
  3  2  2  0
  4  2  1  0
  5  4  1  0
  6  5  1  0
  7  6  1  0
  8  7  1  0
  9  8  1  0
 10  9  1  0
 11 10  1  0
 12 11  1  0
 13 12  1  0
 14 13  2  0
 15 14  1  0
 16 14  1  0
 17 16  2  0
 18 12  2  0
 18 17  1  0
 19 18  1  0
 20  5  1  0
 20  8  1  0
 21  2  1  0
 22 21  2  0
 23 22  1  0
 24 23  2  0
 25 24  1  0
 26 21  1  0
 26 24  1  0
 27  4  1  0
  5 28  1  6
 29  6  1  0
 30  6  1  0
 31  7  1  0
 32  7  1  0
 33  9  1  0
 34  9  1  0
 35 10  1  0
 36 10  1  0
 37 13  1  0
 38 16  1  0
 39 17  1  0
 40 20  1  0
 41 20  1  0
 42 22  1  0
 43 23  1  0
  8 44  1  6
M  CHG  1   8   1
M  END
>  <b_m_subgroup_collapsed>  (1150) 
0

>  <r_i_docking_score>  (1150) 
-6.6112357302396596

>  <s_m_subgroup_title>  (1150) 
glide-dock_SP_D22_pv

>  <s_m_subgroupid>  (1150) 
glide-dock_SP_D22_pv

>  <Molecule ChEMBL ID>  (1150) 
CHEMBL2159475

>  <Standard Type>  (1150) 
Ki

>  <Standard Value>  (1150) 
78.0

>  <label>  (1150) 
1

$$$$
CHEMBL46519
     RDKit          3D

 39 40  0  0  1  0  0  0  0  0999 V2000
   12.8235    8.9713   -1.4469 N   0  0  0  0  0  0  0  0  0  0  0  0
   12.3950    8.7469   -2.4897 C   0  0  0  0  0  0  0  0  0  0  0  0
   11.8692    8.4537   -3.8006 C   0  0  0  0  0  0  0  0  0  0  0  0
   11.6860    7.1098   -4.1673 C   0  0  0  0  0  0  0  0  0  0  0  0
   11.3122    6.8033   -5.4817 C   0  0  0  0  0  0  0  0  0  0  0  0
   11.1541    7.8217   -6.4349 C   0  0  0  0  0  0  0  0  0  0  0  0
   10.9867    7.4007   -7.7218 O   0  0  0  0  0  0  0  0  0  0  0  0
   10.4140    8.2858   -8.6577 C   0  0  0  0  0  0  0  0  0  0  0  0
   10.0560    7.3884   -9.8438 C   0  0  1  0  0  0  0  0  0  0  0  0
    9.1792    6.2019   -9.3857 C   0  0  0  0  0  0  0  0  0  0  0  0
    8.7400    5.3363  -10.5634 C   0  0  0  0  0  0  0  0  0  0  0  0
    8.0332    6.1687  -11.5605 N   0  0  2  0  0  0  0  0  0  0  0  0
    7.3830    5.3732  -12.6279 C   0  0  0  0  0  0  0  0  0  0  0  0
    6.0848    4.7022  -12.1577 C   0  0  0  0  0  0  0  0  0  0  0  0
    5.4487    4.1694  -13.1997 F   0  0  0  0  0  0  0  0  0  0  0  0
    8.8871    7.2603  -12.0868 C   0  0  0  0  0  0  0  0  0  0  0  0
    9.3488    8.1827  -10.9508 C   0  0  0  0  0  0  0  0  0  0  0  0
   11.2455    9.1766   -6.0426 C   0  0  0  0  0  0  0  0  0  0  0  0
   11.5932    9.4897   -4.7157 C   0  0  0  0  0  0  0  0  0  0  0  0
   11.8740    6.3096   -3.4644 H   0  0  0  0  0  0  0  0  0  0  0  0
   11.2291    5.7726   -5.7852 H   0  0  0  0  0  0  0  0  0  0  0  0
    9.5210    8.7644   -8.2503 H   0  0  0  0  0  0  0  0  0  0  0  0
   11.1250    9.0601   -8.9500 H   0  0  0  0  0  0  0  0  0  0  0  0
   10.9828    6.9837  -10.2540 H   0  0  0  0  0  0  0  0  0  0  0  0
    9.7152    5.5687   -8.6775 H   0  0  0  0  0  0  0  0  0  0  0  0
    8.3010    6.5715   -8.8554 H   0  0  0  0  0  0  0  0  0  0  0  0
    8.0868    4.5478  -10.1916 H   0  0  0  0  0  0  0  0  0  0  0  0
    9.6004    4.8474  -11.0236 H   0  0  0  0  0  0  0  0  0  0  0  0
    7.1325    6.0401  -13.4462 H   0  0  0  0  0  0  0  0  0  0  0  0
    8.0785    4.6378  -13.0340 H   0  0  0  0  0  0  0  0  0  0  0  0
    6.2678    3.8918  -11.4534 H   0  0  0  0  0  0  0  0  0  0  0  0
    5.4058    5.4173  -11.6910 H   0  0  0  0  0  0  0  0  0  0  0  0
    8.3142    7.8577  -12.7963 H   0  0  0  0  0  0  0  0  0  0  0  0
    9.7423    6.8427  -12.6203 H   0  0  0  0  0  0  0  0  0  0  0  0
    8.4878    8.7108  -10.5380 H   0  0  0  0  0  0  0  0  0  0  0  0
   10.0147    8.9501  -11.3448 H   0  0  0  0  0  0  0  0  0  0  0  0
   11.1062    9.9783   -6.7520 H   0  0  0  0  0  0  0  0  0  0  0  0
   11.6856   10.5241   -4.4215 H   0  0  0  0  0  0  0  0  0  0  0  0
    7.2953    6.6680  -11.0545 H   0  0  0  0  0  0  0  0  0  0  0  0
  2  1  3  0
  3  2  1  0
  4  3  1  0
  5  4  2  0
  6  5  1  0
  7  6  1  0
  8  7  1  0
  9  8  1  0
 10  9  1  0
 11 10  1  0
 12 11  1  0
 13 12  1  0
 14 13  1  0
 15 14  1  0
 16 12  1  0
 17  9  1  0
 17 16  1  0
 18  6  2  0
 19  3  2  0
 19 18  1  0
 20  4  1  0
 21  5  1  0
 22  8  1  0
 23  8  1  0
  9 24  1  6
 25 10  1  0
 26 10  1  0
 27 11  1  0
 28 11  1  0
 29 13  1  0
 30 13  1  0
 31 14  1  0
 32 14  1  0
 33 16  1  0
 34 16  1  0
 35 17  1  0
 36 17  1  0
 37 18  1  0
 38 19  1  0
 12 39  1  1
M  CHG  1  12   1
M  END
>  <b_m_subgroup_collapsed>  (1151) 
0

>  <r_i_docking_score>  (1151) 
-6.6110148849108104

>  <s_m_subgroup_title>  (1151) 
glide-dock_SP_D22_pv

>  <s_m_subgroupid>  (1151) 
glide-dock_SP_D22_pv

>  <Molecule ChEMBL ID>  (1151) 
CHEMBL46519

>  <Standard Type>  (1151) 
Ki

>  <Standard Value>  (1151) 
10000.0

>  <label>  (1151) 
0

$$$$
CHEMBL4437202
     RDKit          3D

 52 55  0  0  1  0  0  0  0  0999 V2000
   11.2861   10.1438   -6.6474 O   0  0  0  0  0  0  0  0  0  0  0  0
   10.8426    9.0574   -6.2725 C   0  0  0  0  0  0  0  0  0  0  0  0
   11.3241    8.5684   -4.9309 C   0  0  0  0  0  0  0  0  0  0  0  0
   11.5609    9.5200   -3.9085 C   0  0  0  0  0  0  0  0  0  0  0  0
   12.0799    9.1270   -2.6612 C   0  0  0  0  0  0  0  0  0  0  0  0
   12.3216    7.7686   -2.4045 C   0  0  0  0  0  0  0  0  0  0  0  0
   12.0918    6.8134   -3.4075 C   0  0  0  0  0  0  0  0  0  0  0  0
   11.6532    7.2147   -4.6804 C   0  0  0  0  0  0  0  0  0  0  0  0
    9.9017    8.3704   -6.9809 N   0  0  0  0  0  0  0  0  0  0  0  0
    9.4024    8.8303   -8.2889 C   0  0  0  0  0  0  0  0  0  0  0  0
    9.7031    7.7763   -9.3760 C   0  0  0  0  0  0  0  0  0  0  0  0
    9.2303    6.4339   -9.0271 N   0  0  0  0  0  0  0  0  0  0  0  0
    9.5599    5.4529  -10.0572 C   0  0  0  0  0  0  0  0  0  0  0  0
    8.4687    5.2805  -11.1322 C   0  0  0  0  0  0  0  0  0  0  0  0
    8.9396    5.0555  -12.5059 N   0  0  0  0  0  0  0  0  0  0  0  0
    9.9049    3.9501  -12.6191 C   0  0  0  0  0  0  0  0  0  0  0  0
   10.1882    3.4035  -14.0259 C   0  0  0  0  0  0  0  0  0  0  0  0
    9.1144    2.4533  -14.4675 C   0  0  0  0  0  0  0  0  0  0  0  0
    9.4725    1.2664  -15.1177 N   0  0  0  0  0  0  0  0  0  0  0  0
    8.4094    0.5097  -15.3882 C   0  0  0  0  0  0  0  0  0  0  0  0
    6.8861    1.1991  -14.8611 S   0  0  0  0  0  0  0  0  0  0  0  0
    7.7609    2.5784  -14.2469 C   0  0  0  0  0  0  0  0  0  0  0  0
    7.0319    3.6949  -13.5627 C   0  0  0  0  0  0  0  0  0  0  0  0
    7.8244    5.0131  -13.4604 C   0  0  0  0  0  0  0  0  0  0  0  0
    9.6969    6.0563   -7.6981 C   0  0  0  0  0  0  0  0  0  0  0  0
    9.2517    7.0946   -6.6479 C   0  0  0  0  0  0  0  0  0  0  0  0
   11.3483   10.5681   -4.0784 H   0  0  0  0  0  0  0  0  0  0  0  0
   12.2642    9.8618   -1.8918 H   0  0  0  0  0  0  0  0  0  0  0  0
   12.7035    7.4570   -1.4460 H   0  0  0  0  0  0  0  0  0  0  0  0
   12.3058    5.7725   -3.2140 H   0  0  0  0  0  0  0  0  0  0  0  0
   11.5637    6.4682   -5.4541 H   0  0  0  0  0  0  0  0  0  0  0  0
    9.8429    9.7721   -8.6038 H   0  0  0  0  0  0  0  0  0  0  0  0
    8.3289    9.0101   -8.2211 H   0  0  0  0  0  0  0  0  0  0  0  0
   10.7799    7.7553   -9.5508 H   0  0  0  0  0  0  0  0  0  0  0  0
    9.2432    8.0906  -10.3133 H   0  0  0  0  0  0  0  0  0  0  0  0
    9.7527    4.4755   -9.6129 H   0  0  0  0  0  0  0  0  0  0  0  0
   10.4860    5.7590  -10.5369 H   0  0  0  0  0  0  0  0  0  0  0  0
    7.8406    6.1731  -11.1287 H   0  0  0  0  0  0  0  0  0  0  0  0
    7.8045    4.4715  -10.8235 H   0  0  0  0  0  0  0  0  0  0  0  0
   10.8588    4.3166  -12.2466 H   0  0  0  0  0  0  0  0  0  0  0  0
    9.6264    3.1234  -11.9649 H   0  0  0  0  0  0  0  0  0  0  0  0
   11.1487    2.8854  -14.0077 H   0  0  0  0  0  0  0  0  0  0  0  0
   10.3047    4.2197  -14.7392 H   0  0  0  0  0  0  0  0  0  0  0  0
    8.5177   -0.4447  -15.8823 H   0  0  0  0  0  0  0  0  0  0  0  0
    6.1137    3.8965  -14.1159 H   0  0  0  0  0  0  0  0  0  0  0  0
    6.7104    3.3727  -12.5732 H   0  0  0  0  0  0  0  0  0  0  0  0
    8.1907    5.2781  -14.4519 H   0  0  0  0  0  0  0  0  0  0  0  0
    7.1249    5.8087  -13.2042 H   0  0  0  0  0  0  0  0  0  0  0  0
    9.2775    5.0829   -7.4469 H   0  0  0  0  0  0  0  0  0  0  0  0
   10.7822    5.9445   -7.6933 H   0  0  0  0  0  0  0  0  0  0  0  0
    9.4154    6.7410   -5.6356 H   0  0  0  0  0  0  0  0  0  0  0  0
    8.1679    7.2269   -6.7018 H   0  0  0  0  0  0  0  0  0  0  0  0
  2  1  2  0
  3  2  1  0
  4  3  2  0
  5  4  1  0
  6  5  2  0
  7  6  1  0
  8  3  1  0
  8  7  2  0
  9  2  1  0
 10  9  1  0
 11 10  1  0
 12 11  1  0
 13 12  1  0
 14 13  1  0
 15 14  1  0
 16 15  1  0
 17 16  1  0
 18 17  1  0
 19 18  1  0
 20 19  2  0
 21 20  1  0
 22 18  2  0
 22 21  1  0
 23 22  1  0
 24 15  1  0
 24 23  1  0
 25 12  1  0
 26  9  1  0
 26 25  1  0
 27  4  1  0
 28  5  1  0
 29  6  1  0
 30  7  1  0
 31  8  1  0
 32 10  1  0
 33 10  1  0
 34 11  1  0
 35 11  1  0
 36 13  1  0
 37 13  1  0
 38 14  1  0
 39 14  1  0
 40 16  1  0
 41 16  1  0
 42 17  1  0
 43 17  1  0
 44 20  1  0
 45 23  1  0
 46 23  1  0
 47 24  1  0
 48 24  1  0
 49 25  1  0
 50 25  1  0
 51 26  1  0
 52 26  1  0
M  END
>  <b_m_subgroup_collapsed>  (1152) 
0

>  <r_i_docking_score>  (1152) 
-6.6101175855597898

>  <s_m_subgroup_title>  (1152) 
glide-dock_SP_D22_pv

>  <s_m_subgroupid>  (1152) 
glide-dock_SP_D22_pv

>  <Molecule ChEMBL ID>  (1152) 
CHEMBL4437202

>  <Standard Type>  (1152) 
Ki

>  <Standard Value>  (1152) 
41686.94

>  <label>  (1152) 
0

$$$$
CHEMBL3764833
     RDKit          3D

 53 56  0  0  1  0  0  0  0  0999 V2000
   14.3045    6.5685  -16.3167 C   0  0  0  0  0  0  0  0  0  0  0  0
   13.8094    5.2936  -16.9271 C   0  0  0  0  0  0  0  0  0  0  0  0
   14.4078    4.7388  -18.0502 N   0  0  0  0  0  0  0  0  0  0  0  0
   13.6881    3.6484  -18.3035 C   0  0  0  0  0  0  0  0  0  0  0  0
   12.6635    3.4467  -17.4354 O   0  0  0  0  0  0  0  0  0  0  0  0
   12.7570    4.4928  -16.5549 C   0  0  0  0  0  0  0  0  0  0  0  0
   11.7888    4.5828  -15.4666 C   0  0  0  0  0  0  0  0  0  0  0  0
   12.0927    5.1571  -14.2999 N   0  0  0  0  0  0  0  0  0  0  0  0
   10.9602    5.0757  -13.5308 N   0  0  0  0  0  0  0  0  0  0  0  0
   10.0413    4.4821  -14.2961 C   0  0  0  0  0  0  0  0  0  0  0  0
    8.3678    4.1770  -13.7986 S   0  0  0  0  0  0  0  0  0  0  0  0
    8.5298    4.2896  -11.9912 C   0  0  0  0  0  0  0  0  0  0  0  0
    8.6016    5.7345  -11.4674 C   0  0  0  0  0  0  0  0  0  0  0  0
    9.2308    5.7767  -10.0635 C   0  0  0  0  0  0  0  0  0  0  0  0
    9.6547    7.0906   -9.5806 N   0  0  0  0  0  0  0  0  0  0  0  0
   10.7550    7.6632  -10.3581 C   0  0  0  0  0  0  0  0  0  0  0  0
   11.2281    9.0091   -9.7866 C   0  0  0  0  0  0  0  0  0  0  0  0
   11.6004    8.8414   -8.4271 O   0  0  0  0  0  0  0  0  0  0  0  0
   10.5273    8.3607   -7.6231 C   0  0  2  0  0  0  0  0  0  0  0  0
   10.9519    8.3475   -6.1646 C   0  0  0  0  0  0  0  0  0  0  0  0
   11.2857    7.1562   -5.4747 C   0  0  0  0  0  0  0  0  0  0  0  0
   11.7302    7.2116   -4.1408 C   0  0  0  0  0  0  0  0  0  0  0  0
   11.8510    8.4569   -3.4995 C   0  0  0  0  0  0  0  0  0  0  0  0
   12.4862    8.5723   -1.7211 Br  0  0  0  0  0  0  0  0  0  0  0  0
   11.4954    9.6357   -4.1696 C   0  0  0  0  0  0  0  0  0  0  0  0
   11.0544    9.5860   -5.5008 C   0  0  0  0  0  0  0  0  0  0  0  0
   10.0554    7.0017   -8.1813 C   0  0  0  0  0  0  0  0  0  0  0  0
   10.5109    4.1422  -15.5157 N   0  0  0  0  0  0  0  0  0  0  0  0
    9.8250    3.4886  -16.6212 C   0  0  0  0  0  0  0  0  0  0  0  0
   13.5407    7.3470  -16.3575 H   0  0  0  0  0  0  0  0  0  0  0  0
   14.5686    6.4254  -15.2695 H   0  0  0  0  0  0  0  0  0  0  0  0
   15.1867    6.9471  -16.8343 H   0  0  0  0  0  0  0  0  0  0  0  0
   13.8728    2.9716  -19.1235 H   0  0  0  0  0  0  0  0  0  0  0  0
    7.6825    3.7842  -11.5262 H   0  0  0  0  0  0  0  0  0  0  0  0
    9.4204    3.7315  -11.7039 H   0  0  0  0  0  0  0  0  0  0  0  0
    9.1723    6.3453  -12.1603 H   0  0  0  0  0  0  0  0  0  0  0  0
    7.6025    6.1719  -11.4460 H   0  0  0  0  0  0  0  0  0  0  0  0
    8.4983    5.3603   -9.3699 H   0  0  0  0  0  0  0  0  0  0  0  0
   10.0862    5.0996  -10.0336 H   0  0  0  0  0  0  0  0  0  0  0  0
   11.5980    6.9727  -10.3803 H   0  0  0  0  0  0  0  0  0  0  0  0
   10.4556    7.8261  -11.3923 H   0  0  0  0  0  0  0  0  0  0  0  0
   12.0861    9.3734  -10.3509 H   0  0  0  0  0  0  0  0  0  0  0  0
   10.4474    9.7692   -9.8468 H   0  0  0  0  0  0  0  0  0  0  0  0
    9.6970    9.0646   -7.7003 H   0  0  0  0  0  0  0  0  0  0  0  0
   11.2209    6.1887   -5.9517 H   0  0  0  0  0  0  0  0  0  0  0  0
   11.9890    6.3012   -3.6175 H   0  0  0  0  0  0  0  0  0  0  0  0
   11.5732   10.5725   -3.6479 H   0  0  0  0  0  0  0  0  0  0  0  0
   10.8077   10.5010   -6.0203 H   0  0  0  0  0  0  0  0  0  0  0  0
    9.2168    6.6375   -7.5845 H   0  0  0  0  0  0  0  0  0  0  0  0
   10.8572    6.2677   -8.0893 H   0  0  0  0  0  0  0  0  0  0  0  0
    8.7645    3.3630  -16.4112 H   0  0  0  0  0  0  0  0  0  0  0  0
    9.9293    4.0912  -17.5247 H   0  0  0  0  0  0  0  0  0  0  0  0
   10.2628    2.5052  -16.7953 H   0  0  0  0  0  0  0  0  0  0  0  0
  2  1  1  0
  3  2  1  0
  4  3  2  0
  5  4  1  0
  6  2  2  0
  6  5  1  0
  7  6  1  0
  8  7  2  0
  9  8  1  0
 10  9  2  0
 11 10  1  0
 12 11  1  0
 13 12  1  0
 14 13  1  0
 15 14  1  0
 16 15  1  0
 17 16  1  0
 18 17  1  0
 19 18  1  0
 20 19  1  0
 21 20  1  0
 22 21  2  0
 23 22  1  0
 24 23  1  0
 25 23  2  0
 26 20  2  0
 26 25  1  0
 27 15  1  0
 27 19  1  0
 28  7  1  0
 28 10  1  0
 29 28  1  0
 30  1  1  0
 31  1  1  0
 32  1  1  0
 33  4  1  0
 34 12  1  0
 35 12  1  0
 36 13  1  0
 37 13  1  0
 38 14  1  0
 39 14  1  0
 40 16  1  0
 41 16  1  0
 42 17  1  0
 43 17  1  0
 19 44  1  1
 45 21  1  0
 46 22  1  0
 47 25  1  0
 48 26  1  0
 49 27  1  0
 50 27  1  0
 51 29  1  0
 52 29  1  0
 53 29  1  0
M  END
>  <b_m_subgroup_collapsed>  (1153) 
0

>  <r_i_docking_score>  (1153) 
-6.6081655858467503

>  <s_m_subgroup_title>  (1153) 
glide-dock_SP_D22_pv

>  <s_m_subgroupid>  (1153) 
glide-dock_SP_D22_pv

>  <Molecule ChEMBL ID>  (1153) 
CHEMBL3764833

>  <Standard Type>  (1153) 
Ki

>  <Standard Value>  (1153) 
15136.0

>  <label>  (1153) 
0

$$$$
CHEMBL3234544
     RDKit          3D

 46 49  0  0  1  0  0  0  0  0999 V2000
   13.7167    5.4461  -15.1772 C   0  0  0  0  0  0  0  0  0  0  0  0
   12.4004    5.4927  -15.8105 N   0  0  0  0  0  0  0  0  0  0  0  0
   12.3758    5.7935  -17.1393 C   0  0  0  0  0  0  0  0  0  0  0  0
   13.4078    6.0720  -17.7609 O   0  0  0  0  0  0  0  0  0  0  0  0
   11.0797    5.8895  -17.8971 C   0  0  0  0  0  0  0  0  0  0  0  0
   10.9303    6.9418  -18.8328 C   0  0  0  0  0  0  0  0  0  0  0  0
    9.7925    7.0218  -19.6585 C   0  0  0  0  0  0  0  0  0  0  0  0
    8.7981    6.0323  -19.5808 C   0  0  0  0  0  0  0  0  0  0  0  0
    8.9413    4.9712  -18.6692 C   0  0  0  0  0  0  0  0  0  0  0  0
   10.0638    4.9017  -17.8274 C   0  0  0  0  0  0  0  0  0  0  0  0
   10.1365    3.4962  -16.6707 S   0  0  0  0  0  0  0  0  0  0  0  0
   11.5271    2.8704  -16.8146 O   0  0  0  0  0  0  0  0  0  0  0  0
   10.1773    4.5405  -15.1835 C   0  0  0  0  0  0  0  0  0  0  0  0
    9.1079    4.4524  -14.2674 C   0  0  0  0  0  0  0  0  0  0  0  0
    9.1213    5.2096  -13.0795 C   0  0  0  0  0  0  0  0  0  0  0  0
   10.2233    6.0429  -12.7833 C   0  0  0  0  0  0  0  0  0  0  0  0
   10.2847    6.8811  -11.5310 C   0  0  0  0  0  0  0  0  0  0  0  0
   11.1249    7.7738  -11.4379 O   0  0  0  0  0  0  0  0  0  0  0  0
    9.4734    6.5525  -10.5100 N   0  0  0  0  0  0  0  0  0  0  0  0
    9.5000    7.2044   -9.1981 C   0  0  0  0  0  0  0  0  0  0  0  0
   10.7554    6.7986   -8.3948 C   0  0  0  0  0  0  0  0  0  0  0  0
   10.9464    7.5196   -7.0981 C   0  0  0  0  0  0  0  0  0  0  0  0
   10.9718    6.9870   -5.8349 C   0  0  0  0  0  0  0  0  0  0  0  0
   11.2861    7.9458   -4.8261 C   0  0  0  0  0  0  0  0  0  0  0  0
   11.4652    9.2076   -5.3270 C   0  0  0  0  0  0  0  0  0  0  0  0
   11.2855    9.2328   -7.0565 S   0  0  0  0  0  0  0  0  0  0  0  0
   11.2866    6.1242  -13.7174 C   0  0  0  0  0  0  0  0  0  0  0  0
   11.2719    5.3962  -14.9339 C   0  0  0  0  0  0  0  0  0  0  0  0
   14.4674    4.9726  -15.8069 H   0  0  0  0  0  0  0  0  0  0  0  0
   14.0631    6.4581  -14.9617 H   0  0  0  0  0  0  0  0  0  0  0  0
   13.6744    4.8722  -14.2524 H   0  0  0  0  0  0  0  0  0  0  0  0
   11.6931    7.7022  -18.9243 H   0  0  0  0  0  0  0  0  0  0  0  0
    9.6917    7.8375  -20.3601 H   0  0  0  0  0  0  0  0  0  0  0  0
    7.9266    6.0848  -20.2162 H   0  0  0  0  0  0  0  0  0  0  0  0
    8.1772    4.2104  -18.6088 H   0  0  0  0  0  0  0  0  0  0  0  0
    8.2716    3.7973  -14.4729 H   0  0  0  0  0  0  0  0  0  0  0  0
    8.2801    5.1331  -12.4055 H   0  0  0  0  0  0  0  0  0  0  0  0
    8.7866    5.8259  -10.6447 H   0  0  0  0  0  0  0  0  0  0  0  0
    8.5954    6.9371   -8.6508 H   0  0  0  0  0  0  0  0  0  0  0  0
    9.4664    8.2866   -9.3395 H   0  0  0  0  0  0  0  0  0  0  0  0
   11.6468    6.9752   -8.9932 H   0  0  0  0  0  0  0  0  0  0  0  0
   10.7299    5.7244   -8.2126 H   0  0  0  0  0  0  0  0  0  0  0  0
   10.8038    5.9485   -5.5982 H   0  0  0  0  0  0  0  0  0  0  0  0
   11.3620    7.6782   -3.7826 H   0  0  0  0  0  0  0  0  0  0  0  0
   11.6975   10.1160   -4.7905 H   0  0  0  0  0  0  0  0  0  0  0  0
   12.1236    6.7695  -13.5011 H   0  0  0  0  0  0  0  0  0  0  0  0
  2  1  1  0
  3  2  1  0
  4  3  2  0
  5  3  1  0
  6  5  2  0
  7  6  1  0
  8  7  2  0
  9  8  1  0
 10  5  1  0
 10  9  2  0
 11 10  1  6
 12 11  2  0
 13 11  1  0
 14 13  1  0
 15 14  2  0
 16 15  1  0
 17 16  1  0
 18 17  2  0
 19 17  1  0
 20 19  1  0
 21 20  1  0
 22 21  1  0
 23 22  2  0
 24 23  1  0
 25 24  2  0
 26 22  1  0
 26 25  1  0
 27 16  2  0
 28  2  1  0
 28 13  2  0
 28 27  1  0
 29  1  1  0
 30  1  1  0
 31  1  1  0
 32  6  1  0
 33  7  1  0
 34  8  1  0
 35  9  1  0
 36 14  1  0
 37 15  1  0
 38 19  1  0
 39 20  1  0
 40 20  1  0
 41 21  1  0
 42 21  1  0
 43 23  1  0
 44 24  1  0
 45 25  1  0
 46 27  1  0
M  END
>  <b_m_subgroup_collapsed>  (1154) 
0

>  <r_i_docking_score>  (1154) 
-6.60800177673877

>  <s_m_subgroup_title>  (1154) 
glide-dock_SP_D22_pv

>  <s_m_subgroupid>  (1154) 
glide-dock_SP_D22_pv

>  <Molecule ChEMBL ID>  (1154) 
CHEMBL3234544

>  <Standard Type>  (1154) 
Ki

>  <Standard Value>  (1154) 
100.0

>  <label>  (1154) 
1

$$$$
CHEMBL243712
     RDKit          3D

 53 54  0  0  1  0  0  0  0  0999 V2000
    9.3991    6.7242   -7.6046 C   0  0  0  0  0  0  0  0  0  0  0  0
    9.5119    5.8997   -8.8950 C   0  0  0  0  0  0  0  0  0  0  0  0
    8.8860    6.5830  -10.0535 N   0  0  1  0  0  0  0  0  0  0  0  0
    9.5562    7.7958  -10.5554 C   0  0  0  0  0  0  0  0  0  0  0  0
    8.8861    8.0900  -11.9014 C   0  0  0  0  0  0  0  0  0  0  0  0
    8.1242    6.8090  -12.2834 C   0  0  0  0  0  0  0  0  0  0  0  0
    8.5212    5.7563  -11.2305 C   0  0  1  0  0  0  0  0  0  0  0  0
    9.6817    4.8486  -11.7079 C   0  0  0  0  0  0  0  0  0  0  0  0
    9.2818    3.8855  -12.7252 N   0  0  0  0  0  0  0  0  0  0  0  0
    9.4174    4.0183  -14.0533 C   0  0  0  0  0  0  0  0  0  0  0  0
    9.9388    4.9974  -14.5820 O   0  0  0  0  0  0  0  0  0  0  0  0
    8.9025    2.8563  -14.8611 C   0  0  0  0  0  0  0  0  0  0  0  0
    7.7404    2.1785  -14.4278 C   0  0  0  0  0  0  0  0  0  0  0  0
    7.2481    1.0528  -15.1126 C   0  0  0  0  0  0  0  0  0  0  0  0
    5.8957    0.1591  -14.3093 S   0  0  0  0  0  0  0  0  0  0  0  0
    6.4846   -1.0311  -13.6831 O   0  0  0  0  0  0  0  0  0  0  0  0
    5.1722    1.1083  -13.4474 O   0  0  0  0  0  0  0  0  0  0  0  0
    4.7254   -0.4106  -15.6222 C   0  0  0  0  0  0  0  0  0  0  0  0
    3.3247   -0.6729  -15.0546 C   0  0  0  0  0  0  0  0  0  0  0  0
    7.8894    0.6306  -16.3042 C   0  0  0  0  0  0  0  0  0  0  0  0
    7.4717   -0.4731  -17.0470 N   0  0  0  0  0  0  0  0  0  0  0  0
    9.0148    1.3388  -16.7704 C   0  0  0  0  0  0  0  0  0  0  0  0
    9.5517    2.4370  -16.0513 C   0  0  0  0  0  0  0  0  0  0  0  0
   10.6974    3.0994  -16.4470 O   0  0  0  0  0  0  0  0  0  0  0  0
   11.4033    2.6330  -17.5899 C   0  0  0  0  0  0  0  0  0  0  0  0
    9.8261    6.1779   -6.7625 H   0  0  0  0  0  0  0  0  0  0  0  0
    9.9283    7.6744   -7.6812 H   0  0  0  0  0  0  0  0  0  0  0  0
    8.3587    6.9400   -7.3565 H   0  0  0  0  0  0  0  0  0  0  0  0
    9.0129    4.9415   -8.7384 H   0  0  0  0  0  0  0  0  0  0  0  0
   10.5601    5.6877   -9.1049 H   0  0  0  0  0  0  0  0  0  0  0  0
   10.6209    7.6016  -10.6956 H   0  0  0  0  0  0  0  0  0  0  0  0
    9.4496    8.6302   -9.8597 H   0  0  0  0  0  0  0  0  0  0  0  0
    9.6307    8.3663  -12.6465 H   0  0  0  0  0  0  0  0  0  0  0  0
    8.1893    8.9249  -11.8112 H   0  0  0  0  0  0  0  0  0  0  0  0
    8.3276    6.5054  -13.3059 H   0  0  0  0  0  0  0  0  0  0  0  0
    7.0504    6.9944  -12.2469 H   0  0  0  0  0  0  0  0  0  0  0  0
    7.6616    5.1375  -10.9698 H   0  0  0  0  0  0  0  0  0  0  0  0
   10.0852    4.2571  -10.8856 H   0  0  0  0  0  0  0  0  0  0  0  0
   10.4860    5.4736  -12.0863 H   0  0  0  0  0  0  0  0  0  0  0  0
    8.9037    3.0094  -12.3898 H   0  0  0  0  0  0  0  0  0  0  0  0
    7.2333    2.4980  -13.5290 H   0  0  0  0  0  0  0  0  0  0  0  0
    4.6919    0.3349  -16.4144 H   0  0  0  0  0  0  0  0  0  0  0  0
    5.1267   -1.3252  -16.0575 H   0  0  0  0  0  0  0  0  0  0  0  0
    2.6528   -1.0330  -15.8339 H   0  0  0  0  0  0  0  0  0  0  0  0
    3.3560   -1.4269  -14.2677 H   0  0  0  0  0  0  0  0  0  0  0  0
    2.8855    0.2320  -14.6339 H   0  0  0  0  0  0  0  0  0  0  0  0
    7.2691   -1.3080  -16.5018 H   0  0  0  0  0  0  0  0  0  0  0  0
    8.0361   -0.7054  -17.8515 H   0  0  0  0  0  0  0  0  0  0  0  0
    9.4824    0.9931  -17.6790 H   0  0  0  0  0  0  0  0  0  0  0  0
   12.2897    3.2496  -17.7397 H   0  0  0  0  0  0  0  0  0  0  0  0
   11.7403    1.6026  -17.4578 H   0  0  0  0  0  0  0  0  0  0  0  0
   10.7932    2.7080  -18.4916 H   0  0  0  0  0  0  0  0  0  0  0  0
    7.9737    6.9247   -9.7462 H   0  0  0  0  0  0  0  0  0  0  0  0
  2  1  1  0
  3  2  1  0
  4  3  1  0
  5  4  1  0
  6  5  1  0
  7  3  1  0
  7  6  1  0
  8  7  1  0
  9  8  1  0
 10  9  1  0
 11 10  2  0
 12 10  1  0
 13 12  2  0
 14 13  1  0
 15 14  1  0
 16 15  2  0
 17 15  2  0
 18 15  1  0
 19 18  1  0
 20 14  2  0
 21 20  1  0
 22 20  1  0
 23 12  1  0
 23 22  2  0
 24 23  1  0
 25 24  1  0
 26  1  1  0
 27  1  1  0
 28  1  1  0
 29  2  1  0
 30  2  1  0
 31  4  1  0
 32  4  1  0
 33  5  1  0
 34  5  1  0
 35  6  1  0
 36  6  1  0
  7 37  1  1
 38  8  1  0
 39  8  1  0
 40  9  1  0
 41 13  1  0
 42 18  1  0
 43 18  1  0
 44 19  1  0
 45 19  1  0
 46 19  1  0
 47 21  1  0
 48 21  1  0
 49 22  1  0
 50 25  1  0
 51 25  1  0
 52 25  1  0
  3 53  1  1
M  CHG  1   3   1
M  END
>  <b_m_subgroup_collapsed>  (1155) 
0

>  <r_i_docking_score>  (1155) 
-6.5997971717943802

>  <s_m_subgroup_title>  (1155) 
glide-dock_SP_D22_pv

>  <s_m_subgroupid>  (1155) 
glide-dock_SP_D22_pv

>  <Molecule ChEMBL ID>  (1155) 
CHEMBL243712

>  <Standard Type>  (1155) 
Ki

>  <Standard Value>  (1155) 
3.0

>  <label>  (1155) 
1

$$$$
CHEMBL5290993
     RDKit          3D

 50 52  0  0  1  0  0  0  0  0999 V2000
    8.1504    1.1432  -16.1266 C   0  0  0  0  0  0  0  0  0  0  0  0
    9.0452    2.2134  -15.4692 C   0  0  0  0  0  0  0  0  0  0  0  0
   10.4884    1.6791  -15.3846 C   0  0  0  0  0  0  0  0  0  0  0  0
    8.5450    2.6004  -14.1210 N   0  0  1  0  0  0  0  0  0  0  0  0
    9.2808    3.6981  -13.4413 C   0  0  0  0  0  0  0  0  0  0  0  0
    8.2308    4.7454  -13.0297 C   0  0  2  0  0  0  0  0  0  0  0  0
    8.5875    5.4996  -11.8303 N   0  0  0  0  0  0  0  0  0  0  0  0
    9.6966    6.2403  -11.7029 C   0  0  0  0  0  0  0  0  0  0  0  0
   10.4638    6.4350  -12.6468 O   0  0  0  0  0  0  0  0  0  0  0  0
    9.9178    6.7468  -10.4703 N   0  0  0  0  0  0  0  0  0  0  0  0
   11.0182    7.7003  -10.2449 C   0  0  0  0  0  0  0  0  0  0  0  0
   10.9947    7.9563   -8.7716 C   0  0  0  0  0  0  0  0  0  0  0  0
   11.8595    8.7758   -8.0327 C   0  0  0  0  0  0  0  0  0  0  0  0
   11.6525    8.8825   -6.6418 C   0  0  0  0  0  0  0  0  0  0  0  0
   10.6106    8.1558   -6.0203 C   0  0  0  0  0  0  0  0  0  0  0  0
    9.7502    7.3312   -6.7822 C   0  0  0  0  0  0  0  0  0  0  0  0
    9.9716    7.2471   -8.1697 C   0  0  0  0  0  0  0  0  0  0  0  0
    9.2328    6.4179   -9.1909 C   0  0  2  0  0  0  0  0  0  0  0  0
    9.2864    4.9218   -8.8290 C   0  0  0  0  0  0  0  0  0  0  0  0
    6.9637    3.9199  -12.8705 C   0  0  1  0  0  0  0  0  0  0  0  0
    5.6859    4.7484  -12.8941 C   0  0  0  0  0  0  0  0  0  0  0  0
    7.0965    2.9153  -14.0174 C   0  0  0  0  0  0  0  0  0  0  0  0
    8.5602    0.8314  -17.0881 H   0  0  0  0  0  0  0  0  0  0  0  0
    8.0701    0.2509  -15.5038 H   0  0  0  0  0  0  0  0  0  0  0  0
    7.1419    1.5071  -16.3229 H   0  0  0  0  0  0  0  0  0  0  0  0
    9.0371    3.1012  -16.1038 H   0  0  0  0  0  0  0  0  0  0  0  0
   10.8511    1.3782  -16.3678 H   0  0  0  0  0  0  0  0  0  0  0  0
   11.1892    2.4250  -15.0090 H   0  0  0  0  0  0  0  0  0  0  0  0
   10.5539    0.8073  -14.7317 H   0  0  0  0  0  0  0  0  0  0  0  0
   10.0457    4.1518  -14.0722 H   0  0  0  0  0  0  0  0  0  0  0  0
    9.7824    3.2771  -12.5678 H   0  0  0  0  0  0  0  0  0  0  0  0
    8.0944    5.4489  -13.8543 H   0  0  0  0  0  0  0  0  0  0  0  0
    7.9564    5.4589  -11.0411 H   0  0  0  0  0  0  0  0  0  0  0  0
   10.8505    8.6283  -10.7933 H   0  0  0  0  0  0  0  0  0  0  0  0
   11.9816    7.2821  -10.5399 H   0  0  0  0  0  0  0  0  0  0  0  0
   12.6640    9.3054   -8.5188 H   0  0  0  0  0  0  0  0  0  0  0  0
   12.3061    9.5060   -6.0490 H   0  0  0  0  0  0  0  0  0  0  0  0
   10.4860    8.2305   -4.9517 H   0  0  0  0  0  0  0  0  0  0  0  0
    8.9522    6.7747   -6.3118 H   0  0  0  0  0  0  0  0  0  0  0  0
    8.1962    6.7497   -9.2252 H   0  0  0  0  0  0  0  0  0  0  0  0
    8.8468    4.7505   -7.8469 H   0  0  0  0  0  0  0  0  0  0  0  0
    8.7299    4.2980   -9.5263 H   0  0  0  0  0  0  0  0  0  0  0  0
   10.3142    4.5599   -8.7988 H   0  0  0  0  0  0  0  0  0  0  0  0
    6.9925    3.3744  -11.9262 H   0  0  0  0  0  0  0  0  0  0  0  0
    5.5496    5.2654  -13.8427 H   0  0  0  0  0  0  0  0  0  0  0  0
    4.8158    4.1101  -12.7439 H   0  0  0  0  0  0  0  0  0  0  0  0
    5.6864    5.4970  -12.0999 H   0  0  0  0  0  0  0  0  0  0  0  0
    6.7423    3.3710  -14.9410 H   0  0  0  0  0  0  0  0  0  0  0  0
    6.5044    2.0158  -13.8440 H   0  0  0  0  0  0  0  0  0  0  0  0
    8.6939    1.7923  -13.5311 H   0  0  0  0  0  0  0  0  0  0  0  0
  2  1  1  0
  3  2  1  0
  4  2  1  0
  5  4  1  0
  6  5  1  0
  7  6  1  0
  8  7  1  0
  9  8  2  0
 10  8  1  0
 11 10  1  0
 12 11  1  0
 13 12  2  0
 14 13  1  0
 15 14  2  0
 16 15  1  0
 17 12  1  0
 17 16  2  0
 18 10  1  0
 18 17  1  0
 19 18  1  0
 20  6  1  0
 21 20  1  0
 22  4  1  0
 22 20  1  0
 23  1  1  0
 24  1  1  0
 25  1  1  0
 26  2  1  0
 27  3  1  0
 28  3  1  0
 29  3  1  0
 30  5  1  0
 31  5  1  0
  6 32  1  6
 33  7  1  0
 34 11  1  0
 35 11  1  0
 36 13  1  0
 37 14  1  0
 38 15  1  0
 39 16  1  0
 18 40  1  6
 41 19  1  0
 42 19  1  0
 43 19  1  0
 20 44  1  1
 45 21  1  0
 46 21  1  0
 47 21  1  0
 48 22  1  0
 49 22  1  0
  4 50  1  1
M  CHG  1   4   1
M  END
>  <b_m_subgroup_collapsed>  (1156) 
0

>  <r_i_docking_score>  (1156) 
-6.5994922267150704

>  <s_m_subgroup_title>  (1156) 
glide-dock_SP_D22_pv

>  <s_m_subgroupid>  (1156) 
glide-dock_SP_D22_pv

>  <Molecule ChEMBL ID>  (1156) 
CHEMBL5290993

>  <Standard Type>  (1156) 
Ki

>  <Standard Value>  (1156) 
10000.0

>  <label>  (1156) 
0

$$$$
CHEMBL62703
     RDKit          3D

 49 52  0  0  1  0  0  0  0  0999 V2000
    7.0045    0.1684  -14.7260 C   0  0  0  0  0  0  0  0  0  0  0  0
    7.9895    1.0877  -15.1350 C   0  0  0  0  0  0  0  0  0  0  0  0
    7.9267    2.4232  -14.6967 C   0  0  0  0  0  0  0  0  0  0  0  0
    6.8799    2.8415  -13.8473 C   0  0  0  0  0  0  0  0  0  0  0  0
    6.8192    4.2715  -13.3520 C   0  0  0  0  0  0  0  0  0  0  0  0
    8.0076    4.6377  -12.5332 N   0  0  0  0  0  0  0  0  0  0  0  0
    7.6860    4.9266  -11.1144 C   0  0  0  0  0  0  0  0  0  0  0  0
    8.9163    5.3677  -10.3083 C   0  0  0  0  0  0  0  0  0  0  0  0
    9.5056    6.5528  -10.9287 N   0  0  0  0  0  0  0  0  0  0  0  0
   10.6148    7.0448  -10.1170 C   0  0  0  0  0  0  0  0  0  0  0  0
   10.3869    7.6638   -8.7737 C   0  0  0  0  0  0  0  0  0  0  0  0
    9.4485    8.5735   -8.3710 C   0  0  0  0  0  0  0  0  0  0  0  0
    9.6856    8.9073   -7.0645 O   0  0  0  0  0  0  0  0  0  0  0  0
   10.7582    8.1484   -6.7076 C   0  0  0  0  0  0  0  0  0  0  0  0
   11.2549    8.2590   -5.3452 C   0  0  0  0  0  0  0  0  0  0  0  0
   11.6624    7.1036   -4.6445 C   0  0  0  0  0  0  0  0  0  0  0  0
   12.0862    7.1991   -3.3045 C   0  0  0  0  0  0  0  0  0  0  0  0
   12.1160    8.4535   -2.6651 C   0  0  0  0  0  0  0  0  0  0  0  0
   11.7214    9.6087   -3.3669 C   0  0  0  0  0  0  0  0  0  0  0  0
   11.2861    9.5140   -4.7013 C   0  0  0  0  0  0  0  0  0  0  0  0
   11.2100    7.3770   -7.6935 N   0  0  0  0  0  0  0  0  0  0  0  0
    9.9620    6.1721  -12.2668 C   0  0  0  0  0  0  0  0  0  0  0  0
    8.7511    5.7729  -13.1243 C   0  0  0  0  0  0  0  0  0  0  0  0
    5.8912    1.9151  -13.4468 C   0  0  0  0  0  0  0  0  0  0  0  0
    5.9571    0.5787  -13.8825 C   0  0  0  0  0  0  0  0  0  0  0  0
    7.0526   -0.8578  -15.0606 H   0  0  0  0  0  0  0  0  0  0  0  0
    8.7921    0.7642  -15.7819 H   0  0  0  0  0  0  0  0  0  0  0  0
    8.6880    3.1206  -15.0149 H   0  0  0  0  0  0  0  0  0  0  0  0
    5.8948    4.4409  -12.7956 H   0  0  0  0  0  0  0  0  0  0  0  0
    6.7496    4.8976  -14.2395 H   0  0  0  0  0  0  0  0  0  0  0  0
    7.2837    4.0208  -10.6620 H   0  0  0  0  0  0  0  0  0  0  0  0
    6.9116    5.6956  -11.0503 H   0  0  0  0  0  0  0  0  0  0  0  0
    9.6435    4.5564  -10.2447 H   0  0  0  0  0  0  0  0  0  0  0  0
    8.6046    5.6007   -9.2896 H   0  0  0  0  0  0  0  0  0  0  0  0
   11.1779    7.7631  -10.7158 H   0  0  0  0  0  0  0  0  0  0  0  0
   11.2837    6.2066   -9.9618 H   0  0  0  0  0  0  0  0  0  0  0  0
    8.6169    9.0520   -8.8674 H   0  0  0  0  0  0  0  0  0  0  0  0
   11.6257    6.1382   -5.1281 H   0  0  0  0  0  0  0  0  0  0  0  0
   12.3820    6.3086   -2.7682 H   0  0  0  0  0  0  0  0  0  0  0  0
   12.4384    8.5325   -1.6379 H   0  0  0  0  0  0  0  0  0  0  0  0
   11.7451   10.5713   -2.8727 H   0  0  0  0  0  0  0  0  0  0  0  0
   10.9713   10.4040   -5.2278 H   0  0  0  0  0  0  0  0  0  0  0  0
   10.4615    7.0235  -12.7314 H   0  0  0  0  0  0  0  0  0  0  0  0
   10.6804    5.3556  -12.2457 H   0  0  0  0  0  0  0  0  0  0  0  0
    9.0803    5.5051  -14.1300 H   0  0  0  0  0  0  0  0  0  0  0  0
    8.0814    6.6284  -13.2257 H   0  0  0  0  0  0  0  0  0  0  0  0
    5.0839    2.2209  -12.7966 H   0  0  0  0  0  0  0  0  0  0  0  0
    5.2056   -0.1330  -13.5726 H   0  0  0  0  0  0  0  0  0  0  0  0
    8.6266    3.8403  -12.5401 H   0  0  0  0  0  0  0  0  0  0  0  0
  2  1  2  0
  3  2  1  0
  4  3  2  0
  5  4  1  0
  6  5  1  0
  7  6  1  0
  8  7  1  0
  9  8  1  0
 10  9  1  0
 11 10  1  0
 12 11  2  0
 13 12  1  0
 14 13  1  0
 15 14  1  0
 16 15  2  0
 17 16  1  0
 18 17  2  0
 19 18  1  0
 20 15  1  0
 20 19  2  0
 21 11  1  0
 21 14  2  0
 22  9  1  0
 23  6  1  0
 23 22  1  0
 24  4  1  0
 25  1  1  0
 25 24  2  0
 26  1  1  0
 27  2  1  0
 28  3  1  0
 29  5  1  0
 30  5  1  0
 31  7  1  0
 32  7  1  0
 33  8  1  0
 34  8  1  0
 35 10  1  0
 36 10  1  0
 37 12  1  0
 38 16  1  0
 39 17  1  0
 40 18  1  0
 41 19  1  0
 42 20  1  0
 43 22  1  0
 44 22  1  0
 45 23  1  0
 46 23  1  0
 47 24  1  0
 48 25  1  0
 49  6  1  0
M  CHG  1   6   1
M  END
>  <b_m_subgroup_collapsed>  (1157) 
0

>  <r_i_docking_score>  (1157) 
-6.59294264775047

>  <s_m_subgroup_title>  (1157) 
glide-dock_SP_D22_pv

>  <s_m_subgroupid>  (1157) 
glide-dock_SP_D22_pv

>  <Molecule ChEMBL ID>  (1157) 
CHEMBL62703

>  <Standard Type>  (1157) 
Ki

>  <Standard Value>  (1157) 
21500.0

>  <label>  (1157) 
0

$$$$
CHEMBL2030622
     RDKit          3D

 32 34  0  0  1  0  0  0  0  0999 V2000
   12.3742    8.0388   -2.4350 C   0  0  0  0  0  0  0  0  0  0  0  0
   12.0823    9.3562   -2.8248 C   0  0  0  0  0  0  0  0  0  0  0  0
   11.5616    9.6132   -4.1061 C   0  0  0  0  0  0  0  0  0  0  0  0
   11.3730    8.5658   -5.0293 C   0  0  0  0  0  0  0  0  0  0  0  0
   10.8534    8.9275   -6.4159 C   0  0  0  0  0  0  0  0  0  0  0  0
   10.2387    7.7973   -7.1580 N   0  0  1  0  0  0  0  0  0  0  0  0
    9.3192    8.1323   -8.2540 C   0  0  2  0  0  0  0  0  0  0  0  0
    8.8860    6.7242   -8.6993 C   0  0  0  0  0  0  0  0  0  0  0  0
   10.1603    5.9033   -8.5026 C   0  0  0  0  0  0  0  0  0  0  0  0
   11.1370    6.9733   -7.9781 C   0  0  1  0  0  0  0  0  0  0  0  0
   11.5176    7.8850   -9.1668 C   0  0  0  0  0  0  0  0  0  0  0  0
   10.2355    8.7144   -9.3497 C   0  0  0  0  0  0  0  0  0  0  0  0
   11.6851    7.2408   -4.6350 C   0  0  0  0  0  0  0  0  0  0  0  0
   12.1633    6.9794   -3.3364 C   0  0  0  0  0  0  0  0  0  0  0  0
   12.7524    7.8432   -1.4428 H   0  0  0  0  0  0  0  0  0  0  0  0
   12.2290   10.1684   -2.1287 H   0  0  0  0  0  0  0  0  0  0  0  0
   11.3022   10.6234   -4.3801 H   0  0  0  0  0  0  0  0  0  0  0  0
   10.0869    9.6903   -6.2825 H   0  0  0  0  0  0  0  0  0  0  0  0
   11.6562    9.4067   -6.9756 H   0  0  0  0  0  0  0  0  0  0  0  0
    8.4854    8.7786   -7.9766 H   0  0  0  0  0  0  0  0  0  0  0  0
    8.5209    6.7034   -9.7281 H   0  0  0  0  0  0  0  0  0  0  0  0
    8.0865    6.3402   -8.0648 H   0  0  0  0  0  0  0  0  0  0  0  0
   10.4862    5.4321   -9.4288 H   0  0  0  0  0  0  0  0  0  0  0  0
    9.9896    5.1152   -7.7739 H   0  0  0  0  0  0  0  0  0  0  0  0
   11.9976    6.5662   -7.4460 H   0  0  0  0  0  0  0  0  0  0  0  0
   12.3695    8.5264   -8.9328 H   0  0  0  0  0  0  0  0  0  0  0  0
   11.7767    7.3175  -10.0618 H   0  0  0  0  0  0  0  0  0  0  0  0
    9.8068    8.6104  -10.3475 H   0  0  0  0  0  0  0  0  0  0  0  0
   10.4368    9.7715   -9.1852 H   0  0  0  0  0  0  0  0  0  0  0  0
   11.5452    6.4000   -5.2956 H   0  0  0  0  0  0  0  0  0  0  0  0
   12.3840    5.9648   -3.0374 H   0  0  0  0  0  0  0  0  0  0  0  0
    9.7412    7.2174   -6.4970 H   0  0  0  0  0  0  0  0  0  0  0  0
  2  1  2  0
  3  2  1  0
  4  3  2  0
  5  4  1  0
  6  5  1  0
  7  6  1  0
  8  7  1  0
  9  8  1  0
 10  6  1  0
 10  9  1  0
 11 10  1  0
 12  7  1  0
 12 11  1  0
 13  4  1  0
 14  1  1  0
 14 13  2  0
 15  1  1  0
 16  2  1  0
 17  3  1  0
 18  5  1  0
 19  5  1  0
  7 20  1  1
 21  8  1  0
 22  8  1  0
 23  9  1  0
 24  9  1  0
 10 25  1  1
 26 11  1  0
 27 11  1  0
 28 12  1  0
 29 12  1  0
 30 13  1  0
 31 14  1  0
  6 32  1  1
M  CHG  1   6   1
M  END
>  <b_m_subgroup_collapsed>  (1158) 
0

>  <r_i_docking_score>  (1158) 
-6.5924145820453797

>  <s_m_subgroup_title>  (1158) 
glide-dock_SP_D22_pv

>  <s_m_subgroupid>  (1158) 
glide-dock_SP_D22_pv

>  <Molecule ChEMBL ID>  (1158) 
CHEMBL2030622

>  <Standard Type>  (1158) 
Ki

>  <Standard Value>  (1158) 
10000.0

>  <label>  (1158) 
0

$$$$
CHEMBL4438361
     RDKit          3D

 46 47  0  0  1  0  0  0  0  0999 V2000
   10.9872    8.5139   -5.7036 C   0  0  0  0  0  0  0  0  0  0  0  0
   10.8196    7.0309   -6.0622 C   0  0  0  0  0  0  0  0  0  0  0  0
   10.5844    6.7803   -7.5614 C   0  0  0  0  0  0  0  0  0  0  0  0
    9.1984    7.2538   -8.0503 C   0  0  0  0  0  0  0  0  0  0  0  0
    8.8860    6.8885   -9.4559 N   0  0  0  0  0  0  0  0  0  0  0  0
    8.7149    5.4346   -9.6918 C   0  0  0  0  0  0  0  0  0  0  0  0
    8.0878    5.1954  -11.0739 C   0  0  0  0  0  0  0  0  0  0  0  0
    8.8495    5.8864  -12.1147 N   0  0  0  0  0  0  0  0  0  0  0  0
    9.5130    5.1384  -13.1138 C   0  0  0  0  0  0  0  0  0  0  0  0
   10.8693    5.4084  -13.4168 C   0  0  0  0  0  0  0  0  0  0  0  0
   11.5637    4.6542  -14.3787 C   0  0  0  0  0  0  0  0  0  0  0  0
   10.9023    3.6253  -15.0687 C   0  0  0  0  0  0  0  0  0  0  0  0
    9.5472    3.3594  -14.8015 C   0  0  0  0  0  0  0  0  0  0  0  0
    8.8391    4.1071  -13.8262 C   0  0  0  0  0  0  0  0  0  0  0  0
    7.4990    3.9018  -13.5649 O   0  0  0  0  0  0  0  0  0  0  0  0
    6.8865    2.6956  -13.9983 C   0  0  0  0  0  0  0  0  0  0  0  0
    5.6072    2.5142  -13.1766 C   0  0  0  0  0  0  0  0  0  0  0  0
    5.0359    1.3406  -13.4466 F   0  0  0  0  0  0  0  0  0  0  0  0
    9.1493    7.2993  -11.8856 C   0  0  0  0  0  0  0  0  0  0  0  0
    9.7446    7.5261  -10.4837 C   0  0  0  0  0  0  0  0  0  0  0  0
   11.2150    8.6308   -4.6441 H   0  0  0  0  0  0  0  0  0  0  0  0
   11.8032    8.9682   -6.2671 H   0  0  0  0  0  0  0  0  0  0  0  0
   10.0811    9.0839   -5.9082 H   0  0  0  0  0  0  0  0  0  0  0  0
   10.0032    6.5973   -5.4802 H   0  0  0  0  0  0  0  0  0  0  0  0
   11.7189    6.4952   -5.7556 H   0  0  0  0  0  0  0  0  0  0  0  0
   10.6909    5.7105   -7.7339 H   0  0  0  0  0  0  0  0  0  0  0  0
   11.3770    7.2610   -8.1366 H   0  0  0  0  0  0  0  0  0  0  0  0
    9.1150    8.3368   -7.9517 H   0  0  0  0  0  0  0  0  0  0  0  0
    8.4219    6.8372   -7.4078 H   0  0  0  0  0  0  0  0  0  0  0  0
    8.0862    4.9983   -8.9161 H   0  0  0  0  0  0  0  0  0  0  0  0
    9.6792    4.9276   -9.6415 H   0  0  0  0  0  0  0  0  0  0  0  0
    7.0605    5.5639  -11.0894 H   0  0  0  0  0  0  0  0  0  0  0  0
    8.0430    4.1228  -11.2490 H   0  0  0  0  0  0  0  0  0  0  0  0
   11.4086    6.1811  -12.8912 H   0  0  0  0  0  0  0  0  0  0  0  0
   12.6029    4.8644  -14.5849 H   0  0  0  0  0  0  0  0  0  0  0  0
   11.4307    3.0457  -15.8113 H   0  0  0  0  0  0  0  0  0  0  0  0
    9.0644    2.5799  -15.3710 H   0  0  0  0  0  0  0  0  0  0  0  0
    6.6512    2.7539  -15.0605 H   0  0  0  0  0  0  0  0  0  0  0  0
    7.5396    1.8345  -13.8466 H   0  0  0  0  0  0  0  0  0  0  0  0
    5.8158    2.5346  -12.1066 H   0  0  0  0  0  0  0  0  0  0  0  0
    4.8858    3.3010  -13.3946 H   0  0  0  0  0  0  0  0  0  0  0  0
    9.8132    7.7064  -12.6455 H   0  0  0  0  0  0  0  0  0  0  0  0
    8.2138    7.8533  -11.9758 H   0  0  0  0  0  0  0  0  0  0  0  0
    9.8285    8.5964  -10.2887 H   0  0  0  0  0  0  0  0  0  0  0  0
   10.7519    7.1081  -10.4380 H   0  0  0  0  0  0  0  0  0  0  0  0
    7.9519    7.2728   -9.6318 H   0  0  0  0  0  0  0  0  0  0  0  0
  2  1  1  0
  3  2  1  0
  4  3  1  0
  5  4  1  0
  6  5  1  0
  7  6  1  0
  8  7  1  0
  9  8  1  0
 10  9  2  0
 11 10  1  0
 12 11  2  0
 13 12  1  0
 14  9  1  0
 14 13  2  0
 15 14  1  0
 16 15  1  0
 17 16  1  0
 18 17  1  0
 19  8  1  0
 20  5  1  0
 20 19  1  0
 21  1  1  0
 22  1  1  0
 23  1  1  0
 24  2  1  0
 25  2  1  0
 26  3  1  0
 27  3  1  0
 28  4  1  0
 29  4  1  0
 30  6  1  0
 31  6  1  0
 32  7  1  0
 33  7  1  0
 34 10  1  0
 35 11  1  0
 36 12  1  0
 37 13  1  0
 38 16  1  0
 39 16  1  0
 40 17  1  0
 41 17  1  0
 42 19  1  0
 43 19  1  0
 44 20  1  0
 45 20  1  0
 46  5  1  0
M  CHG  1   5   1
M  END
>  <b_m_subgroup_collapsed>  (1159) 
0

>  <r_i_docking_score>  (1159) 
-6.5913293202549301

>  <s_m_subgroup_title>  (1159) 
glide-dock_SP_D22_pv

>  <s_m_subgroupid>  (1159) 
glide-dock_SP_D22_pv

>  <Molecule ChEMBL ID>  (1159) 
CHEMBL4438361

>  <Standard Type>  (1159) 
Ki

>  <Standard Value>  (1159) 
14.7

>  <label>  (1159) 
1

$$$$
CHEMBL3104093
     RDKit          3D

 43 47  0  0  1  0  0  0  0  0999 V2000
    9.0918    5.4692  -10.0103 C   0  0  0  0  0  0  0  0  0  0  0  0
    8.4859    6.2703  -11.0986 N   0  0  1  0  0  0  0  0  0  0  0  0
    9.4760    6.8368  -12.0595 C   0  0  0  0  0  0  0  0  0  0  0  0
   10.1003    5.7573  -12.9893 C   0  0  0  0  0  0  0  0  0  0  0  0
    9.0831    4.7582  -13.4180 C   0  0  0  0  0  0  0  0  0  0  0  0
    7.8350    4.6602  -12.8457 C   0  0  0  0  0  0  0  0  0  0  0  0
    7.3055    3.4998  -13.4468 C   0  0  0  0  0  0  0  0  0  0  0  0
    6.0852    2.9389  -13.1151 C   0  0  0  0  0  0  0  0  0  0  0  0
    5.7721    1.6991  -13.6901 C   0  0  0  0  0  0  0  0  0  0  0  0
    6.6510    1.1085  -14.6159 C   0  0  0  0  0  0  0  0  0  0  0  0
    7.8742    1.7103  -15.0181 C   0  0  0  0  0  0  0  0  0  0  0  0
    8.1790    2.9298  -14.3389 C   0  0  0  0  0  0  0  0  0  0  0  0
    9.2659    3.7209  -14.3421 N   0  0  0  0  0  0  0  0  0  0  0  0
   10.4163    3.4354  -15.1789 C   0  0  0  0  0  0  0  0  0  0  0  0
   10.8867    1.9834  -15.0813 C   0  0  0  0  0  0  0  0  0  0  0  0
   10.1373    1.1003  -16.0532 C   0  0  0  0  0  0  0  0  0  0  0  0
   10.8850    0.3837  -17.0139 C   0  0  0  0  0  0  0  0  0  0  0  0
   10.2444   -0.4117  -17.9761 C   0  0  0  0  0  0  0  0  0  0  0  0
    8.8432   -0.4782  -17.9901 C   0  0  0  0  0  0  0  0  0  0  0  0
    8.0981    0.2379  -17.0364 C   0  0  0  0  0  0  0  0  0  0  0  0
    8.7198    1.0251  -16.0330 C   0  0  0  0  0  0  0  0  0  0  0  0
    7.3455    5.5920  -11.7794 C   0  0  0  0  0  0  0  0  0  0  0  0
    9.5565    4.5588  -10.3943 H   0  0  0  0  0  0  0  0  0  0  0  0
    8.3345    5.1826   -9.2791 H   0  0  0  0  0  0  0  0  0  0  0  0
    9.8522    6.0469   -9.4842 H   0  0  0  0  0  0  0  0  0  0  0  0
    8.9376    7.5788  -12.6465 H   0  0  0  0  0  0  0  0  0  0  0  0
   10.2560    7.3850  -11.5301 H   0  0  0  0  0  0  0  0  0  0  0  0
   10.5854    6.2035  -13.8545 H   0  0  0  0  0  0  0  0  0  0  0  0
   10.8850    5.2254  -12.4587 H   0  0  0  0  0  0  0  0  0  0  0  0
    5.4182    3.3922  -12.3966 H   0  0  0  0  0  0  0  0  0  0  0  0
    4.8482    1.2024  -13.4314 H   0  0  0  0  0  0  0  0  0  0  0  0
    6.3603    0.1513  -15.0250 H   0  0  0  0  0  0  0  0  0  0  0  0
   10.2004    3.7234  -16.2089 H   0  0  0  0  0  0  0  0  0  0  0  0
   11.2326    4.0797  -14.8515 H   0  0  0  0  0  0  0  0  0  0  0  0
   11.9464    1.9576  -15.3340 H   0  0  0  0  0  0  0  0  0  0  0  0
   10.7996    1.5975  -14.0642 H   0  0  0  0  0  0  0  0  0  0  0  0
   11.9633    0.4454  -17.0247 H   0  0  0  0  0  0  0  0  0  0  0  0
   10.8230   -0.9597  -18.7059 H   0  0  0  0  0  0  0  0  0  0  0  0
    8.3374   -1.0791  -18.7308 H   0  0  0  0  0  0  0  0  0  0  0  0
    7.0223    0.1658  -17.0894 H   0  0  0  0  0  0  0  0  0  0  0  0
    6.7342    5.0682  -11.0473 H   0  0  0  0  0  0  0  0  0  0  0  0
    6.7020    6.3546  -12.2249 H   0  0  0  0  0  0  0  0  0  0  0  0
    8.0106    7.0503  -10.6431 H   0  0  0  0  0  0  0  0  0  0  0  0
  2  1  1  0
  3  2  1  0
  4  3  1  0
  5  4  1  0
  6  5  2  0
  7  6  1  0
  8  7  1  0
  9  8  2  0
 10  9  1  0
 11 10  2  0
 12  7  2  0
 12 11  1  0
 13  5  1  0
 13 12  1  0
 14 13  1  0
 15 14  1  0
 16 15  1  0
 17 16  2  0
 18 17  1  0
 19 18  2  0
 20 19  1  0
 21 11  1  0
 21 16  1  0
 21 20  2  0
 22  2  1  0
 22  6  1  0
 23  1  1  0
 24  1  1  0
 25  1  1  0
 26  3  1  0
 27  3  1  0
 28  4  1  0
 29  4  1  0
 30  8  1  0
 31  9  1  0
 32 10  1  0
 33 14  1  0
 34 14  1  0
 35 15  1  0
 36 15  1  0
 37 17  1  0
 38 18  1  0
 39 19  1  0
 40 20  1  0
 41 22  1  0
 42 22  1  0
  2 43  1  1
M  CHG  1   2   1
M  END
>  <b_m_subgroup_collapsed>  (1160) 
0

>  <r_i_docking_score>  (1160) 
-6.5860379060407999

>  <s_m_subgroup_title>  (1160) 
glide-dock_SP_D22_pv

>  <s_m_subgroupid>  (1160) 
glide-dock_SP_D22_pv

>  <Molecule ChEMBL ID>  (1160) 
CHEMBL3104093

>  <Standard Type>  (1160) 
Ki

>  <Standard Value>  (1160) 
10000.0

>  <label>  (1160) 
0

$$$$
CHEMBL1712377
     RDKit          3D

 46 48  0  0  1  0  0  0  0  0999 V2000
    8.2347    4.4664  -13.8609 O   0  0  0  0  0  0  0  0  0  0  0  0
    7.4240    4.5746  -12.9416 C   0  0  0  0  0  0  0  0  0  0  0  0
    7.6076    5.7000  -11.9179 C   0  0  0  0  0  0  0  0  0  0  0  0
    9.0963    5.9005  -11.5490 C   0  0  0  0  0  0  0  0  0  0  0  0
    9.2958    6.9482  -10.5438 N   0  0  0  0  0  0  0  0  0  0  0  0
   10.6902    7.3948  -10.5585 C   0  0  0  0  0  0  0  0  0  0  0  0
   10.8864    8.5433   -9.5564 C   0  0  0  0  0  0  0  0  0  0  0  0
   10.5569    8.0866   -8.1850 N   0  0  0  0  0  0  0  0  0  0  0  0
   10.8256    9.1239   -7.1574 C   0  0  0  0  0  0  0  0  0  0  0  0
   11.2408    8.6041   -5.7842 C   0  0  0  0  0  0  0  0  0  0  0  0
   11.6319    9.5501   -4.8134 C   0  0  0  0  0  0  0  0  0  0  0  0
   12.0561    9.1438   -3.5339 C   0  0  0  0  0  0  0  0  0  0  0  0
   12.0860    7.7760   -3.2095 C   0  0  0  0  0  0  0  0  0  0  0  0
   11.6863    6.8242   -4.1658 C   0  0  0  0  0  0  0  0  0  0  0  0
   11.2669    7.2303   -5.4486 C   0  0  0  0  0  0  0  0  0  0  0  0
    9.1622    7.5793   -8.1607 C   0  0  0  0  0  0  0  0  0  0  0  0
    8.9760    6.4545   -9.1989 C   0  0  0  0  0  0  0  0  0  0  0  0
    6.3552    3.7725  -12.7795 N   0  0  0  0  0  0  0  0  0  0  0  0
    6.0962    2.5424  -13.4409 C   0  0  0  0  0  0  0  0  0  0  0  0
    5.0592    1.8015  -13.0470 N   0  0  0  0  0  0  0  0  0  0  0  0
    5.0203    0.5624  -13.6969 C   0  0  0  0  0  0  0  0  0  0  0  0
    6.0587    0.3602  -14.5712 C   0  0  0  0  0  0  0  0  0  0  0  0
    7.1143    1.7446  -14.6469 S   0  0  0  0  0  0  0  0  0  0  0  0
    7.2039    6.6226  -12.3355 H   0  0  0  0  0  0  0  0  0  0  0  0
    7.0080    5.4723  -11.0399 H   0  0  0  0  0  0  0  0  0  0  0  0
    9.5420    4.9618  -11.2133 H   0  0  0  0  0  0  0  0  0  0  0  0
    9.6264    6.1843  -12.4605 H   0  0  0  0  0  0  0  0  0  0  0  0
   11.3596    6.5730  -10.3147 H   0  0  0  0  0  0  0  0  0  0  0  0
   10.9544    7.7434  -11.5579 H   0  0  0  0  0  0  0  0  0  0  0  0
   11.9231    8.8832   -9.5981 H   0  0  0  0  0  0  0  0  0  0  0  0
   10.2573    9.3926   -9.8252 H   0  0  0  0  0  0  0  0  0  0  0  0
   11.6414    9.7660   -7.4914 H   0  0  0  0  0  0  0  0  0  0  0  0
    9.9586    9.7718   -7.0493 H   0  0  0  0  0  0  0  0  0  0  0  0
   11.6157   10.6011   -5.0550 H   0  0  0  0  0  0  0  0  0  0  0  0
   12.3583    9.8804   -2.8043 H   0  0  0  0  0  0  0  0  0  0  0  0
   12.4049    7.4593   -2.2269 H   0  0  0  0  0  0  0  0  0  0  0  0
   11.6998    5.7747   -3.9122 H   0  0  0  0  0  0  0  0  0  0  0  0
   10.9736    6.4667   -6.1505 H   0  0  0  0  0  0  0  0  0  0  0  0
    8.9044    7.2127   -7.1662 H   0  0  0  0  0  0  0  0  0  0  0  0
    8.4832    8.4031   -8.3754 H   0  0  0  0  0  0  0  0  0  0  0  0
    7.9410    6.1189   -9.1640 H   0  0  0  0  0  0  0  0  0  0  0  0
    9.5998    5.5948   -8.9473 H   0  0  0  0  0  0  0  0  0  0  0  0
    5.7275    4.0016  -12.0216 H   0  0  0  0  0  0  0  0  0  0  0  0
    4.2121   -0.1173  -13.4753 H   0  0  0  0  0  0  0  0  0  0  0  0
    6.2600   -0.5107  -15.1808 H   0  0  0  0  0  0  0  0  0  0  0  0
   11.1675    7.3085   -7.9890 H   0  0  0  0  0  0  0  0  0  0  0  0
  2  1  2  0
  3  2  1  0
  4  3  1  0
  5  4  1  0
  6  5  1  0
  7  6  1  0
  8  7  1  0
  9  8  1  0
 10  9  1  0
 11 10  2  0
 12 11  1  0
 13 12  2  0
 14 13  1  0
 15 10  1  0
 15 14  2  0
 16  8  1  0
 17  5  1  0
 17 16  1  0
 18  2  1  0
 19 18  1  0
 20 19  2  0
 21 20  1  0
 22 21  2  0
 23 19  1  0
 23 22  1  0
 24  3  1  0
 25  3  1  0
 26  4  1  0
 27  4  1  0
 28  6  1  0
 29  6  1  0
 30  7  1  0
 31  7  1  0
 32  9  1  0
 33  9  1  0
 34 11  1  0
 35 12  1  0
 36 13  1  0
 37 14  1  0
 38 15  1  0
 39 16  1  0
 40 16  1  0
 41 17  1  0
 42 17  1  0
 43 18  1  0
 44 21  1  0
 45 22  1  0
 46  8  1  0
M  CHG  1   8   1
M  END
>  <b_m_subgroup_collapsed>  (1161) 
0

>  <r_i_docking_score>  (1161) 
-6.5810806161336801

>  <s_m_subgroup_title>  (1161) 
glide-dock_SP_D22_pv

>  <s_m_subgroupid>  (1161) 
glide-dock_SP_D22_pv

>  <Molecule ChEMBL ID>  (1161) 
CHEMBL1712377

>  <Standard Type>  (1161) 
Ki

>  <Standard Value>  (1161) 
10000.0

>  <label>  (1161) 
0

$$$$
CHEMBL325710
     RDKit          3D

 44 46  0  0  1  0  0  0  0  0999 V2000
    9.7731    5.6756   -8.0812 C   0  0  0  0  0  0  0  0  0  0  0  0
    8.4854    5.2126   -8.7762 C   0  0  0  0  0  0  0  0  0  0  0  0
    8.5766    4.9607  -10.2974 C   0  0  0  0  0  0  0  0  0  0  0  0
    8.4861    6.2069  -11.1168 N   0  0  0  0  0  0  0  0  0  0  0  0
    9.7628    6.9687  -11.1465 C   0  0  0  0  0  0  0  0  0  0  0  0
    9.6153    8.3642  -10.5259 C   0  0  0  0  0  0  0  0  0  0  0  0
   10.9823    8.9709  -10.1808 C   0  0  0  0  0  0  0  0  0  0  0  0
    7.8997    6.0332  -12.4814 C   0  0  1  0  0  0  0  0  0  0  0  0
    8.6880    5.0268  -13.3767 C   0  0  0  0  0  0  0  0  0  0  0  0
    7.7239    3.8945  -13.6005 C   0  0  0  0  0  0  0  0  0  0  0  0
    7.9833    2.6703  -14.2466 C   0  0  0  0  0  0  0  0  0  0  0  0
    6.9793    1.6674  -14.2655 C   0  0  0  0  0  0  0  0  0  0  0  0
    7.0739    0.4034  -14.8400 N   0  0  0  0  0  0  0  0  0  0  0  0
    5.9151   -0.2456  -14.6897 C   0  0  0  0  0  0  0  0  0  0  0  0
    5.6860   -1.5043  -15.2009 N   0  0  0  0  0  0  0  0  0  0  0  0
    4.6543    0.5694  -13.7749 S   0  0  0  0  0  0  0  0  0  0  0  0
    5.7261    1.9584  -13.6323 C   0  0  0  0  0  0  0  0  0  0  0  0
    5.4623    3.2115  -13.0469 C   0  0  0  0  0  0  0  0  0  0  0  0
    6.4833    4.1705  -13.0414 C   0  0  0  0  0  0  0  0  0  0  0  0
    6.4256    5.5464  -12.4349 C   0  0  0  0  0  0  0  0  0  0  0  0
    9.6155    5.7620   -7.0065 H   0  0  0  0  0  0  0  0  0  0  0  0
   10.5893    4.9745   -8.2475 H   0  0  0  0  0  0  0  0  0  0  0  0
   10.1001    6.6568   -8.4102 H   0  0  0  0  0  0  0  0  0  0  0  0
    7.6862    5.9203   -8.5666 H   0  0  0  0  0  0  0  0  0  0  0  0
    8.1789    4.2802   -8.2990 H   0  0  0  0  0  0  0  0  0  0  0  0
    7.7430    4.3047  -10.5475 H   0  0  0  0  0  0  0  0  0  0  0  0
    9.4718    4.3891  -10.5481 H   0  0  0  0  0  0  0  0  0  0  0  0
   10.5399    6.4156  -10.6212 H   0  0  0  0  0  0  0  0  0  0  0  0
   10.1408    7.0687  -12.1648 H   0  0  0  0  0  0  0  0  0  0  0  0
    9.0756    9.0110  -11.2186 H   0  0  0  0  0  0  0  0  0  0  0  0
    9.0070    8.3208   -9.6217 H   0  0  0  0  0  0  0  0  0  0  0  0
   10.8870    9.9939   -9.8189 H   0  0  0  0  0  0  0  0  0  0  0  0
   11.4826    8.3985   -9.3998 H   0  0  0  0  0  0  0  0  0  0  0  0
   11.6432    8.9737  -11.0463 H   0  0  0  0  0  0  0  0  0  0  0  0
    7.9070    7.0175  -12.9542 H   0  0  0  0  0  0  0  0  0  0  0  0
    9.6110    4.6642  -12.9233 H   0  0  0  0  0  0  0  0  0  0  0  0
    8.9398    5.4712  -14.3396 H   0  0  0  0  0  0  0  0  0  0  0  0
    8.9488    2.4688  -14.6872 H   0  0  0  0  0  0  0  0  0  0  0  0
    6.5044   -2.0650  -15.4468 H   0  0  0  0  0  0  0  0  0  0  0  0
    4.8505   -2.0225  -14.9682 H   0  0  0  0  0  0  0  0  0  0  0  0
    4.4889    3.4309  -12.6469 H   0  0  0  0  0  0  0  0  0  0  0  0
    5.7861    6.1816  -13.0472 H   0  0  0  0  0  0  0  0  0  0  0  0
    5.9962    5.5295  -11.4360 H   0  0  0  0  0  0  0  0  0  0  0  0
    7.8056    6.8067  -10.6458 H   0  0  0  0  0  0  0  0  0  0  0  0
  2  1  1  0
  3  2  1  0
  4  3  1  0
  5  4  1  0
  6  5  1  0
  7  6  1  0
  8  4  1  0
  9  8  1  0
 10  9  1  0
 11 10  1  0
 12 11  2  0
 13 12  1  0
 14 13  2  0
 15 14  1  0
 16 14  1  0
 17 12  1  0
 17 16  1  0
 18 17  2  0
 19 10  2  0
 19 18  1  0
 20  8  1  0
 20 19  1  0
 21  1  1  0
 22  1  1  0
 23  1  1  0
 24  2  1  0
 25  2  1  0
 26  3  1  0
 27  3  1  0
 28  5  1  0
 29  5  1  0
 30  6  1  0
 31  6  1  0
 32  7  1  0
 33  7  1  0
 34  7  1  0
  8 35  1  6
 36  9  1  0
 37  9  1  0
 38 11  1  0
 39 15  1  0
 40 15  1  0
 41 18  1  0
 42 20  1  0
 43 20  1  0
 44  4  1  0
M  CHG  1   4   1
M  END
>  <b_m_subgroup_collapsed>  (1162) 
0

>  <r_i_docking_score>  (1162) 
-6.5803618619706397

>  <s_m_subgroup_title>  (1162) 
glide-dock_SP_D22_pv

>  <s_m_subgroupid>  (1162) 
glide-dock_SP_D22_pv

>  <Molecule ChEMBL ID>  (1162) 
CHEMBL325710

>  <Standard Type>  (1162) 
Ki

>  <Standard Value>  (1162) 
27.0

>  <label>  (1162) 
1

$$$$
CHEMBL3234545
     RDKit          3D

 46 49  0  0  1  0  0  0  0  0999 V2000
   13.2807    4.6473  -14.6475 C   0  0  0  0  0  0  0  0  0  0  0  0
   12.0891    5.0198  -15.4031 N   0  0  0  0  0  0  0  0  0  0  0  0
   12.2767    5.3268  -16.7149 C   0  0  0  0  0  0  0  0  0  0  0  0
   13.4044    5.4037  -17.2109 O   0  0  0  0  0  0  0  0  0  0  0  0
   11.1123    5.6426  -17.6112 C   0  0  0  0  0  0  0  0  0  0  0  0
   11.2394    6.7245  -18.5148 C   0  0  0  0  0  0  0  0  0  0  0  0
   10.2267    7.0170  -19.4465 C   0  0  0  0  0  0  0  0  0  0  0  0
    9.0825    6.2056  -19.5137 C   0  0  0  0  0  0  0  0  0  0  0  0
    8.9583    5.1069  -18.6468 C   0  0  0  0  0  0  0  0  0  0  0  0
    9.9561    4.8267  -17.6932 C   0  0  0  0  0  0  0  0  0  0  0  0
    9.6935    3.3759  -16.6103 S   0  0  0  0  0  0  0  0  0  0  0  0
   10.9871    2.5580  -16.6441 O   0  0  0  0  0  0  0  0  0  0  0  0
    9.7147    4.3360  -15.0618 C   0  0  0  0  0  0  0  0  0  0  0  0
    8.5637    4.3212  -14.2465 C   0  0  0  0  0  0  0  0  0  0  0  0
    8.5403    5.0452  -13.0371 C   0  0  0  0  0  0  0  0  0  0  0  0
    9.6808    5.7723  -12.6306 C   0  0  0  0  0  0  0  0  0  0  0  0
    9.6881    6.5859  -11.3694 C   0  0  0  0  0  0  0  0  0  0  0  0
   10.3063    7.6510  -11.3280 O   0  0  0  0  0  0  0  0  0  0  0  0
    9.0857    6.0425  -10.2987 N   0  0  0  0  0  0  0  0  0  0  0  0
    9.1188    6.6426   -8.9675 C   0  0  0  0  0  0  0  0  0  0  0  0
   10.4871    6.4135   -8.2923 C   0  0  0  0  0  0  0  0  0  0  0  0
   10.7650    7.3062   -7.1270 C   0  0  0  0  0  0  0  0  0  0  0  0
   10.9501    6.9718   -5.8101 C   0  0  0  0  0  0  0  0  0  0  0  0
   11.2859    8.0871   -4.9879 C   0  0  0  0  0  0  0  0  0  0  0  0
   11.3287    9.2658   -5.6843 C   0  0  0  0  0  0  0  0  0  0  0  0
   10.9986    9.0152   -7.3739 S   0  0  0  0  0  0  0  0  0  0  0  0
   10.8300    5.7702  -13.4514 C   0  0  0  0  0  0  0  0  0  0  0  0
   10.8633    5.0620  -14.6734 C   0  0  0  0  0  0  0  0  0  0  0  0
   14.0269    5.4395  -14.6654 H   0  0  0  0  0  0  0  0  0  0  0  0
   13.0773    4.3746  -13.6129 H   0  0  0  0  0  0  0  0  0  0  0  0
   13.6823    3.7725  -15.1402 H   0  0  0  0  0  0  0  0  0  0  0  0
   12.1231    7.3473  -18.4922 H   0  0  0  0  0  0  0  0  0  0  0  0
   10.3339    7.8582  -20.1176 H   0  0  0  0  0  0  0  0  0  0  0  0
    8.3043    6.4212  -20.2312 H   0  0  0  0  0  0  0  0  0  0  0  0
    8.0861    4.4780  -18.7123 H   0  0  0  0  0  0  0  0  0  0  0  0
    7.6921    3.7590  -14.5473 H   0  0  0  0  0  0  0  0  0  0  0  0
    7.6442    5.0438  -12.4327 H   0  0  0  0  0  0  0  0  0  0  0  0
    8.5889    5.1715  -10.4068 H   0  0  0  0  0  0  0  0  0  0  0  0
    8.3178    6.2251   -8.3565 H   0  0  0  0  0  0  0  0  0  0  0  0
    8.8999    7.7086   -9.0609 H   0  0  0  0  0  0  0  0  0  0  0  0
   11.2841    6.5698   -9.0169 H   0  0  0  0  0  0  0  0  0  0  0  0
   10.5704    5.3706   -7.9879 H   0  0  0  0  0  0  0  0  0  0  0  0
   10.8787    5.9718   -5.4106 H   0  0  0  0  0  0  0  0  0  0  0  0
   11.4703    7.9877   -3.9283 H   0  0  0  0  0  0  0  0  0  0  0  0
   11.5505   10.2564   -5.3173 H   0  0  0  0  0  0  0  0  0  0  0  0
   11.7022    6.3294  -13.1393 H   0  0  0  0  0  0  0  0  0  0  0  0
  2  1  1  0
  3  2  1  0
  4  3  2  0
  5  3  1  0
  6  5  2  0
  7  6  1  0
  8  7  2  0
  9  8  1  0
 10  5  1  0
 10  9  2  0
 11 10  1  6
 12 11  2  0
 13 11  1  0
 14 13  1  0
 15 14  2  0
 16 15  1  0
 17 16  1  0
 18 17  2  0
 19 17  1  0
 20 19  1  0
 21 20  1  0
 22 21  1  0
 23 22  2  0
 24 23  1  0
 25 24  2  0
 26 22  1  0
 26 25  1  0
 27 16  2  0
 28  2  1  0
 28 13  2  0
 28 27  1  0
 29  1  1  0
 30  1  1  0
 31  1  1  0
 32  6  1  0
 33  7  1  0
 34  8  1  0
 35  9  1  0
 36 14  1  0
 37 15  1  0
 38 19  1  0
 39 20  1  0
 40 20  1  0
 41 21  1  0
 42 21  1  0
 43 23  1  0
 44 24  1  0
 45 25  1  0
 46 27  1  0
M  END
>  <b_m_subgroup_collapsed>  (1163) 
0

>  <r_i_docking_score>  (1163) 
-6.5774449569297904

>  <s_m_subgroup_title>  (1163) 
glide-dock_SP_D22_pv

>  <s_m_subgroupid>  (1163) 
glide-dock_SP_D22_pv

>  <Molecule ChEMBL ID>  (1163) 
CHEMBL3234545

>  <Standard Type>  (1163) 
Ki

>  <Standard Value>  (1163) 
50000.0

>  <label>  (1163) 
0

$$$$
CHEMBL1077189
     RDKit          3D

 36 40  0  0  1  0  0  0  0  0999 V2000
   12.7333    5.4230  -15.7422 C   0  0  0  0  0  0  0  0  0  0  0  0
   12.8857    6.7076  -15.1928 C   0  0  0  0  0  0  0  0  0  0  0  0
   12.1485    7.0796  -14.0527 C   0  0  0  0  0  0  0  0  0  0  0  0
   11.2636    6.1707  -13.4253 C   0  0  0  0  0  0  0  0  0  0  0  0
   11.0606    4.9075  -14.0415 C   0  0  0  0  0  0  0  0  0  0  0  0
   11.8098    4.5285  -15.1747 C   0  0  0  0  0  0  0  0  0  0  0  0
    9.9989    3.9643  -13.5072 C   0  0  0  0  0  0  0  0  0  0  0  0
    8.9574    4.7008  -12.6566 C   0  0  0  0  0  0  0  0  0  0  0  0
    9.6860    5.4233  -11.6249 N   0  0  0  0  0  0  0  0  0  0  0  0
    8.7748    5.8696  -10.5670 C   0  0  0  0  0  0  0  0  0  0  0  0
    9.4811    6.5747   -9.4176 C   0  0  0  0  0  0  0  0  0  0  0  0
    9.1080    6.6583   -8.0632 C   0  0  0  0  0  0  0  0  0  0  0  0
    9.8877    7.4333   -7.1838 C   0  0  0  0  0  0  0  0  0  0  0  0
   11.0234    8.1137   -7.6727 C   0  0  0  0  0  0  0  0  0  0  0  0
   11.3788    8.0250   -9.0103 C   0  0  0  0  0  0  0  0  0  0  0  0
   12.4052    8.5721   -9.7227 N   0  0  0  0  0  0  0  0  0  0  0  0
   12.3455    8.1723  -11.0469 C   0  0  0  0  0  0  0  0  0  0  0  0
   11.2326    7.3725  -11.1475 C   0  0  0  0  0  0  0  0  0  0  0  0
   10.6130    7.2665   -9.8777 C   0  0  0  0  0  0  0  0  0  0  0  0
   10.4356    6.5725  -12.1794 C   0  0  1  0  0  0  0  0  0  0  0  0
   13.3037    5.1346  -16.6126 H   0  0  0  0  0  0  0  0  0  0  0  0
   13.5692    7.4104  -15.6458 H   0  0  0  0  0  0  0  0  0  0  0  0
   12.2637    8.0849  -13.6877 H   0  0  0  0  0  0  0  0  0  0  0  0
   11.6631    3.5564  -15.6225 H   0  0  0  0  0  0  0  0  0  0  0  0
    9.5020    3.4638  -14.3390 H   0  0  0  0  0  0  0  0  0  0  0  0
   10.4855    3.1866  -12.9192 H   0  0  0  0  0  0  0  0  0  0  0  0
    8.3610    5.3885  -13.2586 H   0  0  0  0  0  0  0  0  0  0  0  0
    8.2745    3.9766  -12.2111 H   0  0  0  0  0  0  0  0  0  0  0  0
    8.0477    6.5586  -10.9951 H   0  0  0  0  0  0  0  0  0  0  0  0
    8.2210    5.0201  -10.1640 H   0  0  0  0  0  0  0  0  0  0  0  0
    8.2142    6.1617   -7.7122 H   0  0  0  0  0  0  0  0  0  0  0  0
    9.6065    7.5137   -6.1436 H   0  0  0  0  0  0  0  0  0  0  0  0
   11.6196    8.7095   -6.9984 H   0  0  0  0  0  0  0  0  0  0  0  0
   13.1035    9.2270   -9.3847 H   0  0  0  0  0  0  0  0  0  0  0  0
   13.0833    8.5004  -11.7637 H   0  0  0  0  0  0  0  0  0  0  0  0
    9.6756    7.2474  -12.5757 H   0  0  0  0  0  0  0  0  0  0  0  0
  2  1  2  0
  3  2  1  0
  4  3  2  0
  5  4  1  0
  6  1  1  0
  6  5  2  0
  7  5  1  0
  8  7  1  0
  9  8  1  0
 10  9  1  0
 11 10  1  0
 12 11  1  0
 13 12  2  0
 14 13  1  0
 15 14  2  0
 16 15  1  0
 17 16  1  0
 18 17  2  0
 19 11  2  0
 19 15  1  0
 19 18  1  0
 20  4  1  0
 20  9  1  0
 20 18  1  0
 21  1  1  0
 22  2  1  0
 23  3  1  0
 24  6  1  0
 25  7  1  0
 26  7  1  0
 27  8  1  0
 28  8  1  0
 29 10  1  0
 30 10  1  0
 31 12  1  0
 32 13  1  0
 33 14  1  0
 34 16  1  0
 35 17  1  0
 20 36  1  6
M  END
>  <b_m_subgroup_collapsed>  (1164) 
0

>  <r_i_docking_score>  (1164) 
-6.5761652929884598

>  <s_m_subgroup_title>  (1164) 
glide-dock_SP_D22_pv

>  <s_m_subgroupid>  (1164) 
glide-dock_SP_D22_pv

>  <Molecule ChEMBL ID>  (1164) 
CHEMBL1077189

>  <Standard Type>  (1164) 
Ki

>  <Standard Value>  (1164) 
10000.0

>  <label>  (1164) 
0

$$$$
CHEMBL47482
     RDKit          3D

 32 34  0  0  1  0  0  0  0  0999 V2000
    6.4358    5.7723  -11.8468 N   0  0  0  0  0  0  0  0  0  0  0  0
    7.6541    5.7394  -12.6753 C   0  0  0  0  0  0  0  0  0  0  0  0
    8.8876    5.1323  -11.9718 C   0  0  0  0  0  0  0  0  0  0  0  0
   10.0481    5.0778  -12.9588 C   0  0  0  0  0  0  0  0  0  0  0  0
   10.2242    3.9506  -13.7893 C   0  0  0  0  0  0  0  0  0  0  0  0
   11.2940    3.9066  -14.7038 C   0  0  0  0  0  0  0  0  0  0  0  0
   12.1888    4.9898  -14.7943 C   0  0  0  0  0  0  0  0  0  0  0  0
   12.0185    6.1177  -13.9678 C   0  0  0  0  0  0  0  0  0  0  0  0
   10.9509    6.1649  -13.0468 C   0  0  0  0  0  0  0  0  0  0  0  0
   10.7917    7.3575  -12.1160 C   0  0  0  0  0  0  0  0  0  0  0  0
   10.1846    6.9722  -10.7787 C   0  0  0  0  0  0  0  0  0  0  0  0
   10.5470    7.6722   -9.6092 C   0  0  0  0  0  0  0  0  0  0  0  0
   10.0301    7.2749   -8.3610 C   0  0  0  0  0  0  0  0  0  0  0  0
    9.1575    6.1735   -8.2792 C   0  0  0  0  0  0  0  0  0  0  0  0
    8.7887    5.4771   -9.4461 C   0  0  0  0  0  0  0  0  0  0  0  0
    9.2855    5.8828  -10.7032 C   0  0  0  0  0  0  0  0  0  0  0  0
    5.6324    5.9871  -12.4158 H   0  0  0  0  0  0  0  0  0  0  0  0
    6.5110    6.5124  -11.1389 H   0  0  0  0  0  0  0  0  0  0  0  0
    7.4292    5.1533  -13.5668 H   0  0  0  0  0  0  0  0  0  0  0  0
    7.8665    6.7548  -13.0135 H   0  0  0  0  0  0  0  0  0  0  0  0
    8.6582    4.1052  -11.6836 H   0  0  0  0  0  0  0  0  0  0  0  0
    9.5455    3.1120  -13.7235 H   0  0  0  0  0  0  0  0  0  0  0  0
   11.4319    3.0406  -15.3344 H   0  0  0  0  0  0  0  0  0  0  0  0
   13.0122    4.9542  -15.4926 H   0  0  0  0  0  0  0  0  0  0  0  0
   12.7198    6.9372  -14.0345 H   0  0  0  0  0  0  0  0  0  0  0  0
   11.7718    7.8045  -11.9471 H   0  0  0  0  0  0  0  0  0  0  0  0
   10.1572    8.1068  -12.5896 H   0  0  0  0  0  0  0  0  0  0  0  0
   11.2301    8.5075   -9.6641 H   0  0  0  0  0  0  0  0  0  0  0  0
   10.3061    7.8104   -7.4643 H   0  0  0  0  0  0  0  0  0  0  0  0
    8.7583    5.8702   -7.3223 H   0  0  0  0  0  0  0  0  0  0  0  0
    8.1113    4.6395   -9.3689 H   0  0  0  0  0  0  0  0  0  0  0  0
    6.2932    4.8967  -11.3619 H   0  0  0  0  0  0  0  0  0  0  0  0
  2  1  1  0
  3  2  1  0
  4  3  1  0
  5  4  2  0
  6  5  1  0
  7  6  2  0
  8  7  1  0
  9  4  1  0
  9  8  2  0
 10  9  1  0
 11 10  1  0
 12 11  2  0
 13 12  1  0
 14 13  2  0
 15 14  1  0
 16  3  1  0
 16 11  1  0
 16 15  2  0
 17  1  1  0
 18  1  1  0
 19  2  1  0
 20  2  1  0
 21  3  1  0
 22  5  1  0
 23  6  1  0
 24  7  1  0
 25  8  1  0
 26 10  1  0
 27 10  1  0
 28 12  1  0
 29 13  1  0
 30 14  1  0
 31 15  1  0
 32  1  1  0
M  CHG  1   1   1
M  END
>  <b_m_subgroup_collapsed>  (1165) 
0

>  <r_i_docking_score>  (1165) 
-6.5733699680163804

>  <s_m_subgroup_title>  (1165) 
glide-dock_SP_D22_pv

>  <s_m_subgroupid>  (1165) 
glide-dock_SP_D22_pv

>  <Molecule ChEMBL ID>  (1165) 
CHEMBL47482

>  <Standard Type>  (1165) 
Ki

>  <Standard Value>  (1165) 
10000.0

>  <label>  (1165) 
0

$$$$
CHEMBL323118
     RDKit          3D

 43 44  0  0  1  0  0  0  0  0999 V2000
   10.7516    0.7937  -15.1059 C   0  0  0  0  0  0  0  0  0  0  0  0
    9.4439    0.4835  -16.3515 S   0  0  0  0  0  0  0  0  0  0  0  0
    9.7409   -0.7770  -17.0469 O   0  0  0  0  0  0  0  0  0  0  0  0
    9.1711    1.7165  -17.1053 O   0  0  0  0  0  0  0  0  0  0  0  0
    8.0418    0.1784  -15.3805 N   0  0  0  0  0  0  0  0  0  0  0  0
    7.2873    1.0734  -14.6062 C   0  0  0  0  0  0  0  0  0  0  0  0
    7.6643    2.4263  -14.4330 C   0  0  0  0  0  0  0  0  0  0  0  0
    6.9167    3.3037  -13.6172 C   0  0  0  0  0  0  0  0  0  0  0  0
    7.4261    4.5722  -13.4473 O   0  0  0  0  0  0  0  0  0  0  0  0
    6.7398    5.4891  -12.6047 C   0  0  0  0  0  0  0  0  0  0  0  0
    7.5523    6.7934  -12.6071 C   0  0  0  0  0  0  0  0  0  0  0  0
    8.4860    6.8866  -11.4603 N   0  0  0  0  0  0  0  0  0  0  0  0
    9.3401    8.0890  -11.4789 C   0  0  0  0  0  0  0  0  0  0  0  0
   10.1749    8.1955  -10.2162 C   0  0  0  0  0  0  0  0  0  0  0  0
   11.5758    8.0325  -10.2650 C   0  0  0  0  0  0  0  0  0  0  0  0
   12.3439    8.1723   -9.0923 C   0  0  0  0  0  0  0  0  0  0  0  0
   11.7163    8.4640   -7.8660 C   0  0  0  0  0  0  0  0  0  0  0  0
   10.3190    8.6137   -7.8095 C   0  0  0  0  0  0  0  0  0  0  0  0
    9.5541    8.4890   -8.9837 C   0  0  0  0  0  0  0  0  0  0  0  0
    5.7382    2.8230  -12.9961 C   0  0  0  0  0  0  0  0  0  0  0  0
    5.3610    1.4758  -13.1597 C   0  0  0  0  0  0  0  0  0  0  0  0
    6.1284    0.6044  -13.9562 C   0  0  0  0  0  0  0  0  0  0  0  0
    5.7502   -0.6891  -14.0891 F   0  0  0  0  0  0  0  0  0  0  0  0
   11.6853    1.0091  -15.6255 H   0  0  0  0  0  0  0  0  0  0  0  0
   10.4842    1.6385  -14.4742 H   0  0  0  0  0  0  0  0  0  0  0  0
   10.8706   -0.0942  -14.4880 H   0  0  0  0  0  0  0  0  0  0  0  0
    7.6859   -0.7710  -15.4391 H   0  0  0  0  0  0  0  0  0  0  0  0
    8.5544    2.8106  -14.9053 H   0  0  0  0  0  0  0  0  0  0  0  0
    6.6110    5.1031  -11.5919 H   0  0  0  0  0  0  0  0  0  0  0  0
    5.7489    5.6776  -13.0214 H   0  0  0  0  0  0  0  0  0  0  0  0
    6.8686    7.6419  -12.5562 H   0  0  0  0  0  0  0  0  0  0  0  0
    8.0860    6.8887  -13.5458 H   0  0  0  0  0  0  0  0  0  0  0  0
    9.0464    6.0516  -11.3747 H   0  0  0  0  0  0  0  0  0  0  0  0
    8.7142    8.9789  -11.5631 H   0  0  0  0  0  0  0  0  0  0  0  0
    9.9879    8.0660  -12.3556 H   0  0  0  0  0  0  0  0  0  0  0  0
   12.0716    7.8195  -11.2010 H   0  0  0  0  0  0  0  0  0  0  0  0
   13.4185    8.0706   -9.1351 H   0  0  0  0  0  0  0  0  0  0  0  0
   12.3075    8.5815   -6.9707 H   0  0  0  0  0  0  0  0  0  0  0  0
    9.8337    8.8377   -6.8707 H   0  0  0  0  0  0  0  0  0  0  0  0
    8.4855    8.6229   -8.9320 H   0  0  0  0  0  0  0  0  0  0  0  0
    5.1325    3.4537  -12.3631 H   0  0  0  0  0  0  0  0  0  0  0  0
    4.4860    1.1007  -12.6601 H   0  0  0  0  0  0  0  0  0  0  0  0
    7.8760    6.9893  -10.6470 H   0  0  0  0  0  0  0  0  0  0  0  0
  2  1  1  0
  3  2  2  0
  4  2  2  0
  5  2  1  0
  6  5  1  0
  7  6  1  0
  8  7  2  0
  9  8  1  0
 10  9  1  0
 11 10  1  0
 12 11  1  0
 13 12  1  0
 14 13  1  0
 15 14  2  0
 16 15  1  0
 17 16  2  0
 18 17  1  0
 19 14  1  0
 19 18  2  0
 20  8  1  0
 21 20  2  0
 22  6  2  0
 22 21  1  0
 23 22  1  0
 24  1  1  0
 25  1  1  0
 26  1  1  0
 27  5  1  0
 28  7  1  0
 29 10  1  0
 30 10  1  0
 31 11  1  0
 32 11  1  0
 33 12  1  0
 34 13  1  0
 35 13  1  0
 36 15  1  0
 37 16  1  0
 38 17  1  0
 39 18  1  0
 40 19  1  0
 41 20  1  0
 42 21  1  0
 43 12  1  0
M  CHG  1  12   1
M  END
>  <b_m_subgroup_collapsed>  (1166) 
0

>  <r_i_docking_score>  (1166) 
-6.5726511266150602

>  <s_m_subgroup_title>  (1166) 
glide-dock_SP_D22_pv

>  <s_m_subgroupid>  (1166) 
glide-dock_SP_D22_pv

>  <Molecule ChEMBL ID>  (1166) 
CHEMBL323118

>  <Standard Type>  (1166) 
Ki

>  <Standard Value>  (1166) 
10000.0

>  <label>  (1166) 
0

$$$$
CHEMBL5776728
     RDKit          3D

 51 55  0  0  1  0  0  0  0  0999 V2000
    7.6542    2.1523  -17.3675 O   0  0  0  0  0  0  0  0  0  0  0  0
    6.9403    1.3915  -16.7072 C   0  0  0  0  0  0  0  0  0  0  0  0
    5.8771    0.5718  -17.3978 C   0  0  0  0  0  0  0  0  0  0  0  0
    5.5934    0.8749  -18.6892 N   0  0  0  0  0  0  0  0  0  0  0  0
    4.6607    0.1432  -19.3340 C   0  0  0  0  0  0  0  0  0  0  0  0
    3.9709   -0.9276  -18.7348 C   0  0  0  0  0  0  0  0  0  0  0  0
    4.2545   -1.2453  -17.3944 C   0  0  0  0  0  0  0  0  0  0  0  0
    5.2226   -0.4787  -16.7136 C   0  0  0  0  0  0  0  0  0  0  0  0
    5.5668   -0.7759  -15.2693 C   0  0  0  0  0  0  0  0  0  0  0  0
    6.1245    0.4584  -14.5410 C   0  0  0  0  0  0  0  0  0  0  0  0
    7.0345    1.2820  -15.3571 N   0  0  0  0  0  0  0  0  0  0  0  0
    8.0272    2.0444  -14.5872 C   0  0  0  0  0  0  0  0  0  0  0  0
    7.3852    3.2686  -13.9045 C   0  0  0  0  0  0  0  0  0  0  0  0
    8.3651    3.9599  -13.0690 N   0  0  0  0  0  0  0  0  0  0  0  0
    9.0270    5.0356  -13.8076 C   0  0  0  0  0  0  0  0  0  0  0  0
   10.1123    5.6839  -12.9230 C   0  0  0  0  0  0  0  0  0  0  0  0
    9.5646    6.2071  -11.6646 N   0  0  0  0  0  0  0  0  0  0  0  0
   10.4619    6.9925  -10.8960 C   0  0  0  0  0  0  0  0  0  0  0  0
   11.6518    7.3731  -11.3743 N   0  0  0  0  0  0  0  0  0  0  0  0
   12.3208    8.0953  -10.3510 O   0  0  0  0  0  0  0  0  0  0  0  0
   11.5070    8.1872   -9.2369 C   0  0  0  0  0  0  0  0  0  0  0  0
   11.7233    8.8102   -7.9972 C   0  0  0  0  0  0  0  0  0  0  0  0
   10.6846    8.7817   -7.0496 C   0  0  0  0  0  0  0  0  0  0  0  0
   10.8891    9.5711   -5.5278 Cl  0  0  0  0  0  0  0  0  0  0  0  0
    9.4691    8.1235   -7.3564 C   0  0  0  0  0  0  0  0  0  0  0  0
    9.2855    7.4861   -8.6052 C   0  0  0  0  0  0  0  0  0  0  0  0
   10.3253    7.5114   -9.5696 C   0  0  0  0  0  0  0  0  0  0  0  0
    8.7848    5.1797  -10.9693 C   0  0  0  0  0  0  0  0  0  0  0  0
    7.7213    4.5613  -11.8987 C   0  0  0  0  0  0  0  0  0  0  0  0
    4.4627    0.4135  -20.3622 H   0  0  0  0  0  0  0  0  0  0  0  0
    3.2342   -1.4875  -19.2892 H   0  0  0  0  0  0  0  0  0  0  0  0
    3.7399   -2.0587  -16.9027 H   0  0  0  0  0  0  0  0  0  0  0  0
    4.6917   -1.1610  -14.7448 H   0  0  0  0  0  0  0  0  0  0  0  0
    6.3095   -1.5683  -15.2582 H   0  0  0  0  0  0  0  0  0  0  0  0
    5.2904    1.0972  -14.2471 H   0  0  0  0  0  0  0  0  0  0  0  0
    6.6022    0.1400  -13.6113 H   0  0  0  0  0  0  0  0  0  0  0  0
    8.4864    1.3888  -13.8472 H   0  0  0  0  0  0  0  0  0  0  0  0
    8.8558    2.3694  -15.2173 H   0  0  0  0  0  0  0  0  0  0  0  0
    6.9399    3.9368  -14.6431 H   0  0  0  0  0  0  0  0  0  0  0  0
    6.5651    2.9138  -13.2777 H   0  0  0  0  0  0  0  0  0  0  0  0
    9.4858    4.6350  -14.7125 H   0  0  0  0  0  0  0  0  0  0  0  0
    8.2958    5.7786  -14.1252 H   0  0  0  0  0  0  0  0  0  0  0  0
   10.8864    4.9499  -12.6979 H   0  0  0  0  0  0  0  0  0  0  0  0
   10.5941    6.4820  -13.4839 H   0  0  0  0  0  0  0  0  0  0  0  0
   12.6566    9.3091   -7.7839 H   0  0  0  0  0  0  0  0  0  0  0  0
    8.6607    8.1139   -6.6391 H   0  0  0  0  0  0  0  0  0  0  0  0
    8.3325    7.0260   -8.7965 H   0  0  0  0  0  0  0  0  0  0  0  0
    9.4577    4.4095  -10.5890 H   0  0  0  0  0  0  0  0  0  0  0  0
    8.2528    5.5847  -10.1205 H   0  0  0  0  0  0  0  0  0  0  0  0
    6.9955    5.3177  -12.2018 H   0  0  0  0  0  0  0  0  0  0  0  0
    7.1761    3.7900  -11.3486 H   0  0  0  0  0  0  0  0  0  0  0  0
  2  1  2  0
  3  2  1  0
  4  3  1  0
  5  4  2  0
  6  5  1  0
  7  6  2  0
  8  3  2  0
  8  7  1  0
  9  8  1  0
 10  9  1  0
 11  2  1  0
 11 10  1  0
 12 11  1  0
 13 12  1  0
 14 13  1  0
 15 14  1  0
 16 15  1  0
 17 16  1  0
 18 17  1  0
 19 18  2  0
 20 19  1  0
 21 20  1  0
 22 21  2  0
 23 22  1  0
 24 23  1  0
 25 23  2  0
 26 25  1  0
 27 18  1  0
 27 21  1  0
 27 26  2  0
 28 17  1  0
 29 14  1  0
 29 28  1  0
 30  5  1  0
 31  6  1  0
 32  7  1  0
 33  9  1  0
 34  9  1  0
 35 10  1  0
 36 10  1  0
 37 12  1  0
 38 12  1  0
 39 13  1  0
 40 13  1  0
 41 15  1  0
 42 15  1  0
 43 16  1  0
 44 16  1  0
 45 22  1  0
 46 25  1  0
 47 26  1  0
 48 28  1  0
 49 28  1  0
 50 29  1  0
 51 29  1  0
M  END
>  <b_m_subgroup_collapsed>  (1167) 
0

>  <r_i_docking_score>  (1167) 
-6.5704974458629204

>  <s_m_subgroup_title>  (1167) 
glide-dock_SP_D22_pv

>  <s_m_subgroupid>  (1167) 
glide-dock_SP_D22_pv

>  <Molecule ChEMBL ID>  (1167) 
CHEMBL5776728

>  <Standard Type>  (1167) 
Ki

>  <Standard Value>  (1167) 
10000.0

>  <label>  (1167) 
0

$$$$
CHEMBL515187
     RDKit          3D

 51 54  0  0  1  0  0  0  0  0999 V2000
    9.5491    6.9473   -6.8883 C   0  0  0  0  0  0  0  0  0  0  0  0
    9.5096    7.5970   -8.2764 C   0  0  0  0  0  0  0  0  0  0  0  0
    9.1950    6.5789   -9.3907 C   0  0  0  0  0  0  0  0  0  0  0  0
    8.8860    7.1963  -10.7175 N   0  0  1  0  0  0  0  0  0  0  0  0
    9.8540    8.1987  -11.1951 C   0  0  0  0  0  0  0  0  0  0  0  0
   11.1377    7.4783  -11.5805 C   0  0  0  0  0  0  0  0  0  0  0  0
   10.9433    6.4163  -12.6469 C   0  0  0  0  0  0  0  0  0  0  0  0
   11.9571    6.0119  -13.5220 C   0  0  0  0  0  0  0  0  0  0  0  0
   11.7654    4.8903  -14.3309 C   0  0  0  0  0  0  0  0  0  0  0  0
   10.5516    4.1864  -14.2779 C   0  0  0  0  0  0  0  0  0  0  0  0
    9.4414    4.5700  -13.4735 C   0  0  0  0  0  0  0  0  0  0  0  0
    9.7081    5.7104  -12.6542 C   0  0  0  0  0  0  0  0  0  0  0  0
    8.5334    6.2521  -11.8198 C   0  0  1  0  0  0  0  0  0  0  0  0
    7.5314    5.1814  -11.3805 C   0  0  0  0  0  0  0  0  0  0  0  0
    7.1953    4.1723  -12.4430 C   0  0  0  0  0  0  0  0  0  0  0  0
    5.9537    3.5215  -12.3203 C   0  0  0  0  0  0  0  0  0  0  0  0
    5.6017    2.5024  -13.2087 C   0  0  0  0  0  0  0  0  0  0  0  0
    6.4860    2.1628  -14.2397 C   0  0  0  0  0  0  0  0  0  0  0  0
    7.7351    2.8116  -14.3765 C   0  0  0  0  0  0  0  0  0  0  0  0
    8.4861    2.4499  -15.4684 O   0  0  0  0  0  0  0  0  0  0  0  0
    9.0340    1.2120  -15.5449 C   0  0  0  0  0  0  0  0  0  0  0  0
    9.0354    0.3619  -14.6528 O   0  0  0  0  0  0  0  0  0  0  0  0
    9.6758    0.9629  -16.9107 C   0  0  0  0  0  0  0  0  0  0  0  0
   10.7584   -0.1241  -16.8869 C   0  0  0  0  0  0  0  0  0  0  0  0
    8.1296    3.8412  -13.4594 C   0  0  0  0  0  0  0  0  0  0  0  0
    9.7673    7.6867   -6.1174 H   0  0  0  0  0  0  0  0  0  0  0  0
   10.3141    6.1723   -6.8332 H   0  0  0  0  0  0  0  0  0  0  0  0
    8.5888    6.4914   -6.6434 H   0  0  0  0  0  0  0  0  0  0  0  0
    8.7521    8.3826   -8.2713 H   0  0  0  0  0  0  0  0  0  0  0  0
   10.4698    8.0802   -8.4567 H   0  0  0  0  0  0  0  0  0  0  0  0
    9.9988    5.8473   -9.4825 H   0  0  0  0  0  0  0  0  0  0  0  0
    8.3136    6.0370   -9.0491 H   0  0  0  0  0  0  0  0  0  0  0  0
    9.4399    8.7147  -12.0630 H   0  0  0  0  0  0  0  0  0  0  0  0
   10.0399    8.9723  -10.4525 H   0  0  0  0  0  0  0  0  0  0  0  0
   11.8992    8.1723  -11.9224 H   0  0  0  0  0  0  0  0  0  0  0  0
   11.5818    7.0015  -10.7067 H   0  0  0  0  0  0  0  0  0  0  0  0
   12.8983    6.5362  -13.5367 H   0  0  0  0  0  0  0  0  0  0  0  0
   12.5603    4.5508  -14.9791 H   0  0  0  0  0  0  0  0  0  0  0  0
   10.5272    3.3195  -14.9063 H   0  0  0  0  0  0  0  0  0  0  0  0
    7.9897    6.8674  -12.5393 H   0  0  0  0  0  0  0  0  0  0  0  0
    7.9181    4.5815  -10.5580 H   0  0  0  0  0  0  0  0  0  0  0  0
    6.6165    5.6708  -11.0469 H   0  0  0  0  0  0  0  0  0  0  0  0
    5.2860    3.7825  -11.5123 H   0  0  0  0  0  0  0  0  0  0  0  0
    4.6550    1.9922  -13.1079 H   0  0  0  0  0  0  0  0  0  0  0  0
    6.2003    1.3898  -14.9386 H   0  0  0  0  0  0  0  0  0  0  0  0
    8.8874    0.6803  -17.6083 H   0  0  0  0  0  0  0  0  0  0  0  0
   10.1019    1.8974  -17.2766 H   0  0  0  0  0  0  0  0  0  0  0  0
   11.1573   -0.2941  -17.8868 H   0  0  0  0  0  0  0  0  0  0  0  0
   10.3656   -1.0738  -16.5219 H   0  0  0  0  0  0  0  0  0  0  0  0
   11.5897    0.1723  -16.2468 H   0  0  0  0  0  0  0  0  0  0  0  0
    7.9919    7.6762  -10.5444 H   0  0  0  0  0  0  0  0  0  0  0  0
  2  1  1  0
  3  2  1  0
  4  3  1  0
  5  4  1  0
  6  5  1  0
  7  6  1  0
  8  7  2  0
  9  8  1  0
 10  9  2  0
 11 10  1  0
 12  7  1  0
 12 11  2  0
 13  4  1  0
 13 12  1  0
 14 13  1  0
 15 14  1  0
 16 15  2  0
 17 16  1  0
 18 17  2  0
 19 18  1  0
 20 19  1  0
 21 20  1  0
 22 21  2  0
 23 21  1  0
 24 23  1  0
 25 11  1  0
 25 15  1  0
 25 19  2  0
 26  1  1  0
 27  1  1  0
 28  1  1  0
 29  2  1  0
 30  2  1  0
 31  3  1  0
 32  3  1  0
 33  5  1  0
 34  5  1  0
 35  6  1  0
 36  6  1  0
 37  8  1  0
 38  9  1  0
 39 10  1  0
 13 40  1  6
 41 14  1  0
 42 14  1  0
 43 16  1  0
 44 17  1  0
 45 18  1  0
 46 23  1  0
 47 23  1  0
 48 24  1  0
 49 24  1  0
 50 24  1  0
  4 51  1  1
M  CHG  1   4   1
M  END
>  <b_m_subgroup_collapsed>  (1168) 
0

>  <r_i_docking_score>  (1168) 
-6.5666914834387597

>  <s_m_subgroup_title>  (1168) 
glide-dock_SP_D22_pv

>  <s_m_subgroupid>  (1168) 
glide-dock_SP_D22_pv

>  <Molecule ChEMBL ID>  (1168) 
CHEMBL515187

>  <Standard Type>  (1168) 
Ki

>  <Standard Value>  (1168) 
10000.0

>  <label>  (1168) 
0

$$$$
CHEMBL437888
     RDKit          3D

 48 51  0  0  1  0  0  0  0  0999 V2000
   12.4860    8.3474   -3.4748 C   0  0  0  0  0  0  0  0  0  0  0  0
   12.0243    7.0230   -3.4918 C   0  0  0  0  0  0  0  0  0  0  0  0
   11.2425    6.5723   -4.5720 C   0  0  0  0  0  0  0  0  0  0  0  0
   10.8650    7.4140   -5.6410 C   0  0  0  0  0  0  0  0  0  0  0  0
    9.9360    7.3374   -6.7492 C   0  0  0  0  0  0  0  0  0  0  0  0
   10.0673    8.5154   -7.4173 C   0  0  0  0  0  0  0  0  0  0  0  0
   10.9829    9.3276   -6.7780 N   0  0  0  0  0  0  0  0  0  0  0  0
   11.4315    8.7216   -5.6306 C   0  0  0  0  0  0  0  0  0  0  0  0
   12.2384    9.1812   -4.5769 C   0  0  0  0  0  0  0  0  0  0  0  0
    9.2855    8.9724   -8.5750 C   0  0  0  0  0  0  0  0  0  0  0  0
   10.1172    9.3090   -9.8081 C   0  0  0  0  0  0  0  0  0  0  0  0
   11.2956    8.4351  -10.2009 C   0  0  0  0  0  0  0  0  0  0  0  0
   10.8096    7.2086  -10.9384 C   0  0  0  0  0  0  0  0  0  0  0  0
   10.3496    6.1255   -9.9569 C   0  0  0  0  0  0  0  0  0  0  0  0
    8.9309    6.0692   -9.5915 N   0  0  1  0  0  0  0  0  0  0  0  0
    8.0852    5.3725  -10.6025 C   0  0  0  0  0  0  0  0  0  0  0  0
    8.3622    5.5985  -12.0806 C   0  0  0  0  0  0  0  0  0  0  0  0
    9.3055    4.7112  -12.8672 C   0  0  0  0  0  0  0  0  0  0  0  0
    7.8194    4.5982  -13.0793 C   0  0  0  0  0  0  0  0  0  0  0  0
    8.8192    5.4263   -8.2468 C   0  0  0  0  0  0  0  0  0  0  0  0
    8.8096    6.3746   -7.0220 C   0  0  0  0  0  0  0  0  0  0  0  0
   13.0754    8.7068   -2.6434 H   0  0  0  0  0  0  0  0  0  0  0  0
   12.2479    6.3556   -2.6716 H   0  0  0  0  0  0  0  0  0  0  0  0
   10.8769    5.5667   -4.5506 H   0  0  0  0  0  0  0  0  0  0  0  0
   11.2023   10.2647   -7.0803 H   0  0  0  0  0  0  0  0  0  0  0  0
   12.6501   10.1722   -4.6021 H   0  0  0  0  0  0  0  0  0  0  0  0
    8.4865    8.2922   -8.8290 H   0  0  0  0  0  0  0  0  0  0  0  0
    8.7000    9.8197   -8.2486 H   0  0  0  0  0  0  0  0  0  0  0  0
    9.4310    9.3723  -10.6524 H   0  0  0  0  0  0  0  0  0  0  0  0
   10.5872   10.2641   -9.6357 H   0  0  0  0  0  0  0  0  0  0  0  0
   11.9285    9.0033  -10.8838 H   0  0  0  0  0  0  0  0  0  0  0  0
   11.9391    8.1933   -9.3543 H   0  0  0  0  0  0  0  0  0  0  0  0
   10.0681    7.4794  -11.6830 H   0  0  0  0  0  0  0  0  0  0  0  0
   11.6536    6.8351  -11.5157 H   0  0  0  0  0  0  0  0  0  0  0  0
   10.4860    5.1418  -10.3907 H   0  0  0  0  0  0  0  0  0  0  0  0
   10.9862    6.1593   -9.0726 H   0  0  0  0  0  0  0  0  0  0  0  0
    8.0595    4.2987  -10.4102 H   0  0  0  0  0  0  0  0  0  0  0  0
    7.0857    5.7719  -10.4425 H   0  0  0  0  0  0  0  0  0  0  0  0
    8.2374    6.6305  -12.4020 H   0  0  0  0  0  0  0  0  0  0  0  0
    9.8937    5.1804  -13.6533 H   0  0  0  0  0  0  0  0  0  0  0  0
    9.7945    3.8894  -12.3469 H   0  0  0  0  0  0  0  0  0  0  0  0
    7.3212    3.7128  -12.6899 H   0  0  0  0  0  0  0  0  0  0  0  0
    7.4226    4.9723  -14.0197 H   0  0  0  0  0  0  0  0  0  0  0  0
    7.8753    4.8849   -8.1973 H   0  0  0  0  0  0  0  0  0  0  0  0
    9.5806    4.6547   -8.1335 H   0  0  0  0  0  0  0  0  0  0  0  0
    8.6666    5.7724   -6.1345 H   0  0  0  0  0  0  0  0  0  0  0  0
    7.8899    6.9491   -7.0468 H   0  0  0  0  0  0  0  0  0  0  0  0
    8.5654    7.0095   -9.5177 H   0  0  0  0  0  0  0  0  0  0  0  0
  2  1  2  0
  3  2  1  0
  4  3  2  0
  5  4  1  0
  6  5  2  0
  7  6  1  0
  8  4  1  0
  8  7  1  0
  9  1  1  0
  9  8  2  0
 10  6  1  0
 11 10  1  0
 12 11  1  0
 13 12  1  0
 14 13  1  0
 15 14  1  0
 16 15  1  0
 17 16  1  0
 18 17  1  0
 19 17  1  0
 19 18  1  0
 20 15  1  0
 21  5  1  0
 21 20  1  0
 22  1  1  0
 23  2  1  0
 24  3  1  0
 25  7  1  0
 26  9  1  0
 27 10  1  0
 28 10  1  0
 29 11  1  0
 30 11  1  0
 31 12  1  0
 32 12  1  0
 33 13  1  0
 34 13  1  0
 35 14  1  0
 36 14  1  0
 37 16  1  0
 38 16  1  0
 39 17  1  0
 40 18  1  0
 41 18  1  0
 42 19  1  0
 43 19  1  0
 44 20  1  0
 45 20  1  0
 46 21  1  0
 47 21  1  0
 15 48  1  1
M  CHG  1  15   1
M  END
>  <b_m_subgroup_collapsed>  (1169) 
0

>  <r_i_docking_score>  (1169) 
-6.5644298825025498

>  <s_m_subgroup_title>  (1169) 
glide-dock_SP_D22_pv

>  <s_m_subgroupid>  (1169) 
glide-dock_SP_D22_pv

>  <Molecule ChEMBL ID>  (1169) 
CHEMBL437888

>  <Standard Type>  (1169) 
Ki

>  <Standard Value>  (1169) 
10000.0

>  <label>  (1169) 
0

$$$$
CHEMBL86
     RDKit          3D

 43 43  0  0  1  0  0  0  0  0999 V2000
    5.4455    3.5734  -12.8154 C   0  0  0  0  0  0  0  0  0  0  0  0
    6.1458    4.8504  -12.3235 C   0  0  0  0  0  0  0  0  0  0  0  0
    7.5890    4.6258  -12.0217 N   0  0  0  0  0  0  0  0  0  0  0  0
    8.3972    4.6430  -13.2773 C   0  0  0  0  0  0  0  0  0  0  0  0
    9.7648    3.9553  -13.1669 C   0  0  0  0  0  0  0  0  0  0  0  0
    8.0946    5.5579  -10.9727 C   0  0  0  0  0  0  0  0  0  0  0  0
    9.1674    4.9572  -10.0508 C   0  0  0  0  0  0  0  0  0  0  0  0
    9.7237    5.9690   -9.1662 N   0  0  0  0  0  0  0  0  0  0  0  0
    9.2547    6.2905   -7.9533 C   0  0  0  0  0  0  0  0  0  0  0  0
    8.2679    5.7720   -7.4468 O   0  0  0  0  0  0  0  0  0  0  0  0
   10.0882    7.2670   -7.1845 C   0  0  0  0  0  0  0  0  0  0  0  0
   10.4274    6.9725   -5.8468 C   0  0  0  0  0  0  0  0  0  0  0  0
   11.2962    7.7993   -5.1202 C   0  0  0  0  0  0  0  0  0  0  0  0
   11.8312    7.3151   -3.5465 Cl  0  0  0  0  0  0  0  0  0  0  0  0
   11.7710    8.9825   -5.7129 C   0  0  0  0  0  0  0  0  0  0  0  0
   12.7014    9.7721   -5.0469 N   0  0  0  0  0  0  0  0  0  0  0  0
   11.3669    9.3272   -7.0146 C   0  0  0  0  0  0  0  0  0  0  0  0
   10.5642    8.4569   -7.7804 C   0  0  0  0  0  0  0  0  0  0  0  0
   10.2435    8.7378   -9.0883 O   0  0  0  0  0  0  0  0  0  0  0  0
   11.2860    9.2820   -9.8820 C   0  0  0  0  0  0  0  0  0  0  0  0
    4.3978    3.7738  -13.0389 H   0  0  0  0  0  0  0  0  0  0  0  0
    5.8901    3.1690  -13.7232 H   0  0  0  0  0  0  0  0  0  0  0  0
    5.4735    2.7949  -12.0530 H   0  0  0  0  0  0  0  0  0  0  0  0
    5.5994    5.1888  -11.4468 H   0  0  0  0  0  0  0  0  0  0  0  0
    6.0383    5.6575  -13.0489 H   0  0  0  0  0  0  0  0  0  0  0  0
    7.8523    4.1231  -14.0639 H   0  0  0  0  0  0  0  0  0  0  0  0
    8.5168    5.6675  -13.6346 H   0  0  0  0  0  0  0  0  0  0  0  0
   10.1679    3.7529  -14.1599 H   0  0  0  0  0  0  0  0  0  0  0  0
   10.4946    4.5900  -12.6667 H   0  0  0  0  0  0  0  0  0  0  0  0
    9.7015    3.0022  -12.6402 H   0  0  0  0  0  0  0  0  0  0  0  0
    7.2858    5.7728  -10.2845 H   0  0  0  0  0  0  0  0  0  0  0  0
    8.4064    6.5087  -11.4090 H   0  0  0  0  0  0  0  0  0  0  0  0
    9.9929    4.5024  -10.5874 H   0  0  0  0  0  0  0  0  0  0  0  0
    8.7209    4.1714   -9.4462 H   0  0  0  0  0  0  0  0  0  0  0  0
   10.5356    6.4754   -9.4869 H   0  0  0  0  0  0  0  0  0  0  0  0
   10.0595    6.0795   -5.3750 H   0  0  0  0  0  0  0  0  0  0  0  0
   13.4331   10.1931   -5.6106 H   0  0  0  0  0  0  0  0  0  0  0  0
   13.0533    9.3975   -4.1763 H   0  0  0  0  0  0  0  0  0  0  0  0
   11.6859   10.2562   -7.4443 H   0  0  0  0  0  0  0  0  0  0  0  0
   11.1242    8.9820  -10.9169 H   0  0  0  0  0  0  0  0  0  0  0  0
   11.2861   10.3698   -9.8368 H   0  0  0  0  0  0  0  0  0  0  0  0
   12.2715    8.9134   -9.5920 H   0  0  0  0  0  0  0  0  0  0  0  0
    7.6381    3.7006  -11.6204 H   0  0  0  0  0  0  0  0  0  0  0  0
  2  1  1  0
  3  2  1  0
  4  3  1  0
  5  4  1  0
  6  3  1  0
  7  6  1  0
  8  7  1  0
  9  8  1  0
 10  9  2  0
 11  9  1  0
 12 11  1  0
 13 12  2  0
 14 13  1  0
 15 13  1  0
 16 15  1  0
 17 15  2  0
 18 11  2  0
 18 17  1  0
 19 18  1  0
 20 19  1  0
 21  1  1  0
 22  1  1  0
 23  1  1  0
 24  2  1  0
 25  2  1  0
 26  4  1  0
 27  4  1  0
 28  5  1  0
 29  5  1  0
 30  5  1  0
 31  6  1  0
 32  6  1  0
 33  7  1  0
 34  7  1  0
 35  8  1  0
 36 12  1  0
 37 16  1  0
 38 16  1  0
 39 17  1  0
 40 20  1  0
 41 20  1  0
 42 20  1  0
 43  3  1  0
M  CHG  1   3   1
M  END
>  <b_m_subgroup_collapsed>  (1170) 
0

>  <r_i_docking_score>  (1170) 
-6.5633132116103399

>  <s_m_subgroup_title>  (1170) 
glide-dock_SP_D22_pv

>  <s_m_subgroupid>  (1170) 
glide-dock_SP_D22_pv

>  <Molecule ChEMBL ID>  (1170) 
CHEMBL86

>  <Standard Type>  (1170) 
Ki

>  <Standard Value>  (1170) 
42.0

>  <label>  (1170) 
1

$$$$
CHEMBL487960
     RDKit          3D

 57 59  0  0  1  0  0  0  0  0999 V2000
    5.8642   -0.7992  -14.3275 C   0  0  0  0  0  0  0  0  0  0  0  0
    5.2845    0.1974  -13.4978 O   0  0  0  0  0  0  0  0  0  0  0  0
    5.8640    1.4496  -13.4865 C   0  0  0  0  0  0  0  0  0  0  0  0
    5.2861    2.4179  -12.6422 C   0  0  0  0  0  0  0  0  0  0  0  0
    5.8067    3.7206  -12.5520 C   0  0  0  0  0  0  0  0  0  0  0  0
    6.9343    4.0713  -13.3082 C   0  0  0  0  0  0  0  0  0  0  0  0
    7.5322    3.1196  -14.1580 C   0  0  0  0  0  0  0  0  0  0  0  0
    8.7566    3.5164  -14.9528 C   0  0  0  0  0  0  0  0  0  0  0  0
   10.0629    3.0704  -14.2931 C   0  0  0  0  0  0  0  0  0  0  0  0
   11.2365    3.7780  -14.9446 C   0  0  0  0  0  0  0  0  0  0  0  0
   11.8363    3.2120  -16.0889 C   0  0  0  0  0  0  0  0  0  0  0  0
   12.8849    3.8821  -16.7435 C   0  0  0  0  0  0  0  0  0  0  0  0
   13.3470    5.1117  -16.2419 C   0  0  0  0  0  0  0  0  0  0  0  0
   12.7564    5.6775  -15.0962 C   0  0  0  0  0  0  0  0  0  0  0  0
   11.6738    5.0298  -14.4481 C   0  0  0  0  0  0  0  0  0  0  0  0
   10.9960    5.5625  -13.3681 O   0  0  0  0  0  0  0  0  0  0  0  0
   11.2458    6.9145  -13.0088 C   0  0  0  0  0  0  0  0  0  0  0  0
   10.0540    7.4938  -12.2284 C   0  0  0  0  0  0  0  0  0  0  0  0
   10.1282    7.2132  -10.7972 N   0  0  0  0  0  0  0  0  0  0  0  0
    9.3625    5.9969  -10.5037 C   0  0  0  0  0  0  0  0  0  0  0  0
    9.4200    5.6853   -8.9968 C   0  0  0  0  0  0  0  0  0  0  0  0
    8.8858    6.8289   -8.2201 N   0  0  0  0  0  0  0  0  0  0  0  0
    8.8231    6.5743   -6.7705 C   0  0  0  0  0  0  0  0  0  0  0  0
    9.6049    8.0742   -8.5569 C   0  0  0  0  0  0  0  0  0  0  0  0
    9.5206    8.3299  -10.0679 C   0  0  0  0  0  0  0  0  0  0  0  0
    6.9989    1.8159  -14.2538 C   0  0  0  0  0  0  0  0  0  0  0  0
    5.2875   -1.7210  -14.2466 H   0  0  0  0  0  0  0  0  0  0  0  0
    5.8537   -0.5003  -15.3763 H   0  0  0  0  0  0  0  0  0  0  0  0
    6.8869   -1.0263  -14.0244 H   0  0  0  0  0  0  0  0  0  0  0  0
    4.4366    2.1592  -12.0371 H   0  0  0  0  0  0  0  0  0  0  0  0
    5.3535    4.4431  -11.8891 H   0  0  0  0  0  0  0  0  0  0  0  0
    7.3406    5.0692  -13.2275 H   0  0  0  0  0  0  0  0  0  0  0  0
    8.7576    4.6034  -15.0470 H   0  0  0  0  0  0  0  0  0  0  0  0
    8.6875    3.1167  -15.9653 H   0  0  0  0  0  0  0  0  0  0  0  0
   10.1814    1.9881  -14.3652 H   0  0  0  0  0  0  0  0  0  0  0  0
   10.0470    3.2985  -13.2262 H   0  0  0  0  0  0  0  0  0  0  0  0
   11.4860    2.2652  -16.4737 H   0  0  0  0  0  0  0  0  0  0  0  0
   13.3439    3.4480  -17.6206 H   0  0  0  0  0  0  0  0  0  0  0  0
   14.1674    5.6191  -16.7283 H   0  0  0  0  0  0  0  0  0  0  0  0
   13.1512    6.6149  -14.7366 H   0  0  0  0  0  0  0  0  0  0  0  0
   12.1796    7.0059  -12.4522 H   0  0  0  0  0  0  0  0  0  0  0  0
   11.3374    7.5244  -13.9065 H   0  0  0  0  0  0  0  0  0  0  0  0
   10.0858    8.5719  -12.3704 H   0  0  0  0  0  0  0  0  0  0  0  0
    9.0986    7.1777  -12.6466 H   0  0  0  0  0  0  0  0  0  0  0  0
    8.3226    6.1123  -10.8187 H   0  0  0  0  0  0  0  0  0  0  0  0
    9.7746    5.1576  -11.0665 H   0  0  0  0  0  0  0  0  0  0  0  0
    8.8288    4.7924   -8.7857 H   0  0  0  0  0  0  0  0  0  0  0  0
   10.4466    5.4731   -8.6929 H   0  0  0  0  0  0  0  0  0  0  0  0
    9.7976    6.2972   -6.3655 H   0  0  0  0  0  0  0  0  0  0  0  0
    8.4690    7.4634   -6.2472 H   0  0  0  0  0  0  0  0  0  0  0  0
    8.1116    5.7729   -6.5721 H   0  0  0  0  0  0  0  0  0  0  0  0
    9.1521    8.9113   -8.0225 H   0  0  0  0  0  0  0  0  0  0  0  0
   10.6463    8.0083   -8.2368 H   0  0  0  0  0  0  0  0  0  0  0  0
   10.0592    9.2505  -10.2910 H   0  0  0  0  0  0  0  0  0  0  0  0
    8.4863    8.4821  -10.3815 H   0  0  0  0  0  0  0  0  0  0  0  0
    7.4830    1.1091  -14.9102 H   0  0  0  0  0  0  0  0  0  0  0  0
    7.9205    6.9724   -8.5151 H   0  0  0  0  0  0  0  0  0  0  0  0
  2  1  1  0
  3  2  1  0
  4  3  1  0
  5  4  2  0
  6  5  1  0
  7  6  2  0
  8  7  1  0
  9  8  1  0
 10  9  1  0
 11 10  2  0
 12 11  1  0
 13 12  2  0
 14 13  1  0
 15 10  1  0
 15 14  2  0
 16 15  1  0
 17 16  1  0
 18 17  1  0
 19 18  1  0
 20 19  1  0
 21 20  1  0
 22 21  1  0
 23 22  1  0
 24 22  1  0
 25 19  1  0
 25 24  1  0
 26  3  2  0
 26  7  1  0
 27  1  1  0
 28  1  1  0
 29  1  1  0
 30  4  1  0
 31  5  1  0
 32  6  1  0
 33  8  1  0
 34  8  1  0
 35  9  1  0
 36  9  1  0
 37 11  1  0
 38 12  1  0
 39 13  1  0
 40 14  1  0
 41 17  1  0
 42 17  1  0
 43 18  1  0
 44 18  1  0
 45 20  1  0
 46 20  1  0
 47 21  1  0
 48 21  1  0
 49 23  1  0
 50 23  1  0
 51 23  1  0
 52 24  1  0
 53 24  1  0
 54 25  1  0
 55 25  1  0
 56 26  1  0
 57 22  1  0
M  CHG  1  22   1
M  END
>  <b_m_subgroup_collapsed>  (1171) 
0

>  <r_i_docking_score>  (1171) 
-6.5627563233226098

>  <s_m_subgroup_title>  (1171) 
glide-dock_SP_D22_pv

>  <s_m_subgroupid>  (1171) 
glide-dock_SP_D22_pv

>  <Molecule ChEMBL ID>  (1171) 
CHEMBL487960

>  <Standard Type>  (1171) 
Ki

>  <Standard Value>  (1171) 
178000.0

>  <label>  (1171) 
0

$$$$
CHEMBL595720
     RDKit          3D

 42 44  0  0  1  0  0  0  0  0999 V2000
    7.0908    6.6135  -12.5864 C   0  0  0  0  0  0  0  0  0  0  0  0
    7.4290    5.2159  -12.9313 N   0  0  1  0  0  0  0  0  0  0  0  0
    8.1934    4.5680  -11.8464 C   0  0  0  0  0  0  0  0  0  0  0  0
    9.6669    5.0134  -11.7557 C   0  0  0  0  0  0  0  0  0  0  0  0
   10.4962    5.1869  -13.0454 C   0  0  0  0  0  0  0  0  0  0  0  0
   11.2708    6.3695  -13.1388 C   0  0  0  0  0  0  0  0  0  0  0  0
   12.1012    6.6128  -14.2460 C   0  0  0  0  0  0  0  0  0  0  0  0
   12.8120    7.7731  -14.3181 O   0  0  0  0  0  0  0  0  0  0  0  0
   12.2025    5.6571  -15.2710 C   0  0  0  0  0  0  0  0  0  0  0  0
   11.4633    4.4654  -15.1839 C   0  0  0  0  0  0  0  0  0  0  0  0
   10.6137    4.2185  -14.0845 C   0  0  0  0  0  0  0  0  0  0  0  0
    9.8316    2.9208  -14.1001 C   0  0  0  0  0  0  0  0  0  0  0  0
    8.5413    3.0819  -14.9280 C   0  0  0  0  0  0  0  0  0  0  0  0
    7.3662    2.3214  -14.3418 C   0  0  0  0  0  0  0  0  0  0  0  0
    7.3446    0.9222  -14.5354 C   0  0  0  0  0  0  0  0  0  0  0  0
    6.3107    0.1365  -13.9946 C   0  0  0  0  0  0  0  0  0  0  0  0
    5.2898    0.7503  -13.2512 C   0  0  0  0  0  0  0  0  0  0  0  0
    5.3022    2.1408  -13.0454 C   0  0  0  0  0  0  0  0  0  0  0  0
    6.3280    2.9502  -13.5891 C   0  0  0  0  0  0  0  0  0  0  0  0
    6.2095    4.4637  -13.3534 C   0  0  0  0  0  0  0  0  0  0  0  0
    6.2904    6.5723  -11.8478 H   0  0  0  0  0  0  0  0  0  0  0  0
    6.7552    7.2002  -13.4439 H   0  0  0  0  0  0  0  0  0  0  0  0
    7.9351    7.1494  -12.1517 H   0  0  0  0  0  0  0  0  0  0  0  0
    7.6921    4.7222  -10.8888 H   0  0  0  0  0  0  0  0  0  0  0  0
    8.1894    3.5040  -11.9860 H   0  0  0  0  0  0  0  0  0  0  0  0
    9.7080    5.9404  -11.1846 H   0  0  0  0  0  0  0  0  0  0  0  0
   10.1621    4.2761  -11.1290 H   0  0  0  0  0  0  0  0  0  0  0  0
   11.2238    7.1149  -12.3576 H   0  0  0  0  0  0  0  0  0  0  0  0
   13.3789    7.8122  -15.0751 H   0  0  0  0  0  0  0  0  0  0  0  0
   12.8436    5.8292  -16.1231 H   0  0  0  0  0  0  0  0  0  0  0  0
   11.5465    3.7365  -15.9782 H   0  0  0  0  0  0  0  0  0  0  0  0
   10.4428    2.1294  -14.5395 H   0  0  0  0  0  0  0  0  0  0  0  0
    9.6597    2.5750  -13.0843 H   0  0  0  0  0  0  0  0  0  0  0  0
    8.2944    4.1312  -15.0461 H   0  0  0  0  0  0  0  0  0  0  0  0
    8.7221    2.7349  -15.9461 H   0  0  0  0  0  0  0  0  0  0  0  0
    8.1283    0.4395  -15.1015 H   0  0  0  0  0  0  0  0  0  0  0  0
    6.3040   -0.9330  -14.1536 H   0  0  0  0  0  0  0  0  0  0  0  0
    4.4868    0.1557  -12.8450 H   0  0  0  0  0  0  0  0  0  0  0  0
    4.4910    2.5803  -12.4850 H   0  0  0  0  0  0  0  0  0  0  0  0
    5.4568    4.6115  -12.5771 H   0  0  0  0  0  0  0  0  0  0  0  0
    5.7857    4.9106  -14.2470 H   0  0  0  0  0  0  0  0  0  0  0  0
    8.0559    5.2404  -13.7232 H   0  0  0  0  0  0  0  0  0  0  0  0
  2  1  1  0
  3  2  1  0
  4  3  1  0
  5  4  1  0
  6  5  1  0
  7  6  2  0
  8  7  1  0
  9  7  1  0
 10  9  2  0
 11  5  2  0
 11 10  1  0
 12 11  1  0
 13 12  1  0
 14 13  1  0
 15 14  2  0
 16 15  1  0
 17 16  2  0
 18 17  1  0
 19 14  1  0
 19 18  2  0
 20  2  1  0
 20 19  1  0
 21  1  1  0
 22  1  1  0
 23  1  1  0
 24  3  1  0
 25  3  1  0
 26  4  1  0
 27  4  1  0
 28  6  1  0
 29  8  1  0
 30  9  1  0
 31 10  1  0
 32 12  1  0
 33 12  1  0
 34 13  1  0
 35 13  1  0
 36 15  1  0
 37 16  1  0
 38 17  1  0
 39 18  1  0
 40 20  1  0
 41 20  1  0
  2 42  1  6
M  CHG  1   2   1
M  END
>  <b_m_subgroup_collapsed>  (1172) 
0

>  <r_i_docking_score>  (1172) 
-6.5602211299128097

>  <s_m_subgroup_title>  (1172) 
glide-dock_SP_D22_pv

>  <s_m_subgroupid>  (1172) 
glide-dock_SP_D22_pv

>  <Molecule ChEMBL ID>  (1172) 
CHEMBL595720

>  <Standard Type>  (1172) 
Ki

>  <Standard Value>  (1172) 
10000.0

>  <label>  (1172) 
0

$$$$
CHEMBL296512
     RDKit          3D

 42 45  0  0  1  0  0  0  0  0999 V2000
   10.7109    9.3660   -6.7269 F   0  0  0  0  0  0  0  0  0  0  0  0
   10.7407    8.7887   -7.9519 C   0  0  0  0  0  0  0  0  0  0  0  0
   11.9672    8.5695   -8.6010 C   0  0  0  0  0  0  0  0  0  0  0  0
   11.9936    7.9809   -9.8801 C   0  0  0  0  0  0  0  0  0  0  0  0
   10.8034    7.5914  -10.5459 C   0  0  0  0  0  0  0  0  0  0  0  0
   10.8846    6.9723  -11.8845 C   0  0  0  0  0  0  0  0  0  0  0  0
   11.9930    7.2749  -12.6571 N   0  0  0  0  0  0  0  0  0  0  0  0
   11.9924    6.5900  -13.8448 C   0  0  0  0  0  0  0  0  0  0  0  0
   12.8861    6.6145  -14.9289 C   0  0  0  0  0  0  0  0  0  0  0  0
   12.6679    5.7773  -16.0310 C   0  0  0  0  0  0  0  0  0  0  0  0
   13.5327    5.7786  -17.0713 F   0  0  0  0  0  0  0  0  0  0  0  0
   11.5456    4.9346  -16.0416 C   0  0  0  0  0  0  0  0  0  0  0  0
   10.6404    4.9387  -14.9608 C   0  0  0  0  0  0  0  0  0  0  0  0
   10.8237    5.7722  -13.8213 C   0  0  0  0  0  0  0  0  0  0  0  0
   10.0868    6.0805  -12.5972 C   0  0  0  0  0  0  0  0  0  0  0  0
    8.7084    5.5805  -12.1816 C   0  0  2  0  0  0  0  0  0  0  0  0
    8.3089    4.1781  -12.7011 C   0  0  0  0  0  0  0  0  0  0  0  0
    6.8854    3.8018  -12.2463 C   0  0  0  0  0  0  0  0  0  0  0  0
    5.8681    4.8332  -12.7058 C   0  0  0  0  0  0  0  0  0  0  0  0
    6.2662    6.1734  -12.2469 N   0  0  0  0  0  0  0  0  0  0  0  0
    7.6327    6.5822  -12.6469 C   0  0  0  0  0  0  0  0  0  0  0  0
    9.5838    7.8230   -9.8698 C   0  0  0  0  0  0  0  0  0  0  0  0
    9.5473    8.4115   -8.5894 C   0  0  0  0  0  0  0  0  0  0  0  0
   12.8917    8.8576   -8.1197 H   0  0  0  0  0  0  0  0  0  0  0  0
   12.9563    7.8212  -10.3388 H   0  0  0  0  0  0  0  0  0  0  0  0
   12.7098    7.9207  -12.3582 H   0  0  0  0  0  0  0  0  0  0  0  0
   13.7513    7.2576  -14.9075 H   0  0  0  0  0  0  0  0  0  0  0  0
   11.3746    4.2849  -16.8876 H   0  0  0  0  0  0  0  0  0  0  0  0
    9.8028    4.2745  -15.0515 H   0  0  0  0  0  0  0  0  0  0  0  0
    8.6795    5.5116  -11.0940 H   0  0  0  0  0  0  0  0  0  0  0  0
    8.2717    4.1661  -13.7834 H   0  0  0  0  0  0  0  0  0  0  0  0
    9.0328    3.4266  -12.3827 H   0  0  0  0  0  0  0  0  0  0  0  0
    6.5786    2.8397  -12.6558 H   0  0  0  0  0  0  0  0  0  0  0  0
    6.8591    3.7124  -11.1592 H   0  0  0  0  0  0  0  0  0  0  0  0
    5.7879    4.8315  -13.7947 H   0  0  0  0  0  0  0  0  0  0  0  0
    4.8867    4.5724  -12.3136 H   0  0  0  0  0  0  0  0  0  0  0  0
    5.6122    6.8574  -12.5987 H   0  0  0  0  0  0  0  0  0  0  0  0
    7.8172    7.5833  -12.2605 H   0  0  0  0  0  0  0  0  0  0  0  0
    7.6863    6.6768  -13.7274 H   0  0  0  0  0  0  0  0  0  0  0  0
    8.6402    7.5589  -10.3080 H   0  0  0  0  0  0  0  0  0  0  0  0
    8.5971    8.5707   -8.0991 H   0  0  0  0  0  0  0  0  0  0  0  0
    6.2265    6.2555  -11.2338 H   0  0  0  0  0  0  0  0  0  0  0  0
  2  1  1  0
  3  2  1  0
  4  3  2  0
  5  4  1  0
  6  5  1  0
  7  6  1  0
  8  7  1  0
  9  8  2  0
 10  9  1  0
 11 10  1  0
 12 10  2  0
 13 12  1  0
 14  8  1  0
 14 13  2  0
 15  6  2  0
 15 14  1  0
 16 15  1  0
 17 16  1  0
 18 17  1  0
 19 18  1  0
 20 19  1  0
 21 16  1  0
 21 20  1  0
 22  5  2  0
 23  2  2  0
 23 22  1  0
 24  3  1  0
 25  4  1  0
 26  7  1  0
 27  9  1  0
 28 12  1  0
 29 13  1  0
 16 30  1  1
 31 17  1  0
 32 17  1  0
 33 18  1  0
 34 18  1  0
 35 19  1  0
 36 19  1  0
 37 20  1  0
 38 21  1  0
 39 21  1  0
 40 22  1  0
 41 23  1  0
 42 20  1  0
M  CHG  1  20   1
M  END
>  <b_m_subgroup_collapsed>  (1173) 
0

>  <r_i_docking_score>  (1173) 
-6.5513720759016403

>  <s_m_subgroup_title>  (1173) 
glide-dock_SP_D22_pv

>  <s_m_subgroupid>  (1173) 
glide-dock_SP_D22_pv

>  <Molecule ChEMBL ID>  (1173) 
CHEMBL296512

>  <Standard Type>  (1173) 
Ki

>  <Standard Value>  (1173) 
28.0

>  <label>  (1173) 
1

$$$$
CHEMBL85882
     RDKit          3D

 32 34  0  0  1  0  0  0  0  0999 V2000
    6.3985    5.7723  -11.8468 N   0  0  0  0  0  0  0  0  0  0  0  0
    7.6139    5.7156  -12.6783 C   0  0  0  0  0  0  0  0  0  0  0  0
    8.8459    5.1092  -11.9699 C   0  0  1  0  0  0  0  0  0  0  0  0
   10.0126    5.0692  -12.9506 C   0  0  0  0  0  0  0  0  0  0  0  0
   10.2119    3.9422  -13.7763 C   0  0  0  0  0  0  0  0  0  0  0  0
   11.2858    3.9143  -14.6864 C   0  0  0  0  0  0  0  0  0  0  0  0
   12.1600    5.0142  -14.7792 C   0  0  0  0  0  0  0  0  0  0  0  0
   11.9666    6.1413  -13.9573 C   0  0  0  0  0  0  0  0  0  0  0  0
   10.8959    6.1717  -13.0395 C   0  0  0  0  0  0  0  0  0  0  0  0
   10.7164    7.3623  -12.1074 C   0  0  0  0  0  0  0  0  0  0  0  0
   10.1000    6.9737  -10.7739 C   0  0  0  0  0  0  0  0  0  0  0  0
   10.4174    7.7006   -9.6071 C   0  0  0  0  0  0  0  0  0  0  0  0
    9.8869    7.3072   -8.3631 C   0  0  0  0  0  0  0  0  0  0  0  0
   10.2989    8.3032   -6.7942 Br  0  0  0  0  0  0  0  0  0  0  0  0
    9.0570    6.1735   -8.2798 C   0  0  0  0  0  0  0  0  0  0  0  0
    8.7334    5.4501   -9.4439 C   0  0  0  0  0  0  0  0  0  0  0  0
    9.2288    5.8626  -10.6994 C   0  0  0  0  0  0  0  0  0  0  0  0
    5.5984    5.9966  -12.4168 H   0  0  0  0  0  0  0  0  0  0  0  0
    6.4865    6.5160  -11.1444 H   0  0  0  0  0  0  0  0  0  0  0  0
    7.3824    5.1216  -13.5628 H   0  0  0  0  0  0  0  0  0  0  0  0
    7.8322    6.7253  -13.0277 H   0  0  0  0  0  0  0  0  0  0  0  0
    8.6205    4.0802  -11.6872 H   0  0  0  0  0  0  0  0  0  0  0  0
    9.5497    3.0911  -13.7087 H   0  0  0  0  0  0  0  0  0  0  0  0
   11.4417    3.0475  -15.3119 H   0  0  0  0  0  0  0  0  0  0  0  0
   12.9854    4.9900  -15.4756 H   0  0  0  0  0  0  0  0  0  0  0  0
   12.6526    6.9735  -14.0249 H   0  0  0  0  0  0  0  0  0  0  0  0
   11.6922    7.8133  -11.9251 H   0  0  0  0  0  0  0  0  0  0  0  0
   10.0851    8.1120  -12.5854 H   0  0  0  0  0  0  0  0  0  0  0  0
   11.0710    8.5590   -9.6609 H   0  0  0  0  0  0  0  0  0  0  0  0
    8.6514    5.8708   -7.3257 H   0  0  0  0  0  0  0  0  0  0  0  0
    8.0869    4.5891   -9.3665 H   0  0  0  0  0  0  0  0  0  0  0  0
    6.2410    4.9034  -11.3547 H   0  0  0  0  0  0  0  0  0  0  0  0
  2  1  1  0
  3  2  1  0
  4  3  1  0
  5  4  2  0
  6  5  1  0
  7  6  2  0
  8  7  1  0
  9  4  1  0
  9  8  2  0
 10  9  1  0
 11 10  1  0
 12 11  1  0
 13 12  2  0
 14 13  1  0
 15 13  1  0
 16 15  2  0
 17  3  1  0
 17 11  2  0
 17 16  1  0
 18  1  1  0
 19  1  1  0
 20  2  1  0
 21  2  1  0
  3 22  1  1
 23  5  1  0
 24  6  1  0
 25  7  1  0
 26  8  1  0
 27 10  1  0
 28 10  1  0
 29 12  1  0
 30 15  1  0
 31 16  1  0
 32  1  1  0
M  CHG  1   1   1
M  END
>  <b_m_subgroup_collapsed>  (1174) 
0

>  <r_i_docking_score>  (1174) 
-6.5476440529252304

>  <s_m_subgroup_title>  (1174) 
glide-dock_SP_D22_pv

>  <s_m_subgroupid>  (1174) 
glide-dock_SP_D22_pv

>  <Molecule ChEMBL ID>  (1174) 
CHEMBL85882

>  <Standard Type>  (1174) 
Ki

>  <Standard Value>  (1174) 
10000.0

>  <label>  (1174) 
0

$$$$
CHEMBL376092
     RDKit          3D

 51 53  0  0  1  0  0  0  0  0999 V2000
   11.8199   11.3253   -6.2332 C   0  0  0  0  0  0  0  0  0  0  0  0
   11.3238   10.0533   -6.5134 O   0  0  0  0  0  0  0  0  0  0  0  0
   11.4599    9.0679   -5.5635 C   0  0  0  0  0  0  0  0  0  0  0  0
   12.0560    9.2416   -4.2874 C   0  0  0  0  0  0  0  0  0  0  0  0
   12.1643    8.1760   -3.3789 C   0  0  0  0  0  0  0  0  0  0  0  0
   11.6861    6.9107   -3.7415 C   0  0  0  0  0  0  0  0  0  0  0  0
   11.1008    6.7328   -5.0070 C   0  0  0  0  0  0  0  0  0  0  0  0
   10.9877    7.7918   -5.9224 C   0  0  0  0  0  0  0  0  0  0  0  0
   10.4602    7.5165   -7.3257 C   0  0  0  0  0  0  0  0  0  0  0  0
    9.2461    8.3693   -7.7345 C   0  0  0  0  0  0  0  0  0  0  0  0
    8.8859    8.1400   -9.2042 C   0  0  0  0  0  0  0  0  0  0  0  0
   10.0259    8.2994  -10.1121 N   0  0  0  0  0  0  0  0  0  0  0  0
    9.5905    8.1379  -11.4995 C   0  0  0  0  0  0  0  0  0  0  0  0
    8.7573    6.9918  -11.8485 N   0  0  0  0  0  0  0  0  0  0  0  0
    9.1717    5.8717  -12.4609 C   0  0  0  0  0  0  0  0  0  0  0  0
   10.3490    5.6707  -12.7612 O   0  0  0  0  0  0  0  0  0  0  0  0
    8.0983    4.8912  -12.8511 C   0  0  0  0  0  0  0  0  0  0  0  0
    6.8270    4.9060  -12.2306 C   0  0  0  0  0  0  0  0  0  0  0  0
    5.8452    3.9671  -12.5953 C   0  0  0  0  0  0  0  0  0  0  0  0
    6.1178    2.9999  -13.5785 C   0  0  0  0  0  0  0  0  0  0  0  0
    7.3787    2.9723  -14.2068 C   0  0  0  0  0  0  0  0  0  0  0  0
    7.6800    1.9247  -15.2583 C   0  0  0  0  0  0  0  0  0  0  0  0
    8.3632    3.9143  -13.8397 C   0  0  0  0  0  0  0  0  0  0  0  0
   11.0810    7.3474   -9.7707 C   0  0  0  0  0  0  0  0  0  0  0  0
   11.5827    7.6796   -8.3601 C   0  0  0  0  0  0  0  0  0  0  0  0
   11.6859   12.0162   -7.0578 H   0  0  0  0  0  0  0  0  0  0  0  0
   11.2957   11.7100   -5.3533 H   0  0  0  0  0  0  0  0  0  0  0  0
   12.8860   11.2307   -6.0859 H   0  0  0  0  0  0  0  0  0  0  0  0
   12.4682   10.1724   -3.9687 H   0  0  0  0  0  0  0  0  0  0  0  0
   12.6212    8.3300   -2.4123 H   0  0  0  0  0  0  0  0  0  0  0  0
   11.7614    6.0805   -3.0543 H   0  0  0  0  0  0  0  0  0  0  0  0
   10.7293    5.7725   -5.2870 H   0  0  0  0  0  0  0  0  0  0  0  0
   10.1391    6.4741   -7.3594 H   0  0  0  0  0  0  0  0  0  0  0  0
    8.3907    8.1322   -7.1003 H   0  0  0  0  0  0  0  0  0  0  0  0
    9.4153    9.4331   -7.6167 H   0  0  0  0  0  0  0  0  0  0  0  0
    8.4855    7.1316   -9.3054 H   0  0  0  0  0  0  0  0  0  0  0  0
    8.1046    8.8574   -9.4724 H   0  0  0  0  0  0  0  0  0  0  0  0
    9.0041    9.0208  -11.7559 H   0  0  0  0  0  0  0  0  0  0  0  0
   10.4620    8.1723  -12.1544 H   0  0  0  0  0  0  0  0  0  0  0  0
    7.7784    7.0730  -11.5943 H   0  0  0  0  0  0  0  0  0  0  0  0
    6.5863    5.6233  -11.4576 H   0  0  0  0  0  0  0  0  0  0  0  0
    4.8859    3.9860  -12.1040 H   0  0  0  0  0  0  0  0  0  0  0  0
    5.3598    2.2774  -13.8433 H   0  0  0  0  0  0  0  0  0  0  0  0
    8.4620    2.2651  -15.9377 H   0  0  0  0  0  0  0  0  0  0  0  0
    8.0154    1.0026  -14.7830 H   0  0  0  0  0  0  0  0  0  0  0  0
    6.7918    1.7029  -15.8505 H   0  0  0  0  0  0  0  0  0  0  0  0
    9.3315    3.8814  -14.3189 H   0  0  0  0  0  0  0  0  0  0  0  0
   10.7103    6.3224   -9.8232 H   0  0  0  0  0  0  0  0  0  0  0  0
   11.9034    7.4340  -10.4818 H   0  0  0  0  0  0  0  0  0  0  0  0
   11.9831    8.6926   -8.3713 H   0  0  0  0  0  0  0  0  0  0  0  0
   12.4094    7.0473   -8.0553 H   0  0  0  0  0  0  0  0  0  0  0  0
  2  1  1  0
  3  2  1  0
  4  3  2  0
  5  4  1  0
  6  5  2  0
  7  6  1  0
  8  3  1  0
  8  7  2  0
  9  8  1  0
 10  9  1  0
 11 10  1  0
 12 11  1  0
 13 12  1  0
 14 13  1  0
 15 14  1  0
 16 15  2  0
 17 15  1  0
 18 17  1  0
 19 18  2  0
 20 19  1  0
 21 20  2  0
 22 21  1  0
 23 17  2  0
 23 21  1  0
 24 12  1  0
 25  9  1  0
 25 24  1  0
 26  1  1  0
 27  1  1  0
 28  1  1  0
 29  4  1  0
 30  5  1  0
 31  6  1  0
 32  7  1  0
 33  9  1  0
 34 10  1  0
 35 10  1  0
 36 11  1  0
 37 11  1  0
 38 13  1  0
 39 13  1  0
 40 14  1  0
 41 18  1  0
 42 19  1  0
 43 20  1  0
 44 22  1  0
 45 22  1  0
 46 22  1  0
 47 23  1  0
 48 24  1  0
 49 24  1  0
 50 25  1  0
 51 25  1  0
M  END
>  <b_m_subgroup_collapsed>  (1175) 
0

>  <r_i_docking_score>  (1175) 
-6.5441313851755698

>  <s_m_subgroup_title>  (1175) 
glide-dock_SP_D22_pv

>  <s_m_subgroupid>  (1175) 
glide-dock_SP_D22_pv

>  <Molecule ChEMBL ID>  (1175) 
CHEMBL376092

>  <Standard Type>  (1175) 
Ki

>  <Standard Value>  (1175) 
27.0

>  <label>  (1175) 
1

$$$$
CHEMBL3763418
     RDKit          3D

 59 62  0  0  1  0  0  0  0  0999 V2000
    6.7395   -2.0404  -19.4032 C   0  0  0  0  0  0  0  0  0  0  0  0
    5.3567   -2.0795  -18.8290 C   0  0  0  0  0  0  0  0  0  0  0  0
    4.3350   -2.7885  -19.4497 N   0  0  0  0  0  0  0  0  0  0  0  0
    3.2858   -2.6248  -18.6472 C   0  0  0  0  0  0  0  0  0  0  0  0
    3.5328   -1.8281  -17.5757 O   0  0  0  0  0  0  0  0  0  0  0  0
    4.8570   -1.5038  -17.6842 C   0  0  0  0  0  0  0  0  0  0  0  0
    5.4678   -0.6814  -16.6410 C   0  0  0  0  0  0  0  0  0  0  0  0
    6.6839   -0.1486  -16.8027 N   0  0  0  0  0  0  0  0  0  0  0  0
    6.9536    0.5437  -15.6495 N   0  0  0  0  0  0  0  0  0  0  0  0
    5.8761    0.3980  -14.8806 C   0  0  0  0  0  0  0  0  0  0  0  0
    5.6860    1.1340  -13.2852 S   0  0  0  0  0  0  0  0  0  0  0  0
    6.2945    2.8474  -13.5537 C   0  0  0  0  0  0  0  0  0  0  0  0
    7.7836    2.9978  -13.9504 C   0  0  0  0  0  0  0  0  0  0  0  0
    8.3480    4.4167  -13.7461 C   0  0  0  0  0  0  0  0  0  0  0  0
    8.5777    4.8180  -12.2744 C   0  0  0  0  0  0  0  0  0  0  0  0
    9.0647    6.1884  -12.0810 N   0  0  0  0  0  0  0  0  0  0  0  0
    8.0457    7.1826  -12.4183 C   0  0  0  0  0  0  0  0  0  0  0  0
    8.5004    8.6365  -12.1636 C   0  0  0  0  0  0  0  0  0  0  0  0
    8.9634    8.7934  -10.8316 O   0  0  0  0  0  0  0  0  0  0  0  0
    9.9686    7.8578  -10.4656 C   0  0  1  0  0  0  0  0  0  0  0  0
   10.4003    8.1125   -9.0340 C   0  0  0  0  0  0  0  0  0  0  0  0
    9.4955    7.9340   -7.9674 C   0  0  0  0  0  0  0  0  0  0  0  0
    9.8965    8.2136   -6.6468 C   0  0  0  0  0  0  0  0  0  0  0  0
   11.1952    8.6977   -6.3790 C   0  0  0  0  0  0  0  0  0  0  0  0
   11.6267    8.9995   -4.9502 C   0  0  0  0  0  0  0  0  0  0  0  0
   12.9022    9.3744   -4.8811 F   0  0  0  0  0  0  0  0  0  0  0  0
   10.8859    9.9807   -4.4403 F   0  0  0  0  0  0  0  0  0  0  0  0
   11.4797    7.9075   -4.2060 F   0  0  0  0  0  0  0  0  0  0  0  0
   12.0863    8.8907   -7.4537 C   0  0  0  0  0  0  0  0  0  0  0  0
   11.7009    8.5804   -8.7695 C   0  0  0  0  0  0  0  0  0  0  0  0
    9.4544    6.4177  -10.6916 C   0  0  0  0  0  0  0  0  0  0  0  0
    4.9167   -0.3701  -15.4430 N   0  0  0  0  0  0  0  0  0  0  0  0
    3.6161   -0.7521  -14.9085 C   0  0  0  0  0  0  0  0  0  0  0  0
    7.4712   -2.4218  -18.6905 H   0  0  0  0  0  0  0  0  0  0  0  0
    6.8131   -2.6460  -20.3066 H   0  0  0  0  0  0  0  0  0  0  0  0
    7.0258   -1.0208  -19.6633 H   0  0  0  0  0  0  0  0  0  0  0  0
    2.3121   -3.0619  -18.8123 H   0  0  0  0  0  0  0  0  0  0  0  0
    5.6681    3.3456  -14.2899 H   0  0  0  0  0  0  0  0  0  0  0  0
    6.1137    3.3694  -12.6143 H   0  0  0  0  0  0  0  0  0  0  0  0
    8.4211    2.2727  -13.4470 H   0  0  0  0  0  0  0  0  0  0  0  0
    7.8869    2.7766  -15.0102 H   0  0  0  0  0  0  0  0  0  0  0  0
    9.3028    4.4910  -14.2684 H   0  0  0  0  0  0  0  0  0  0  0  0
    7.6857    5.1157  -14.2466 H   0  0  0  0  0  0  0  0  0  0  0  0
    7.6625    4.6764  -11.6977 H   0  0  0  0  0  0  0  0  0  0  0  0
    9.3030    4.1221  -11.8514 H   0  0  0  0  0  0  0  0  0  0  0  0
    7.7529    7.0955  -13.4580 H   0  0  0  0  0  0  0  0  0  0  0  0
    7.1446    6.9707  -11.8469 H   0  0  0  0  0  0  0  0  0  0  0  0
    9.2885    8.9434  -12.8510 H   0  0  0  0  0  0  0  0  0  0  0  0
    7.6702    9.3226  -12.3162 H   0  0  0  0  0  0  0  0  0  0  0  0
   10.8288    8.0201  -11.1162 H   0  0  0  0  0  0  0  0  0  0  0  0
    8.4884    7.5905   -8.1602 H   0  0  0  0  0  0  0  0  0  0  0  0
    9.1938    8.0551   -5.8473 H   0  0  0  0  0  0  0  0  0  0  0  0
   13.0823    9.2729   -7.2770 H   0  0  0  0  0  0  0  0  0  0  0  0
   12.4034    8.7379   -9.5760 H   0  0  0  0  0  0  0  0  0  0  0  0
    8.6011    6.2287  -10.0374 H   0  0  0  0  0  0  0  0  0  0  0  0
   10.2286    5.7092  -10.4030 H   0  0  0  0  0  0  0  0  0  0  0  0
    3.5309   -0.5133  -13.8498 H   0  0  0  0  0  0  0  0  0  0  0  0
    2.8298   -0.2269  -15.4495 H   0  0  0  0  0  0  0  0  0  0  0  0
    3.4646   -1.8237  -15.0316 H   0  0  0  0  0  0  0  0  0  0  0  0
  2  1  1  0
  3  2  1  0
  4  3  2  0
  5  4  1  0
  6  2  2  0
  6  5  1  0
  7  6  1  0
  8  7  2  0
  9  8  1  0
 10  9  2  0
 11 10  1  0
 12 11  1  0
 13 12  1  0
 14 13  1  0
 15 14  1  0
 16 15  1  0
 17 16  1  0
 18 17  1  0
 19 18  1  0
 20 19  1  0
 21 20  1  0
 22 21  1  0
 23 22  2  0
 24 23  1  0
 25 24  1  0
 26 25  1  0
 27 25  1  0
 28 25  1  0
 29 24  2  0
 30 21  2  0
 30 29  1  0
 31 16  1  0
 31 20  1  0
 32  7  1  0
 32 10  1  0
 33 32  1  0
 34  1  1  0
 35  1  1  0
 36  1  1  0
 37  4  1  0
 38 12  1  0
 39 12  1  0
 40 13  1  0
 41 13  1  0
 42 14  1  0
 43 14  1  0
 44 15  1  0
 45 15  1  0
 46 17  1  0
 47 17  1  0
 48 18  1  0
 49 18  1  0
 20 50  1  6
 51 22  1  0
 52 23  1  0
 53 29  1  0
 54 30  1  0
 55 31  1  0
 56 31  1  0
 57 33  1  0
 58 33  1  0
 59 33  1  0
M  END
>  <b_m_subgroup_collapsed>  (1176) 
0

>  <r_i_docking_score>  (1176) 
-6.5387820822457403

>  <s_m_subgroup_title>  (1176) 
glide-dock_SP_D22_pv

>  <s_m_subgroupid>  (1176) 
glide-dock_SP_D22_pv

>  <Molecule ChEMBL ID>  (1176) 
CHEMBL3763418

>  <Standard Type>  (1176) 
Ki

>  <Standard Value>  (1176) 
10000.0

>  <label>  (1176) 
0

$$$$
CHEMBL4555952
     RDKit          3D

 53 55  0  0  1  0  0  0  0  0999 V2000
   12.3669    8.7145   -7.9217 C   0  0  0  0  0  0  0  0  0  0  0  0
   11.1946    7.9329   -7.5670 N   0  0  0  0  0  0  0  0  0  0  0  0
   10.3053    7.3596   -8.4010 C   0  0  0  0  0  0  0  0  0  0  0  0
   10.4333    7.5156  -10.1556 S   0  0  0  0  0  0  0  0  0  0  0  0
    9.2104    6.2651  -10.6665 C   0  0  0  0  0  0  0  0  0  0  0  0
    9.1737    6.0925  -12.1920 C   0  0  0  0  0  0  0  0  0  0  0  0
   10.4876    5.4991  -12.7261 C   0  0  0  0  0  0  0  0  0  0  0  0
   10.5419    5.3539  -14.2024 N   0  0  0  0  0  0  0  0  0  0  0  0
   11.9444    5.3211  -14.6948 C   0  0  0  0  0  0  0  0  0  0  0  0
   12.0071    5.2685  -16.2306 C   0  0  0  0  0  0  0  0  0  0  0  0
   11.2177    4.0807  -16.8228 C   0  0  0  0  0  0  0  0  0  0  0  0
   11.1431    4.2256  -18.3538 C   0  0  0  0  0  0  0  0  0  0  0  0
   11.9109    2.7359  -16.5072 C   0  0  0  0  0  0  0  0  0  0  0  0
    9.7877    4.1254  -16.2418 C   0  0  0  0  0  0  0  0  0  0  0  0
    9.7550    4.1987  -14.7039 C   0  0  0  0  0  0  0  0  0  0  0  0
    9.3598    6.6591   -7.7731 N   0  0  0  0  0  0  0  0  0  0  0  0
    9.6379    6.7981   -6.4385 N   0  0  0  0  0  0  0  0  0  0  0  0
   10.7208    7.5673   -6.3522 C   0  0  0  0  0  0  0  0  0  0  0  0
   11.2874    7.9068   -5.0539 C   0  0  0  0  0  0  0  0  0  0  0  0
   11.6843    6.8713   -4.1825 C   0  0  0  0  0  0  0  0  0  0  0  0
   12.1918    7.1703   -2.9040 C   0  0  0  0  0  0  0  0  0  0  0  0
   12.3207    8.5114   -2.4967 C   0  0  0  0  0  0  0  0  0  0  0  0
   11.9382    9.5459   -3.3701 C   0  0  0  0  0  0  0  0  0  0  0  0
   11.4234    9.2498   -4.6491 C   0  0  0  0  0  0  0  0  0  0  0  0
   12.1125    9.3723   -8.7553 H   0  0  0  0  0  0  0  0  0  0  0  0
   12.7119    9.3256   -7.0873 H   0  0  0  0  0  0  0  0  0  0  0  0
   13.1657    8.0494   -8.2457 H   0  0  0  0  0  0  0  0  0  0  0  0
    9.4388    5.3110  -10.1829 H   0  0  0  0  0  0  0  0  0  0  0  0
    8.2268    6.5698  -10.3082 H   0  0  0  0  0  0  0  0  0  0  0  0
    8.3352    5.4452  -12.4443 H   0  0  0  0  0  0  0  0  0  0  0  0
    8.9725    7.0614  -12.6466 H   0  0  0  0  0  0  0  0  0  0  0  0
   11.2953    6.1719  -12.4325 H   0  0  0  0  0  0  0  0  0  0  0  0
   10.6807    4.5368  -12.2493 H   0  0  0  0  0  0  0  0  0  0  0  0
   12.4758    6.2125  -14.3579 H   0  0  0  0  0  0  0  0  0  0  0  0
   12.4684    4.4690  -14.2598 H   0  0  0  0  0  0  0  0  0  0  0  0
   11.6097    6.2046  -16.6290 H   0  0  0  0  0  0  0  0  0  0  0  0
   13.0477    5.2232  -16.5541 H   0  0  0  0  0  0  0  0  0  0  0  0
   10.5855    3.4029  -18.8050 H   0  0  0  0  0  0  0  0  0  0  0  0
   10.6503    5.1524  -18.6477 H   0  0  0  0  0  0  0  0  0  0  0  0
   12.1380    4.2285  -18.8009 H   0  0  0  0  0  0  0  0  0  0  0  0
   11.3672    1.8971  -16.9432 H   0  0  0  0  0  0  0  0  0  0  0  0
   12.9223    2.7109  -16.9140 H   0  0  0  0  0  0  0  0  0  0  0  0
   11.9927    2.5428  -15.4398 H   0  0  0  0  0  0  0  0  0  0  0  0
    9.2820    5.0041  -16.6413 H   0  0  0  0  0  0  0  0  0  0  0  0
    9.2137    3.2604  -16.5798 H   0  0  0  0  0  0  0  0  0  0  0  0
   10.1377    3.2746  -14.2670 H   0  0  0  0  0  0  0  0  0  0  0  0
    8.7189    4.2862  -14.3772 H   0  0  0  0  0  0  0  0  0  0  0  0
   11.5760    5.8400   -4.4847 H   0  0  0  0  0  0  0  0  0  0  0  0
   12.4725    6.3691   -2.2373 H   0  0  0  0  0  0  0  0  0  0  0  0
   12.7056    8.7470   -1.5166 H   0  0  0  0  0  0  0  0  0  0  0  0
   12.0301   10.5720   -3.0451 H   0  0  0  0  0  0  0  0  0  0  0  0
   11.1145   10.0513   -5.3047 H   0  0  0  0  0  0  0  0  0  0  0  0
   10.1281    6.1883  -14.5935 H   0  0  0  0  0  0  0  0  0  0  0  0
  2  1  1  0
  3  2  1  0
  4  3  1  0
  5  4  1  0
  6  5  1  0
  7  6  1  0
  8  7  1  0
  9  8  1  0
 10  9  1  0
 11 10  1  0
 12 11  1  0
 13 11  1  0
 14 11  1  0
 15  8  1  0
 15 14  1  0
 16  3  2  0
 17 16  1  0
 18  2  1  0
 18 17  2  0
 19 18  1  0
 20 19  2  0
 21 20  1  0
 22 21  2  0
 23 22  1  0
 24 19  1  0
 24 23  2  0
 25  1  1  0
 26  1  1  0
 27  1  1  0
 28  5  1  0
 29  5  1  0
 30  6  1  0
 31  6  1  0
 32  7  1  0
 33  7  1  0
 34  9  1  0
 35  9  1  0
 36 10  1  0
 37 10  1  0
 38 12  1  0
 39 12  1  0
 40 12  1  0
 41 13  1  0
 42 13  1  0
 43 13  1  0
 44 14  1  0
 45 14  1  0
 46 15  1  0
 47 15  1  0
 48 20  1  0
 49 21  1  0
 50 22  1  0
 51 23  1  0
 52 24  1  0
 53  8  1  0
M  CHG  1   8   1
M  END
>  <b_m_subgroup_collapsed>  (1177) 
0

>  <r_i_docking_score>  (1177) 
-6.5384933222930401

>  <s_m_subgroup_title>  (1177) 
glide-dock_SP_D22_pv

>  <s_m_subgroupid>  (1177) 
glide-dock_SP_D22_pv

>  <Molecule ChEMBL ID>  (1177) 
CHEMBL4555952

>  <Standard Type>  (1177) 
Ki

>  <Standard Value>  (1177) 
59994.0

>  <label>  (1177) 
0

$$$$
CHEMBL280804
     RDKit          3D

 50 54  0  0  1  0  0  0  0  0999 V2000
   10.4925    0.4650  -14.7460 C   0  0  0  0  0  0  0  0  0  0  0  0
   10.6942    1.8980  -14.2545 C   0  0  0  0  0  0  0  0  0  0  0  0
   10.5137    2.7637  -15.3617 O   0  0  0  0  0  0  0  0  0  0  0  0
    9.7963    3.9747  -15.1389 C   0  0  1  0  0  0  0  0  0  0  0  0
    9.5460    4.5106  -16.5658 C   0  0  0  0  0  0  0  0  0  0  0  0
   10.7927    4.9174  -17.3654 C   0  0  0  0  0  0  0  0  0  0  0  0
    8.4568    3.7427  -14.4190 C   0  0  0  0  0  0  0  0  0  0  0  0
    7.3506    2.8969  -14.6401 C   0  0  0  0  0  0  0  0  0  0  0  0
    6.2651    2.9345  -13.7256 C   0  0  0  0  0  0  0  0  0  0  0  0
    6.2949    3.7721  -12.5810 C   0  0  0  0  0  0  0  0  0  0  0  0
    7.4239    4.5795  -12.3321 C   0  0  0  0  0  0  0  0  0  0  0  0
    8.4420    4.5461  -13.2854 C   0  0  0  0  0  0  0  0  0  0  0  0
    9.6575    5.3111  -13.2024 C   0  0  0  0  0  0  0  0  0  0  0  0
   10.5278    4.9827  -14.2365 C   0  0  0  0  0  0  0  0  0  0  0  0
   11.7720    5.6585  -14.2851 C   0  0  0  0  0  0  0  0  0  0  0  0
   12.0867    6.6433  -13.3019 C   0  0  0  0  0  0  0  0  0  0  0  0
   11.1843    6.9720  -12.2539 C   0  0  0  0  0  0  0  0  0  0  0  0
    9.9639    6.2752  -12.2466 C   0  0  0  0  0  0  0  0  0  0  0  0
    8.7619    6.5660  -11.3431 C   0  0  1  0  0  0  0  0  0  0  0  0
    7.7828    5.3860  -11.0951 C   0  0  0  0  0  0  0  0  0  0  0  0
    9.1549    7.2981  -10.1094 N   0  0  1  0  0  0  0  0  0  0  0  0
    9.5868    6.4577   -8.9652 C   0  0  0  0  0  0  0  0  0  0  0  0
   10.0965    8.3994  -10.4234 C   0  0  0  0  0  0  0  0  0  0  0  0
   11.4043    7.8695  -11.0447 C   0  0  0  0  0  0  0  0  0  0  0  0
   10.5122   -0.2275  -13.9082 H   0  0  0  0  0  0  0  0  0  0  0  0
   11.2780    0.1785  -15.4487 H   0  0  0  0  0  0  0  0  0  0  0  0
    9.5278    0.3507  -15.2421 H   0  0  0  0  0  0  0  0  0  0  0  0
    9.9947    2.0915  -13.4472 H   0  0  0  0  0  0  0  0  0  0  0  0
   11.6862    2.0471  -13.8439 H   0  0  0  0  0  0  0  0  0  0  0  0
    9.0037    3.7535  -17.1337 H   0  0  0  0  0  0  0  0  0  0  0  0
    8.8863    5.3714  -16.5130 H   0  0  0  0  0  0  0  0  0  0  0  0
   10.5304    5.1149  -18.4048 H   0  0  0  0  0  0  0  0  0  0  0  0
   11.5471    4.1298  -17.3606 H   0  0  0  0  0  0  0  0  0  0  0  0
   11.2423    5.8300  -16.9752 H   0  0  0  0  0  0  0  0  0  0  0  0
    7.3258    2.2362  -15.4944 H   0  0  0  0  0  0  0  0  0  0  0  0
    5.4113    2.2912  -13.8748 H   0  0  0  0  0  0  0  0  0  0  0  0
    5.4851    3.7455  -11.8638 H   0  0  0  0  0  0  0  0  0  0  0  0
   12.4819    5.4360  -15.0690 H   0  0  0  0  0  0  0  0  0  0  0  0
   13.0450    7.1368  -13.3459 H   0  0  0  0  0  0  0  0  0  0  0  0
    8.1827    7.2907  -11.9191 H   0  0  0  0  0  0  0  0  0  0  0  0
    6.8749    5.7703  -10.6467 H   0  0  0  0  0  0  0  0  0  0  0  0
    8.2097    4.6668  -10.3955 H   0  0  0  0  0  0  0  0  0  0  0  0
   10.3789    5.7653   -9.2502 H   0  0  0  0  0  0  0  0  0  0  0  0
    8.7494    5.8844   -8.5674 H   0  0  0  0  0  0  0  0  0  0  0  0
    9.9549    7.0768   -8.1471 H   0  0  0  0  0  0  0  0  0  0  0  0
    9.5977    9.0565  -11.1347 H   0  0  0  0  0  0  0  0  0  0  0  0
   10.3016    8.9965   -9.5352 H   0  0  0  0  0  0  0  0  0  0  0  0
   11.9577    7.2936  -10.3038 H   0  0  0  0  0  0  0  0  0  0  0  0
   12.0649    8.6889  -11.3199 H   0  0  0  0  0  0  0  0  0  0  0  0
    8.2787    7.7327   -9.8215 H   0  0  0  0  0  0  0  0  0  0  0  0
  2  1  1  0
  3  2  1  0
  4  3  1  6
  5  4  1  0
  6  5  1  0
  7  4  1  0
  8  7  2  0
  9  8  1  0
 10  9  2  0
 11 10  1  0
 12  7  1  0
 12 11  2  0
 13 12  1  0
 14  4  1  0
 14 13  2  0
 15 14  1  0
 16 15  2  0
 17 16  1  0
 18 13  1  0
 18 17  2  0
 19 18  1  0
 20 11  1  0
 20 19  1  0
 21 19  1  0
 22 21  1  0
 23 21  1  0
 24 17  1  0
 24 23  1  0
 25  1  1  0
 26  1  1  0
 27  1  1  0
 28  2  1  0
 29  2  1  0
 30  5  1  0
 31  5  1  0
 32  6  1  0
 33  6  1  0
 34  6  1  0
 35  8  1  0
 36  9  1  0
 37 10  1  0
 38 15  1  0
 39 16  1  0
 19 40  1  6
 41 20  1  0
 42 20  1  0
 43 22  1  0
 44 22  1  0
 45 22  1  0
 46 23  1  0
 47 23  1  0
 48 24  1  0
 49 24  1  0
 21 50  1  1
M  CHG  1  21   1
M  END
>  <b_m_subgroup_collapsed>  (1178) 
0

>  <r_i_docking_score>  (1178) 
-6.5367344100756197

>  <s_m_subgroup_title>  (1178) 
glide-dock_SP_D22_pv

>  <s_m_subgroupid>  (1178) 
glide-dock_SP_D22_pv

>  <Molecule ChEMBL ID>  (1178) 
CHEMBL280804

>  <Standard Type>  (1178) 
Ki

>  <Standard Value>  (1178) 
24.5

>  <label>  (1178) 
1

$$$$
CHEMBL4471669
     RDKit          3D

 45 46  0  0  1  0  0  0  0  0999 V2000
    8.5234    4.0278  -12.7307 C   0  0  0  0  0  0  0  0  0  0  0  0
    8.5483    5.5280  -13.0362 C   0  0  0  0  0  0  0  0  0  0  0  0
    8.4869    6.4021  -11.7750 C   0  0  0  0  0  0  0  0  0  0  0  0
    9.7874    6.3914  -10.9577 C   0  0  0  0  0  0  0  0  0  0  0  0
    9.7110    7.2937   -9.7822 N   0  0  0  0  0  0  0  0  0  0  0  0
   11.0350    7.8594   -9.4138 C   0  0  0  0  0  0  0  0  0  0  0  0
   10.9052    8.9014   -8.2912 C   0  0  0  0  0  0  0  0  0  0  0  0
   10.1396    8.3790   -7.1670 N   0  0  0  0  0  0  0  0  0  0  0  0
   10.8194    8.0484   -5.9811 C   0  0  0  0  0  0  0  0  0  0  0  0
   11.0721    6.7080   -5.6687 C   0  0  0  0  0  0  0  0  0  0  0  0
   11.6862    6.3893   -4.4525 C   0  0  0  0  0  0  0  0  0  0  0  0
   12.0616    7.3617   -3.5254 C   0  0  0  0  0  0  0  0  0  0  0  0
   11.7958    8.7103   -3.8010 C   0  0  0  0  0  0  0  0  0  0  0  0
   12.0734    9.7705   -2.7410 C   0  0  0  0  0  0  0  0  0  0  0  0
   12.4341    9.2553   -1.3455 C   0  0  0  0  0  0  0  0  0  0  0  0
   11.2117    9.0428   -5.0520 C   0  0  0  0  0  0  0  0  0  0  0  0
   10.8941   10.6729   -5.4418 Cl  0  0  0  0  0  0  0  0  0  0  0  0
    8.8855    7.6946   -7.4661 C   0  0  0  0  0  0  0  0  0  0  0  0
    9.0478    6.6721   -8.6083 C   0  0  0  0  0  0  0  0  0  0  0  0
    8.5018    3.4425  -13.6512 H   0  0  0  0  0  0  0  0  0  0  0  0
    9.3981    3.7119  -12.1614 H   0  0  0  0  0  0  0  0  0  0  0  0
    7.6347    3.7730  -12.1530 H   0  0  0  0  0  0  0  0  0  0  0  0
    7.6883    5.7609  -13.6631 H   0  0  0  0  0  0  0  0  0  0  0  0
    9.4304    5.7715  -13.6282 H   0  0  0  0  0  0  0  0  0  0  0  0
    7.6470    6.0823  -11.1582 H   0  0  0  0  0  0  0  0  0  0  0  0
    8.2632    7.4273  -12.0741 H   0  0  0  0  0  0  0  0  0  0  0  0
   10.5941    6.7152  -11.6176 H   0  0  0  0  0  0  0  0  0  0  0  0
   10.0439    5.3837  -10.6303 H   0  0  0  0  0  0  0  0  0  0  0  0
   11.5059    8.3258  -10.2803 H   0  0  0  0  0  0  0  0  0  0  0  0
   11.6855    7.0471   -9.0923 H   0  0  0  0  0  0  0  0  0  0  0  0
   10.3850    9.7721   -8.6829 H   0  0  0  0  0  0  0  0  0  0  0  0
   11.8905    9.2363   -7.9643 H   0  0  0  0  0  0  0  0  0  0  0  0
   10.8043    5.9163   -6.3499 H   0  0  0  0  0  0  0  0  0  0  0  0
   11.9209    5.3747   -4.2243 H   0  0  0  0  0  0  0  0  0  0  0  0
   12.5241    7.0400   -2.6053 H   0  0  0  0  0  0  0  0  0  0  0  0
   12.8860   10.4039   -3.0486 H   0  0  0  0  0  0  0  0  0  0  0  0
   11.2069   10.4196   -2.6702 H   0  0  0  0  0  0  0  0  0  0  0  0
   12.4866   10.0884   -0.6470 H   0  0  0  0  0  0  0  0  0  0  0  0
   11.6861    8.5700   -0.9625 H   0  0  0  0  0  0  0  0  0  0  0  0
   13.4001    8.7524   -1.3372 H   0  0  0  0  0  0  0  0  0  0  0  0
    8.4838    7.2078   -6.5764 H   0  0  0  0  0  0  0  0  0  0  0  0
    8.1529    8.4515   -7.7481 H   0  0  0  0  0  0  0  0  0  0  0  0
    8.0761    6.2712   -8.8883 H   0  0  0  0  0  0  0  0  0  0  0  0
    9.6375    5.8198   -8.2723 H   0  0  0  0  0  0  0  0  0  0  0  0
    9.1202    8.0685  -10.0537 H   0  0  0  0  0  0  0  0  0  0  0  0
  2  1  1  0
  3  2  1  0
  4  3  1  0
  5  4  1  0
  6  5  1  0
  7  6  1  0
  8  7  1  0
  9  8  1  0
 10  9  1  0
 11 10  2  0
 12 11  1  0
 13 12  2  0
 14 13  1  0
 15 14  1  0
 16  9  2  0
 16 13  1  0
 17 16  1  0
 18  8  1  0
 19  5  1  0
 19 18  1  0
 20  1  1  0
 21  1  1  0
 22  1  1  0
 23  2  1  0
 24  2  1  0
 25  3  1  0
 26  3  1  0
 27  4  1  0
 28  4  1  0
 29  6  1  0
 30  6  1  0
 31  7  1  0
 32  7  1  0
 33 10  1  0
 34 11  1  0
 35 12  1  0
 36 14  1  0
 37 14  1  0
 38 15  1  0
 39 15  1  0
 40 15  1  0
 41 18  1  0
 42 18  1  0
 43 19  1  0
 44 19  1  0
 45  5  1  0
M  CHG  1   5   1
M  END
>  <b_m_subgroup_collapsed>  (1179) 
0

>  <r_i_docking_score>  (1179) 
-6.5364544324990197

>  <s_m_subgroup_title>  (1179) 
glide-dock_SP_D22_pv

>  <s_m_subgroupid>  (1179) 
glide-dock_SP_D22_pv

>  <Molecule ChEMBL ID>  (1179) 
CHEMBL4471669

>  <Standard Type>  (1179) 
Ki

>  <Standard Value>  (1179) 
2.93

>  <label>  (1179) 
1

$$$$
CHEMBL4469792
     RDKit          3D

 56 60  0  0  1  0  0  0  0  0999 V2000
    4.8064    2.7009  -12.9064 C   0  0  0  0  0  0  0  0  0  0  0  0
    5.9030    2.7955  -13.8003 O   0  0  0  0  0  0  0  0  0  0  0  0
    6.8443    3.7596  -13.5364 C   0  0  0  0  0  0  0  0  0  0  0  0
    6.6335    4.8589  -12.6717 C   0  0  0  0  0  0  0  0  0  0  0  0
    7.6863    5.7455  -12.4024 C   0  0  0  0  0  0  0  0  0  0  0  0
    8.9643    5.4952  -12.9362 C   0  0  0  0  0  0  0  0  0  0  0  0
    9.1887    4.4382  -13.8674 C   0  0  0  0  0  0  0  0  0  0  0  0
    8.0904    3.6019  -14.1696 C   0  0  0  0  0  0  0  0  0  0  0  0
   10.5622    4.5227  -14.2659 C   0  0  0  0  0  0  0  0  0  0  0  0
   11.1914    3.7237  -15.3292 C   0  0  0  0  0  0  0  0  0  0  0  0
   10.7383    2.4780  -15.7064 N   0  0  0  0  0  0  0  0  0  0  0  0
   11.5057    1.9987  -16.7513 C   0  0  0  0  0  0  0  0  0  0  0  0
   11.2845    0.8735  -17.3545 N   0  0  0  0  0  0  0  0  0  0  0  0
   12.0975    0.4830  -18.4100 C   0  0  0  0  0  0  0  0  0  0  0  0
   11.7073   -0.8808  -18.9663 C   0  0  0  0  0  0  0  0  0  0  0  0
   13.0508    1.0781  -18.9219 O   0  0  0  0  0  0  0  0  0  0  0  0
   12.4812    2.9624  -16.9562 N   0  0  0  0  0  0  0  0  0  0  0  0
   12.2748    3.9963  -16.0695 C   0  0  0  0  0  0  0  0  0  0  0  0
   13.1836    5.2095  -16.0710 C   0  0  0  0  0  0  0  0  0  0  0  0
   11.1636    5.4965  -13.5192 C   0  0  0  0  0  0  0  0  0  0  0  0
   10.2097    6.0589  -12.6796 N   0  0  0  0  0  0  0  0  0  0  0  0
   10.5561    7.2744  -11.5069 S   0  0  0  0  0  0  0  0  0  0  0  0
    9.6839    8.4076  -11.8480 O   0  0  0  0  0  0  0  0  0  0  0  0
   12.0202    7.4097  -11.5199 O   0  0  0  0  0  0  0  0  0  0  0  0
   10.0461    6.6405   -9.8991 C   0  0  0  0  0  0  0  0  0  0  0  0
    9.3777    5.3974   -9.8030 C   0  0  0  0  0  0  0  0  0  0  0  0
    8.6906    5.0555   -8.6339 C   0  0  0  0  0  0  0  0  0  0  0  0
    8.7438    5.9154   -7.5293 C   0  0  0  0  0  0  0  0  0  0  0  0
    9.5813    7.0353   -7.5405 C   0  0  0  0  0  0  0  0  0  0  0  0
    9.7562    7.7419   -6.3428 C   0  0  0  0  0  0  0  0  0  0  0  0
   10.5696    8.8779   -6.3029 C   0  0  0  0  0  0  0  0  0  0  0  0
   11.1887    9.3011   -7.4866 C   0  0  0  0  0  0  0  0  0  0  0  0
   11.0175    8.6060   -8.6991 C   0  0  0  0  0  0  0  0  0  0  0  0
   10.2257    7.4348   -8.7351 C   0  0  0  0  0  0  0  0  0  0  0  0
    4.2567    1.7821  -13.1040 H   0  0  0  0  0  0  0  0  0  0  0  0
    5.1346    2.6681  -11.8664 H   0  0  0  0  0  0  0  0  0  0  0  0
    4.1239    3.5401  -13.0466 H   0  0  0  0  0  0  0  0  0  0  0  0
    5.6843    5.0302  -12.1840 H   0  0  0  0  0  0  0  0  0  0  0  0
    7.5271    6.5666  -11.7156 H   0  0  0  0  0  0  0  0  0  0  0  0
    8.2109    2.7773  -14.8552 H   0  0  0  0  0  0  0  0  0  0  0  0
    9.9708    2.0038  -15.2571 H   0  0  0  0  0  0  0  0  0  0  0  0
   11.1878   -1.4846  -18.2208 H   0  0  0  0  0  0  0  0  0  0  0  0
   12.5990    6.1264  -16.1522 H   0  0  0  0  0  0  0  0  0  0  0  0
   13.7612    5.2490  -15.1467 H   0  0  0  0  0  0  0  0  0  0  0  0
   13.8814    5.1738  -16.9068 H   0  0  0  0  0  0  0  0  0  0  0  0
   12.1906    5.8357  -13.5026 H   0  0  0  0  0  0  0  0  0  0  0  0
    9.3017    4.7170  -10.6321 H   0  0  0  0  0  0  0  0  0  0  0  0
    8.0883    4.1583   -8.5935 H   0  0  0  0  0  0  0  0  0  0  0  0
    8.1592    5.7299   -6.6465 H   0  0  0  0  0  0  0  0  0  0  0  0
    9.2833    7.3828   -5.4467 H   0  0  0  0  0  0  0  0  0  0  0  0
   10.7109    9.4204   -5.3801 H   0  0  0  0  0  0  0  0  0  0  0  0
   11.7942   10.1770   -7.4467 H   0  0  0  0  0  0  0  0  0  0  0  0
   11.5245    8.9741   -9.5773 H   0  0  0  0  0  0  0  0  0  0  0  0
   11.0504   -0.7606  -19.8281 H   0  0  0  0  0  0  0  0  0  0  0  0
   12.5958   -1.4255  -19.2846 H   0  0  0  0  0  0  0  0  0  0  0  0
   13.2195    2.9273  -17.6462 H   0  0  0  0  0  0  0  0  0  0  0  0
  2  1  1  0
  3  2  1  0
  4  3  2  0
  5  4  1  0
  6  5  2  0
  7  6  1  0
  8  3  1  0
  8  7  2  0
  9  7  1  0
 10  9  1  0
 11 10  1  0
 12 11  1  0
 13 12  2  0
 14 13  1  0
 15 14  1  0
 16 14  2  0
 17 12  1  0
 18 10  2  0
 18 17  1  0
 19 18  1  0
 20  9  2  0
 21  6  1  0
 21 20  1  0
 22 21  1  0
 23 22  2  0
 24 22  2  0
 25 22  1  0
 26 25  2  0
 27 26  1  0
 28 27  2  0
 29 28  1  0
 30 29  2  0
 31 30  1  0
 32 31  2  0
 33 32  1  0
 34 25  1  0
 34 29  1  0
 34 33  2  0
 35  1  1  0
 36  1  1  0
 37  1  1  0
 38  4  1  0
 39  5  1  0
 40  8  1  0
 41 11  1  0
 42 15  1  0
 43 19  1  0
 44 19  1  0
 45 19  1  0
 46 20  1  0
 47 26  1  0
 48 27  1  0
 49 28  1  0
 50 30  1  0
 51 31  1  0
 52 32  1  0
 53 33  1  0
 54 15  1  0
 55 15  1  0
 56 17  1  0
M  END
>  <b_m_subgroup_collapsed>  (1180) 
0

>  <r_i_docking_score>  (1180) 
-6.5323140427212296

>  <s_m_subgroup_title>  (1180) 
glide-dock_SP_D22_pv

>  <s_m_subgroupid>  (1180) 
glide-dock_SP_D22_pv

>  <Molecule ChEMBL ID>  (1180) 
CHEMBL4469792

>  <Standard Type>  (1180) 
Ki

>  <Standard Value>  (1180) 
10000.0

>  <label>  (1180) 
0

$$$$
CHEMBL3941529
     RDKit          3D

 72 75  0  0  1  0  0  0  0  0999 V2000
    3.2875   -1.6326  -17.6081 C   0  0  0  0  0  0  0  0  0  0  0  0
    4.8273   -1.6422  -17.6661 C   0  0  2  0  0  0  0  0  0  0  0  0
    5.4533   -1.6081  -16.3388 N   0  0  0  0  0  0  0  0  0  0  0  0
    5.0967   -0.8944  -15.2595 C   0  0  0  0  0  0  0  0  0  0  0  0
    4.0647   -0.2279  -15.1810 O   0  0  0  0  0  0  0  0  0  0  0  0
    6.0875   -0.9207  -14.0908 C   0  0  0  0  0  0  0  0  0  0  0  0
    5.8602    0.2078  -13.0668 C   0  0  0  0  0  0  0  0  0  0  0  0
    6.1650    1.6101  -13.6228 C   0  0  0  0  0  0  0  0  0  0  0  0
    5.6786    2.7293  -12.6855 C   0  0  0  0  0  0  0  0  0  0  0  0
    6.0366    4.1550  -13.1438 C   0  0  0  0  0  0  0  0  0  0  0  0
    7.2276    4.6897  -12.4374 N   0  0  0  0  0  0  0  0  0  0  0  0
    7.2098    6.1710  -12.3050 C   0  0  0  0  0  0  0  0  0  0  0  0
    8.3848    6.6659  -11.4483 C   0  0  0  0  0  0  0  0  0  0  0  0
    9.6257    6.1091  -11.9551 N   0  0  0  0  0  0  0  0  0  0  0  0
   10.8056    6.8627  -12.0106 C   0  0  0  0  0  0  0  0  0  0  0  0
   11.5067    6.8476  -13.2374 C   0  0  0  0  0  0  0  0  0  0  0  0
   12.7202    7.5309  -13.3902 C   0  0  0  0  0  0  0  0  0  0  0  0
   13.2857    8.1726  -12.2784 C   0  0  0  0  0  0  0  0  0  0  0  0
   12.6021    8.1724  -11.0472 C   0  0  0  0  0  0  0  0  0  0  0  0
   11.3490    7.5491  -10.8860 C   0  0  0  0  0  0  0  0  0  0  0  0
   10.7452    7.6080   -9.5359 C   0  0  0  0  0  0  0  0  0  0  0  0
   10.6462    8.8463   -8.8614 C   0  0  0  0  0  0  0  0  0  0  0  0
   10.1332    8.9197   -7.5521 C   0  0  0  0  0  0  0  0  0  0  0  0
    9.6846    7.7577   -6.9029 C   0  0  0  0  0  0  0  0  0  0  0  0
    9.7725    6.5207   -7.5607 C   0  0  0  0  0  0  0  0  0  0  0  0
   10.3164    6.4462   -8.8558 C   0  0  0  0  0  0  0  0  0  0  0  0
    9.7030    4.6723  -12.1633 C   0  0  0  0  0  0  0  0  0  0  0  0
    8.5136    4.2024  -13.0046 C   0  0  0  0  0  0  0  0  0  0  0  0
    5.4114   -0.6230  -18.6530 C   0  0  0  0  0  0  0  0  0  0  0  0
    6.6574    0.0065  -18.4064 C   0  0  0  0  0  0  0  0  0  0  0  0
    7.2070    0.9045  -19.3421 C   0  0  0  0  0  0  0  0  0  0  0  0
    6.5226    1.1809  -20.5407 C   0  0  0  0  0  0  0  0  0  0  0  0
    5.2845    0.5632  -20.7976 C   0  0  0  0  0  0  0  0  0  0  0  0
    4.7347   -0.3336  -19.8617 C   0  0  0  0  0  0  0  0  0  0  0  0
    2.8459   -2.0483  -18.5128 H   0  0  0  0  0  0  0  0  0  0  0  0
    2.9367   -2.2277  -16.7691 H   0  0  0  0  0  0  0  0  0  0  0  0
    2.8925   -0.6282  -17.4747 H   0  0  0  0  0  0  0  0  0  0  0  0
    5.1076   -2.6183  -18.0637 H   0  0  0  0  0  0  0  0  0  0  0  0
    6.3076   -2.1472  -16.2484 H   0  0  0  0  0  0  0  0  0  0  0  0
    7.1035   -0.8566  -14.4824 H   0  0  0  0  0  0  0  0  0  0  0  0
    6.0141   -1.8898  -13.6002 H   0  0  0  0  0  0  0  0  0  0  0  0
    6.4852    0.0205  -12.1949 H   0  0  0  0  0  0  0  0  0  0  0  0
    4.8323    0.1735  -12.7058 H   0  0  0  0  0  0  0  0  0  0  0  0
    5.6862    1.7433  -14.5879 H   0  0  0  0  0  0  0  0  0  0  0  0
    7.2285    1.6744  -13.8397 H   0  0  0  0  0  0  0  0  0  0  0  0
    6.0273    2.5675  -11.6661 H   0  0  0  0  0  0  0  0  0  0  0  0
    4.5911    2.6532  -12.6378 H   0  0  0  0  0  0  0  0  0  0  0  0
    5.1847    4.7914  -12.9058 H   0  0  0  0  0  0  0  0  0  0  0  0
    6.1557    4.2155  -14.2268 H   0  0  0  0  0  0  0  0  0  0  0  0
    6.2658    6.4910  -11.8636 H   0  0  0  0  0  0  0  0  0  0  0  0
    7.2850    6.6304  -13.2891 H   0  0  0  0  0  0  0  0  0  0  0  0
    8.2317    6.3501  -10.4169 H   0  0  0  0  0  0  0  0  0  0  0  0
    8.4200    7.7565  -11.4506 H   0  0  0  0  0  0  0  0  0  0  0  0
   11.1018    6.3147  -14.0856 H   0  0  0  0  0  0  0  0  0  0  0  0
   13.2408    7.5183  -14.3359 H   0  0  0  0  0  0  0  0  0  0  0  0
   14.2459    8.6581  -12.3620 H   0  0  0  0  0  0  0  0  0  0  0  0
   13.0687    8.6405  -10.1950 H   0  0  0  0  0  0  0  0  0  0  0  0
   10.9813    9.7518   -9.3474 H   0  0  0  0  0  0  0  0  0  0  0  0
   10.0850    9.8685   -7.0438 H   0  0  0  0  0  0  0  0  0  0  0  0
    9.2782    7.8106   -5.9038 H   0  0  0  0  0  0  0  0  0  0  0  0
    9.4322    5.6248   -7.0657 H   0  0  0  0  0  0  0  0  0  0  0  0
   10.4047    5.4813   -9.3311 H   0  0  0  0  0  0  0  0  0  0  0  0
   10.6376    4.3862  -12.6481 H   0  0  0  0  0  0  0  0  0  0  0  0
    9.6886    4.1775  -11.1913 H   0  0  0  0  0  0  0  0  0  0  0  0
    8.5461    3.1189  -13.0466 H   0  0  0  0  0  0  0  0  0  0  0  0
    8.6168    4.5643  -14.0291 H   0  0  0  0  0  0  0  0  0  0  0  0
    7.2149   -0.2009  -17.5053 H   0  0  0  0  0  0  0  0  0  0  0  0
    8.1615    1.3709  -19.1452 H   0  0  0  0  0  0  0  0  0  0  0  0
    6.9456    1.8614  -21.2646 H   0  0  0  0  0  0  0  0  0  0  0  0
    4.7575    0.7657  -21.7199 H   0  0  0  0  0  0  0  0  0  0  0  0
    3.7910   -0.8033  -20.0969 H   0  0  0  0  0  0  0  0  0  0  0  0
    7.1736    4.3513  -11.4867 H   0  0  0  0  0  0  0  0  0  0  0  0
  2  1  1  0
  3  2  1  0
  4  3  1  0
  5  4  2  0
  6  4  1  0
  7  6  1  0
  8  7  1  0
  9  8  1  0
 10  9  1  0
 11 10  1  0
 12 11  1  0
 13 12  1  0
 14 13  1  0
 15 14  1  0
 16 15  2  0
 17 16  1  0
 18 17  2  0
 19 18  1  0
 20 15  1  0
 20 19  2  0
 21 20  1  0
 22 21  2  0
 23 22  1  0
 24 23  2  0
 25 24  1  0
 26 21  1  0
 26 25  2  0
 27 14  1  0
 28 11  1  0
 28 27  1  0
 29  2  1  0
 30 29  2  0
 31 30  1  0
 32 31  2  0
 33 32  1  0
 34 29  1  0
 34 33  2  0
 35  1  1  0
 36  1  1  0
 37  1  1  0
  2 38  1  6
 39  3  1  0
 40  6  1  0
 41  6  1  0
 42  7  1  0
 43  7  1  0
 44  8  1  0
 45  8  1  0
 46  9  1  0
 47  9  1  0
 48 10  1  0
 49 10  1  0
 50 12  1  0
 51 12  1  0
 52 13  1  0
 53 13  1  0
 54 16  1  0
 55 17  1  0
 56 18  1  0
 57 19  1  0
 58 22  1  0
 59 23  1  0
 60 24  1  0
 61 25  1  0
 62 26  1  0
 63 27  1  0
 64 27  1  0
 65 28  1  0
 66 28  1  0
 67 30  1  0
 68 31  1  0
 69 32  1  0
 70 33  1  0
 71 34  1  0
 72 11  1  0
M  CHG  1  11   1
M  END
>  <b_m_subgroup_collapsed>  (1181) 
0

>  <r_i_docking_score>  (1181) 
-6.5271360584167004

>  <s_m_subgroup_title>  (1181) 
glide-dock_SP_D22_pv

>  <s_m_subgroupid>  (1181) 
glide-dock_SP_D22_pv

>  <Molecule ChEMBL ID>  (1181) 
CHEMBL3941529

>  <Standard Type>  (1181) 
Ki

>  <Standard Value>  (1181) 
53.0

>  <label>  (1181) 
1

$$$$
CHEMBL2312934
     RDKit          3D

 55 58  0  0  1  0  0  0  0  0999 V2000
    9.6118    9.3722   -8.7654 O   0  0  0  0  0  0  0  0  0  0  0  0
   10.1963    8.1394   -8.2250 S   0  0  0  0  0  0  0  0  0  0  0  0
   11.2959    7.4677   -8.9319 O   0  0  0  0  0  0  0  0  0  0  0  0
    8.8863    7.0276   -8.0091 N   0  0  0  0  0  0  0  0  0  0  0  0
    9.0557    5.5820   -8.0858 C   0  0  0  0  0  0  0  0  0  0  0  0
    9.3667    5.1092   -9.5097 C   0  0  0  0  0  0  0  0  0  0  0  0
    8.1478    4.9344  -10.4282 C   0  0  0  0  0  0  0  0  0  0  0  0
    8.5029    4.8762  -11.8487 N   0  0  0  0  0  0  0  0  0  0  0  0
    9.6468    4.0094  -12.1328 C   0  0  0  0  0  0  0  0  0  0  0  0
   10.0499    4.1704  -13.5993 C   0  0  0  0  0  0  0  0  0  0  0  0
    8.9536    3.7564  -14.4582 N   0  0  0  0  0  0  0  0  0  0  0  0
    9.0593    2.4843  -15.0447 C   0  0  0  0  0  0  0  0  0  0  0  0
    8.1635    1.4540  -14.6800 C   0  0  0  0  0  0  0  0  0  0  0  0
    8.2768    0.1763  -15.2553 C   0  0  0  0  0  0  0  0  0  0  0  0
    9.2852   -0.0793  -16.2012 C   0  0  0  0  0  0  0  0  0  0  0  0
   10.1843    0.9322  -16.5750 C   0  0  0  0  0  0  0  0  0  0  0  0
   11.4018    0.5728  -17.7483 Cl  0  0  0  0  0  0  0  0  0  0  0  0
   10.0746    2.2186  -16.0044 C   0  0  0  0  0  0  0  0  0  0  0  0
   11.1643    3.4633  -16.5270 Cl  0  0  0  0  0  0  0  0  0  0  0  0
    7.6598    4.3507  -14.1251 C   0  0  0  0  0  0  0  0  0  0  0  0
    7.3593    4.3698  -12.6104 C   0  0  0  0  0  0  0  0  0  0  0  0
   10.7806    8.4491   -6.5597 C   0  0  0  0  0  0  0  0  0  0  0  0
   10.8264    9.7642   -6.0644 C   0  0  0  0  0  0  0  0  0  0  0  0
   11.2769   10.0076   -4.7635 C   0  0  0  0  0  0  0  0  0  0  0  0
   11.6894    8.9394   -3.9577 C   0  0  0  0  0  0  0  0  0  0  0  0
   12.0988    9.1892   -2.6394 C   0  0  0  0  0  0  0  0  0  0  0  0
   12.4858    8.1009   -1.8469 C   0  0  0  0  0  0  0  0  0  0  0  0
   12.4549    6.8123   -2.4105 C   0  0  0  0  0  0  0  0  0  0  0  0
   12.0736    6.5724   -3.6771 N   0  0  0  0  0  0  0  0  0  0  0  0
   11.6858    7.6070   -4.4479 C   0  0  0  0  0  0  0  0  0  0  0  0
   11.2282    7.3791   -5.7595 C   0  0  0  0  0  0  0  0  0  0  0  0
    7.9476    7.3752   -8.2463 H   0  0  0  0  0  0  0  0  0  0  0  0
    9.8881    5.3156   -7.4470 H   0  0  0  0  0  0  0  0  0  0  0  0
    8.1643    5.0904   -7.6957 H   0  0  0  0  0  0  0  0  0  0  0  0
   10.0735    5.7781   -9.9902 H   0  0  0  0  0  0  0  0  0  0  0  0
    9.8758    4.1487   -9.4233 H   0  0  0  0  0  0  0  0  0  0  0  0
    7.6322    4.0234  -10.1344 H   0  0  0  0  0  0  0  0  0  0  0  0
    7.4567    5.7687  -10.2902 H   0  0  0  0  0  0  0  0  0  0  0  0
   10.4860    4.3261  -11.5417 H   0  0  0  0  0  0  0  0  0  0  0  0
    9.4580    2.9724  -11.8627 H   0  0  0  0  0  0  0  0  0  0  0  0
   10.3011    5.2098  -13.8151 H   0  0  0  0  0  0  0  0  0  0  0  0
   10.9482    3.5823  -13.7878 H   0  0  0  0  0  0  0  0  0  0  0  0
    7.3916    1.6303  -13.9459 H   0  0  0  0  0  0  0  0  0  0  0  0
    7.5909   -0.6101  -14.9729 H   0  0  0  0  0  0  0  0  0  0  0  0
    9.3677   -1.0546  -16.6516 H   0  0  0  0  0  0  0  0  0  0  0  0
    7.6865    5.3722  -14.4907 H   0  0  0  0  0  0  0  0  0  0  0  0
    6.8482    3.8434  -14.6466 H   0  0  0  0  0  0  0  0  0  0  0  0
    7.0896    3.3725  -12.2698 H   0  0  0  0  0  0  0  0  0  0  0  0
    6.4908    5.0032  -12.4223 H   0  0  0  0  0  0  0  0  0  0  0  0
   10.4868   10.5980   -6.6469 H   0  0  0  0  0  0  0  0  0  0  0  0
   11.2837   11.0114   -4.3783 H   0  0  0  0  0  0  0  0  0  0  0  0
   12.1113   10.1926   -2.2413 H   0  0  0  0  0  0  0  0  0  0  0  0
   12.8148    8.2514   -0.8312 H   0  0  0  0  0  0  0  0  0  0  0  0
   12.7539    5.9504   -1.8320 H   0  0  0  0  0  0  0  0  0  0  0  0
   11.2239    6.3730   -6.1443 H   0  0  0  0  0  0  0  0  0  0  0  0
  2  1  2  0
  3  2  2  0
  4  2  1  0
  5  4  1  0
  6  5  1  0
  7  6  1  0
  8  7  1  0
  9  8  1  0
 10  9  1  0
 11 10  1  0
 12 11  1  0
 13 12  2  0
 14 13  1  0
 15 14  2  0
 16 15  1  0
 17 16  1  0
 18 12  1  0
 18 16  2  0
 19 18  1  0
 20 11  1  0
 21  8  1  0
 21 20  1  0
 22  2  1  0
 23 22  2  0
 24 23  1  0
 25 24  2  0
 26 25  1  0
 27 26  2  0
 28 27  1  0
 29 28  2  0
 30 25  1  0
 30 29  1  0
 31 22  1  0
 31 30  2  0
 32  4  1  0
 33  5  1  0
 34  5  1  0
 35  6  1  0
 36  6  1  0
 37  7  1  0
 38  7  1  0
 39  9  1  0
 40  9  1  0
 41 10  1  0
 42 10  1  0
 43 13  1  0
 44 14  1  0
 45 15  1  0
 46 20  1  0
 47 20  1  0
 48 21  1  0
 49 21  1  0
 50 23  1  0
 51 24  1  0
 52 26  1  0
 53 27  1  0
 54 28  1  0
 55 31  1  0
M  END
>  <b_m_subgroup_collapsed>  (1182) 
0

>  <r_i_docking_score>  (1182) 
-6.52543881173162

>  <s_m_subgroup_title>  (1182) 
glide-dock_SP_D22_pv

>  <s_m_subgroupid>  (1182) 
glide-dock_SP_D22_pv

>  <Molecule ChEMBL ID>  (1182) 
CHEMBL2312934

>  <Standard Type>  (1182) 
Ki

>  <Standard Value>  (1182) 
16.0

>  <label>  (1182) 
1

$$$$
CHEMBL5283457
     RDKit          3D

 43 45  0  0  1  0  0  0  0  0999 V2000
    8.8860    6.3150   -8.9624 C   0  0  0  0  0  0  0  0  0  0  0  0
    8.8860    7.0419  -10.2536 N   0  0  0  0  0  0  0  0  0  0  0  0
    9.7151    8.2658  -10.1994 C   0  0  0  0  0  0  0  0  0  0  0  0
    9.2112    6.1750  -11.4137 C   0  0  0  0  0  0  0  0  0  0  0  0
    8.0026    5.3548  -11.9267 C   0  0  0  0  0  0  0  0  0  0  0  0
    8.3223    4.3020  -12.9997 C   0  0  0  0  0  0  0  0  0  0  0  0
    9.6371    4.1872  -13.4991 C   0  0  0  0  0  0  0  0  0  0  0  0
    9.9971    3.1206  -14.3284 C   0  0  0  0  0  0  0  0  0  0  0  0
   11.2860    3.0336  -14.7708 O   0  0  0  0  0  0  0  0  0  0  0  0
    9.0530    2.1395  -14.6782 C   0  0  0  0  0  0  0  0  0  0  0  0
    9.5279    1.0436  -15.3432 O   0  0  0  0  0  0  0  0  0  0  0  0
    7.6888    2.2682  -14.2861 C   0  0  0  0  0  0  0  0  0  0  0  0
    7.3375    3.3723  -13.4469 C   0  0  0  0  0  0  0  0  0  0  0  0
    5.8884    3.4767  -12.9707 C   0  0  0  0  0  0  0  0  0  0  0  0
    5.2658    2.1041  -12.6791 C   0  0  0  0  0  0  0  0  0  0  0  0
    5.4936    1.1244  -13.8078 C   0  0  0  0  0  0  0  0  0  0  0  0
    4.5022    0.1535  -14.0683 C   0  0  0  0  0  0  0  0  0  0  0  0
    4.6280   -0.7102  -15.1675 C   0  0  0  0  0  0  0  0  0  0  0  0
    5.7347   -0.5781  -16.0202 C   0  0  0  0  0  0  0  0  0  0  0  0
    6.7200    0.3942  -15.7580 C   0  0  0  0  0  0  0  0  0  0  0  0
    6.6466    1.2477  -14.6261 C   0  0  0  0  0  0  0  0  0  0  0  0
    9.8799    5.9382   -8.7172 H   0  0  0  0  0  0  0  0  0  0  0  0
    8.5599    6.9723   -8.1550 H   0  0  0  0  0  0  0  0  0  0  0  0
    8.1950    5.4723   -8.9831 H   0  0  0  0  0  0  0  0  0  0  0  0
   10.7713    8.0217  -10.0782 H   0  0  0  0  0  0  0  0  0  0  0  0
    9.5979    8.8504  -11.1126 H   0  0  0  0  0  0  0  0  0  0  0  0
    9.4104    8.9000   -9.3657 H   0  0  0  0  0  0  0  0  0  0  0  0
   10.0328    5.5192  -11.1214 H   0  0  0  0  0  0  0  0  0  0  0  0
    9.5756    6.7921  -12.2366 H   0  0  0  0  0  0  0  0  0  0  0  0
    7.2363    6.0310  -12.3087 H   0  0  0  0  0  0  0  0  0  0  0  0
    7.5642    4.8277  -11.0795 H   0  0  0  0  0  0  0  0  0  0  0  0
   10.4157    4.8833  -13.2311 H   0  0  0  0  0  0  0  0  0  0  0  0
   11.3676    2.5444  -15.5752 H   0  0  0  0  0  0  0  0  0  0  0  0
   10.4216    0.8455  -15.1111 H   0  0  0  0  0  0  0  0  0  0  0  0
    5.7640    4.1043  -12.0910 H   0  0  0  0  0  0  0  0  0  0  0  0
    5.3255    3.9629  -13.7686 H   0  0  0  0  0  0  0  0  0  0  0  0
    4.1959    2.2158  -12.5103 H   0  0  0  0  0  0  0  0  0  0  0  0
    5.6860    1.6748  -11.7724 H   0  0  0  0  0  0  0  0  0  0  0  0
    3.6217    0.0868  -13.4469 H   0  0  0  0  0  0  0  0  0  0  0  0
    3.8690   -1.4524  -15.3727 H   0  0  0  0  0  0  0  0  0  0  0  0
    5.8304   -1.2244  -16.8806 H   0  0  0  0  0  0  0  0  0  0  0  0
    7.5312    0.4686  -16.4631 H   0  0  0  0  0  0  0  0  0  0  0  0
    7.9161    7.3723  -10.3593 H   0  0  0  0  0  0  0  0  0  0  0  0
  2  1  1  0
  3  2  1  0
  4  2  1  0
  5  4  1  0
  6  5  1  0
  7  6  1  0
  8  7  2  0
  9  8  1  0
 10  8  1  0
 11 10  1  0
 12 10  2  0
 13  6  2  0
 13 12  1  0
 14 13  1  0
 15 14  1  0
 16 15  1  0
 17 16  2  0
 18 17  1  0
 19 18  2  0
 20 19  1  0
 21 12  1  0
 21 16  1  0
 21 20  2  0
 22  1  1  0
 23  1  1  0
 24  1  1  0
 25  3  1  0
 26  3  1  0
 27  3  1  0
 28  4  1  0
 29  4  1  0
 30  5  1  0
 31  5  1  0
 32  7  1  0
 33  9  1  0
 34 11  1  0
 35 14  1  0
 36 14  1  0
 37 15  1  0
 38 15  1  0
 39 17  1  0
 40 18  1  0
 41 19  1  0
 42 20  1  0
 43  2  1  0
M  CHG  1   2   1
M  END
>  <b_m_subgroup_collapsed>  (1183) 
0

>  <r_i_docking_score>  (1183) 
-6.52335537113622

>  <s_m_subgroup_title>  (1183) 
glide-dock_SP_D22_pv

>  <s_m_subgroupid>  (1183) 
glide-dock_SP_D22_pv

>  <Molecule ChEMBL ID>  (1183) 
CHEMBL5283457

>  <Standard Type>  (1183) 
Ki

>  <Standard Value>  (1183) 
38.9

>  <label>  (1183) 
1

$$$$
CHEMBL611973
     RDKit          3D

 53 57  0  0  1  0  0  0  0  0999 V2000
    9.6431    6.5686   -7.2322 C   0  0  0  0  0  0  0  0  0  0  0  0
    9.5597    7.2643   -8.5963 C   0  0  0  0  0  0  0  0  0  0  0  0
    9.2533    6.2806   -9.7426 C   0  0  0  0  0  0  0  0  0  0  0  0
    8.8859    6.9418  -11.0309 N   0  0  1  0  0  0  0  0  0  0  0  0
    9.8044    8.0080  -11.4816 C   0  0  0  0  0  0  0  0  0  0  0  0
   11.1395    7.3805  -11.8861 C   0  0  0  0  0  0  0  0  0  0  0  0
   11.0302    6.2820  -12.9358 C   0  0  0  0  0  0  0  0  0  0  0  0
   12.0834    5.9089  -13.7864 C   0  0  0  0  0  0  0  0  0  0  0  0
   11.9520    4.7768  -14.5949 C   0  0  0  0  0  0  0  0  0  0  0  0
   10.7613    4.0323  -14.5751 C   0  0  0  0  0  0  0  0  0  0  0  0
    9.6250    4.3849  -13.7978 C   0  0  0  0  0  0  0  0  0  0  0  0
    9.8186    5.5326  -12.9726 C   0  0  0  0  0  0  0  0  0  0  0  0
    8.5889    6.0246  -12.1721 C   0  0  1  0  0  0  0  0  0  0  0  0
    7.5714    4.9264  -11.8072 C   0  0  0  0  0  0  0  0  0  0  0  0
    7.3137    3.9289  -12.9128 C   0  0  0  0  0  0  0  0  0  0  0  0
    6.0861    3.2229  -12.8939 C   0  0  0  0  0  0  0  0  0  0  0  0
    5.8769    2.1367  -13.7635 C   0  0  0  0  0  0  0  0  0  0  0  0
    6.8927    1.8299  -14.6774 C   0  0  0  0  0  0  0  0  0  0  0  0
    8.0757    2.5507  -14.7397 C   0  0  0  0  0  0  0  0  0  0  0  0
    8.3444    3.6216  -13.8421 C   0  0  0  0  0  0  0  0  0  0  0  0
    8.8907    2.0710  -15.7306 O   0  0  0  0  0  0  0  0  0  0  0  0
    8.2291    1.0184  -16.4508 C   0  0  0  0  0  0  0  0  0  0  0  0
    7.9607    1.5414  -17.8698 C   0  0  0  0  0  0  0  0  0  0  0  0
    9.1661   -0.2020  -16.4722 C   0  0  0  0  0  0  0  0  0  0  0  0
    6.9070    0.7362  -15.6908 C   0  0  0  0  0  0  0  0  0  0  0  0
    9.9072    7.2775   -6.4472 H   0  0  0  0  0  0  0  0  0  0  0  0
   10.3930    5.7766   -7.2322 H   0  0  0  0  0  0  0  0  0  0  0  0
    8.6828    6.1280   -6.9613 H   0  0  0  0  0  0  0  0  0  0  0  0
    8.7830    8.0297   -8.5478 H   0  0  0  0  0  0  0  0  0  0  0  0
   10.5039    7.7775   -8.7770 H   0  0  0  0  0  0  0  0  0  0  0  0
   10.0835    5.5905   -9.8889 H   0  0  0  0  0  0  0  0  0  0  0  0
    8.4050    5.6838   -9.4102 H   0  0  0  0  0  0  0  0  0  0  0  0
    9.3656    8.5259  -12.3343 H   0  0  0  0  0  0  0  0  0  0  0  0
    9.9456    8.7723  -10.7196 H   0  0  0  0  0  0  0  0  0  0  0  0
   11.8296    8.1405  -12.2461 H   0  0  0  0  0  0  0  0  0  0  0  0
   11.6348    6.9732  -11.0057 H   0  0  0  0  0  0  0  0  0  0  0  0
   13.0047    6.4702  -13.7978 H   0  0  0  0  0  0  0  0  0  0  0  0
   12.7712    4.4679  -15.2294 H   0  0  0  0  0  0  0  0  0  0  0  0
   10.7606    3.1673  -15.2114 H   0  0  0  0  0  0  0  0  0  0  0  0
    8.0643    6.6493  -12.8963 H   0  0  0  0  0  0  0  0  0  0  0  0
    7.9463    4.3127  -10.9899 H   0  0  0  0  0  0  0  0  0  0  0  0
    6.6381    5.3745  -11.4610 H   0  0  0  0  0  0  0  0  0  0  0  0
    5.3295    3.4741  -12.1617 H   0  0  0  0  0  0  0  0  0  0  0  0
    4.9606    1.5655  -13.7413 H   0  0  0  0  0  0  0  0  0  0  0  0
    7.4347    0.8011  -18.4733 H   0  0  0  0  0  0  0  0  0  0  0  0
    8.8916    1.7885  -18.3808 H   0  0  0  0  0  0  0  0  0  0  0  0
    7.3523    2.4430  -17.8354 H   0  0  0  0  0  0  0  0  0  0  0  0
    8.7379   -1.0269  -17.0440 H   0  0  0  0  0  0  0  0  0  0  0  0
    9.3675   -0.5641  -15.4638 H   0  0  0  0  0  0  0  0  0  0  0  0
   10.1255    0.0488  -16.9266 H   0  0  0  0  0  0  0  0  0  0  0  0
    6.9200   -0.2266  -15.1826 H   0  0  0  0  0  0  0  0  0  0  0  0
    6.0329    0.7775  -16.3371 H   0  0  0  0  0  0  0  0  0  0  0  0
    7.9854    7.3787  -10.8141 H   0  0  0  0  0  0  0  0  0  0  0  0
  2  1  1  0
  3  2  1  0
  4  3  1  0
  5  4  1  0
  6  5  1  0
  7  6  1  0
  8  7  2  0
  9  8  1  0
 10  9  2  0
 11 10  1  0
 12  7  1  0
 12 11  2  0
 13  4  1  0
 13 12  1  0
 14 13  1  0
 15 14  1  0
 16 15  2  0
 17 16  1  0
 18 17  2  0
 19 18  1  0
 20 11  1  0
 20 15  1  0
 20 19  2  0
 21 19  1  0
 22 21  1  0
 23 22  1  0
 24 22  1  0
 25 18  1  0
 25 22  1  0
 26  1  1  0
 27  1  1  0
 28  1  1  0
 29  2  1  0
 30  2  1  0
 31  3  1  0
 32  3  1  0
 33  5  1  0
 34  5  1  0
 35  6  1  0
 36  6  1  0
 37  8  1  0
 38  9  1  0
 39 10  1  0
 13 40  1  6
 41 14  1  0
 42 14  1  0
 43 16  1  0
 44 17  1  0
 45 23  1  0
 46 23  1  0
 47 23  1  0
 48 24  1  0
 49 24  1  0
 50 24  1  0
 51 25  1  0
 52 25  1  0
  4 53  1  1
M  CHG  1   4   1
M  END
>  <b_m_subgroup_collapsed>  (1184) 
0

>  <r_i_docking_score>  (1184) 
-6.5224012375048801

>  <s_m_subgroup_title>  (1184) 
glide-dock_SP_D22_pv

>  <s_m_subgroupid>  (1184) 
glide-dock_SP_D22_pv

>  <Molecule ChEMBL ID>  (1184) 
CHEMBL611973

>  <Standard Type>  (1184) 
Ki

>  <Standard Value>  (1184) 
10000.0

>  <label>  (1184) 
0

$$$$
CHEMBL5400983
     RDKit          3D

 46 49  0  0  1  0  0  0  0  0999 V2000
   12.0859    7.3866   -3.2219 Cl  0  0  0  0  0  0  0  0  0  0  0  0
   11.5856    7.8555   -4.8060 C   0  0  0  0  0  0  0  0  0  0  0  0
   11.7579    9.1852   -5.2310 C   0  0  0  0  0  0  0  0  0  0  0  0
   11.3948    9.5550   -6.5390 C   0  0  0  0  0  0  0  0  0  0  0  0
   10.8420    8.5961   -7.4089 C   0  0  0  0  0  0  0  0  0  0  0  0
   10.3194    8.7893   -9.0799 S   0  0  0  0  0  0  0  0  0  0  0  0
    9.7369    7.1191   -9.0512 C   0  0  0  0  0  0  0  0  0  0  0  0
    8.8888    6.5723  -10.1597 C   0  0  0  0  0  0  0  0  0  0  0  0
    9.5667    5.6379  -11.1766 C   0  0  0  0  0  0  0  0  0  0  0  0
   10.4681    6.3786  -12.1900 C   0  0  0  0  0  0  0  0  0  0  0  0
   11.0433    5.5044  -13.2224 N   0  0  0  0  0  0  0  0  0  0  0  0
   10.0419    4.9679  -14.1558 C   0  0  0  0  0  0  0  0  0  0  0  0
   10.7276    4.0556  -15.1953 C   0  0  0  0  0  0  0  0  0  0  0  0
   11.7311    4.8041  -15.9499 N   0  0  0  0  0  0  0  0  0  0  0  0
   11.3663    5.5633  -17.0890 C   0  0  0  0  0  0  0  0  0  0  0  0
   10.0845    5.4654  -17.6873 C   0  0  0  0  0  0  0  0  0  0  0  0
    9.7902    6.2472  -18.8200 C   0  0  0  0  0  0  0  0  0  0  0  0
   10.7826    7.0957  -19.3389 C   0  0  0  0  0  0  0  0  0  0  0  0
   12.0295    7.1254  -18.6935 C   0  0  0  0  0  0  0  0  0  0  0  0
   12.3125    6.3856  -17.6027 N   0  0  0  0  0  0  0  0  0  0  0  0
   12.7383    5.3454  -15.0398 C   0  0  0  0  0  0  0  0  0  0  0  0
   12.0694    6.2433  -13.9743 C   0  0  0  0  0  0  0  0  0  0  0  0
   10.0314    6.4188   -7.9449 N   0  0  0  0  0  0  0  0  0  0  0  0
   10.6253    7.2493   -6.9942 C   0  0  0  0  0  0  0  0  0  0  0  0
   11.0211    6.9046   -5.6796 C   0  0  0  0  0  0  0  0  0  0  0  0
   12.1892    9.9124   -4.5596 H   0  0  0  0  0  0  0  0  0  0  0  0
   11.5406   10.5699   -6.8748 H   0  0  0  0  0  0  0  0  0  0  0  0
    8.4862    7.4225  -10.7060 H   0  0  0  0  0  0  0  0  0  0  0  0
    8.0426    6.0575   -9.7042 H   0  0  0  0  0  0  0  0  0  0  0  0
    8.7564    5.1535  -11.7186 H   0  0  0  0  0  0  0  0  0  0  0  0
   10.0863    4.8344  -10.6591 H   0  0  0  0  0  0  0  0  0  0  0  0
   11.2822    6.8503  -11.6372 H   0  0  0  0  0  0  0  0  0  0  0  0
    9.9075    7.1924  -12.6478 H   0  0  0  0  0  0  0  0  0  0  0  0
    9.5007    5.7706  -14.6537 H   0  0  0  0  0  0  0  0  0  0  0  0
    9.3047    4.3743  -13.6181 H   0  0  0  0  0  0  0  0  0  0  0  0
   10.0003    3.5690  -15.8414 H   0  0  0  0  0  0  0  0  0  0  0  0
   11.2312    3.2374  -14.6778 H   0  0  0  0  0  0  0  0  0  0  0  0
    9.3095    4.8255  -17.3015 H   0  0  0  0  0  0  0  0  0  0  0  0
    8.8155    6.1974  -19.2814 H   0  0  0  0  0  0  0  0  0  0  0  0
   10.5937    7.7122  -20.2048 H   0  0  0  0  0  0  0  0  0  0  0  0
   12.8194    7.7665  -19.0572 H   0  0  0  0  0  0  0  0  0  0  0  0
   13.2549    4.5061  -14.5776 H   0  0  0  0  0  0  0  0  0  0  0  0
   13.5184    5.9005  -15.5593 H   0  0  0  0  0  0  0  0  0  0  0  0
   11.6338    7.1197  -14.4552 H   0  0  0  0  0  0  0  0  0  0  0  0
   12.8321    6.6101  -13.2871 H   0  0  0  0  0  0  0  0  0  0  0  0
   10.8864    5.8876   -5.3402 H   0  0  0  0  0  0  0  0  0  0  0  0
  2  1  1  0
  3  2  2  0
  4  3  1  0
  5  4  2  0
  6  5  1  0
  7  6  1  0
  8  7  1  0
  9  8  1  0
 10  9  1  0
 11 10  1  0
 12 11  1  0
 13 12  1  0
 14 13  1  0
 15 14  1  0
 16 15  2  0
 17 16  1  0
 18 17  2  0
 19 18  1  0
 20 15  1  0
 20 19  2  0
 21 14  1  0
 22 11  1  0
 22 21  1  0
 23  7  2  0
 24  5  1  0
 24 23  1  0
 25  2  1  0
 25 24  2  0
 26  3  1  0
 27  4  1  0
 28  8  1  0
 29  8  1  0
 30  9  1  0
 31  9  1  0
 32 10  1  0
 33 10  1  0
 34 12  1  0
 35 12  1  0
 36 13  1  0
 37 13  1  0
 38 16  1  0
 39 17  1  0
 40 18  1  0
 41 19  1  0
 42 21  1  0
 43 21  1  0
 44 22  1  0
 45 22  1  0
 46 25  1  0
M  END
>  <b_m_subgroup_collapsed>  (1185) 
0

>  <r_i_docking_score>  (1185) 
-6.5187786982757698

>  <s_m_subgroup_title>  (1185) 
glide-dock_SP_D22_pv

>  <s_m_subgroupid>  (1185) 
glide-dock_SP_D22_pv

>  <Molecule ChEMBL ID>  (1185) 
CHEMBL5400983

>  <Standard Type>  (1185) 
Ki

>  <Standard Value>  (1185) 
14000.0

>  <label>  (1185) 
0

$$$$
CHEMBL3187365
     RDKit          3D

 37 40  0  0  1  0  0  0  0  0999 V2000
    5.8683    5.4484  -12.0779 C   0  0  0  0  0  0  0  0  0  0  0  0
    7.2870    5.7723  -11.8412 N   0  0  1  0  0  0  0  0  0  0  0  0
    7.9038    5.0773  -10.6947 C   0  0  0  0  0  0  0  0  0  0  0  0
    9.4063    5.0727  -10.9532 C   0  0  2  0  0  0  0  0  0  0  0  0
   10.0861    6.2435  -10.2300 C   0  0  0  0  0  0  0  0  0  0  0  0
   10.1518    6.1723   -8.8177 C   0  0  0  0  0  0  0  0  0  0  0  0
   10.7798    7.1817   -8.0649 C   0  0  0  0  0  0  0  0  0  0  0  0
   11.3556    8.2844   -8.7182 C   0  0  0  0  0  0  0  0  0  0  0  0
   11.2820    8.3798  -10.1190 C   0  0  0  0  0  0  0  0  0  0  0  0
   10.6464    7.3733  -10.8753 C   0  0  0  0  0  0  0  0  0  0  0  0
   10.5488    7.5637  -12.2205 O   0  0  0  0  0  0  0  0  0  0  0  0
   11.2096    6.7020  -13.0469 C   0  0  0  0  0  0  0  0  0  0  0  0
   12.2840    7.1781  -13.8232 C   0  0  0  0  0  0  0  0  0  0  0  0
   12.8181    6.3811  -14.8506 C   0  0  0  0  0  0  0  0  0  0  0  0
   12.2921    5.0983  -15.0845 C   0  0  0  0  0  0  0  0  0  0  0  0
   12.8853    4.1688  -16.4081 Cl  0  0  0  0  0  0  0  0  0  0  0  0
   11.2528    4.5992  -14.2729 C   0  0  0  0  0  0  0  0  0  0  0  0
   10.6940    5.4083  -13.2584 C   0  0  0  0  0  0  0  0  0  0  0  0
    9.4633    4.9426  -12.4945 C   0  0  2  0  0  0  0  0  0  0  0  0
    8.1732    5.6020  -13.0088 C   0  0  0  0  0  0  0  0  0  0  0  0
    5.7156    4.3791  -12.2303 H   0  0  0  0  0  0  0  0  0  0  0  0
    5.4965    5.9828  -12.9528 H   0  0  0  0  0  0  0  0  0  0  0  0
    5.2805    5.7723  -11.2196 H   0  0  0  0  0  0  0  0  0  0  0  0
    7.6855    5.5597   -9.7436 H   0  0  0  0  0  0  0  0  0  0  0  0
    7.5288    4.0551  -10.6537 H   0  0  0  0  0  0  0  0  0  0  0  0
    9.8488    4.1753  -10.5176 H   0  0  0  0  0  0  0  0  0  0  0  0
    9.7265    5.3251   -8.2992 H   0  0  0  0  0  0  0  0  0  0  0  0
   10.8245    7.1048   -6.9882 H   0  0  0  0  0  0  0  0  0  0  0  0
   11.8452    9.0597   -8.1474 H   0  0  0  0  0  0  0  0  0  0  0  0
   11.7102    9.2379  -10.6171 H   0  0  0  0  0  0  0  0  0  0  0  0
   12.6677    8.1742  -13.6694 H   0  0  0  0  0  0  0  0  0  0  0  0
   13.6168    6.7625  -15.4697 H   0  0  0  0  0  0  0  0  0  0  0  0
   10.8482    3.6180  -14.4747 H   0  0  0  0  0  0  0  0  0  0  0  0
    9.3522    3.8753  -12.6967 H   0  0  0  0  0  0  0  0  0  0  0  0
    7.7185    4.9925  -13.7917 H   0  0  0  0  0  0  0  0  0  0  0  0
    8.3554    6.5832  -13.4365 H   0  0  0  0  0  0  0  0  0  0  0  0
    7.2955    6.7540  -11.5725 H   0  0  0  0  0  0  0  0  0  0  0  0
  2  1  1  0
  3  2  1  0
  4  3  1  0
  5  4  1  0
  6  5  2  0
  7  6  1  0
  8  7  2  0
  9  8  1  0
 10  5  1  0
 10  9  2  0
 11 10  1  0
 12 11  1  0
 13 12  1  0
 14 13  2  0
 15 14  1  0
 16 15  1  0
 17 15  2  0
 18 12  2  0
 18 17  1  0
 19  4  1  0
 19 18  1  0
 20  2  1  0
 20 19  1  0
 21  1  1  0
 22  1  1  0
 23  1  1  0
 24  3  1  0
 25  3  1  0
  4 26  1  1
 27  6  1  0
 28  7  1  0
 29  8  1  0
 30  9  1  0
 31 13  1  0
 32 14  1  0
 33 17  1  0
 19 34  1  1
 35 20  1  0
 36 20  1  0
  2 37  1  1
M  CHG  1   2   1
M  END
>  <b_m_subgroup_collapsed>  (1186) 
0

>  <r_i_docking_score>  (1186) 
-6.5040875870558201

>  <s_m_subgroup_title>  (1186) 
glide-dock_SP_D22_pv

>  <s_m_subgroupid>  (1186) 
glide-dock_SP_D22_pv

>  <Molecule ChEMBL ID>  (1186) 
CHEMBL3187365

>  <Standard Type>  (1186) 
Ki

>  <Standard Value>  (1186) 
8.9

>  <label>  (1186) 
1

$$$$
CHEMBL2443003
     RDKit          3D

 59 62  0  0  1  0  0  0  0  0999 V2000
   11.8071   11.0591   -6.1540 C   0  0  0  0  0  0  0  0  0  0  0  0
   11.2253    9.7878   -6.2943 O   0  0  0  0  0  0  0  0  0  0  0  0
   11.4529    8.8776   -5.2846 C   0  0  0  0  0  0  0  0  0  0  0  0
   12.1740    9.1852   -4.0982 C   0  0  0  0  0  0  0  0  0  0  0  0
   12.4485    8.1997   -3.1367 C   0  0  0  0  0  0  0  0  0  0  0  0
   12.0153    6.8849   -3.3523 C   0  0  0  0  0  0  0  0  0  0  0  0
   11.2867    6.5779   -4.5134 C   0  0  0  0  0  0  0  0  0  0  0  0
   10.9696    7.5631   -5.4673 C   0  0  0  0  0  0  0  0  0  0  0  0
   10.1664    7.2149   -6.5712 N   0  0  0  0  0  0  0  0  0  0  0  0
   10.5311    6.1166   -7.4499 C   0  0  0  0  0  0  0  0  0  0  0  0
   10.7185    6.6294   -8.8916 C   0  0  0  0  0  0  0  0  0  0  0  0
    9.5168    7.3330   -9.3447 N   0  0  0  0  0  0  0  0  0  0  0  0
    9.6519    7.7654  -10.7318 C   0  0  0  0  0  0  0  0  0  0  0  0
    9.7924    6.7367  -11.8153 C   0  0  0  0  0  0  0  0  0  0  0  0
    8.9350    5.7367  -12.1700 C   0  0  0  0  0  0  0  0  0  0  0  0
    9.5816    5.0986  -13.2138 N   0  0  0  0  0  0  0  0  0  0  0  0
    9.1019    3.9886  -14.0416 C   0  0  2  0  0  0  0  0  0  0  0  0
    7.9287    3.5224  -13.4482 O   0  0  0  0  0  0  0  0  0  0  0  0
    7.1992    2.5596  -14.2029 C   0  0  2  0  0  0  0  0  0  0  0  0
    5.9019    2.2960  -13.4263 C   0  0  0  0  0  0  0  0  0  0  0  0
    5.2147    3.4295  -13.2984 F   0  0  0  0  0  0  0  0  0  0  0  0
    8.0605    1.2913  -14.3896 C   0  0  1  0  0  0  0  0  0  0  0  0
    7.4210    0.4363  -15.3150 O   0  0  0  0  0  0  0  0  0  0  0  0
    9.4434    1.6640  -14.9484 C   0  0  2  0  0  0  0  0  0  0  0  0
   10.2753    0.5222  -14.8425 O   0  0  0  0  0  0  0  0  0  0  0  0
   10.0976    2.8031  -14.1358 C   0  0  1  0  0  0  0  0  0  0  0  0
   11.2859    3.1429  -14.8242 O   0  0  0  0  0  0  0  0  0  0  0  0
   10.7676    5.7021  -13.4827 N   0  0  0  0  0  0  0  0  0  0  0  0
   10.9082    6.6804  -12.6463 N   0  0  0  0  0  0  0  0  0  0  0  0
    9.2946    8.4967   -8.4802 C   0  0  0  0  0  0  0  0  0  0  0  0
    9.0512    8.0350   -7.0282 C   0  0  0  0  0  0  0  0  0  0  0  0
   11.6832   11.6676   -7.0468 H   0  0  0  0  0  0  0  0  0  0  0  0
   11.3083   11.5628   -5.3270 H   0  0  0  0  0  0  0  0  0  0  0  0
   12.8822   10.9723   -5.9807 H   0  0  0  0  0  0  0  0  0  0  0  0
   12.5486   10.1722   -3.8948 H   0  0  0  0  0  0  0  0  0  0  0  0
   12.9939    8.4561   -2.2413 H   0  0  0  0  0  0  0  0  0  0  0  0
   12.2148    6.1169   -2.6198 H   0  0  0  0  0  0  0  0  0  0  0  0
   10.9131    5.5825   -4.6454 H   0  0  0  0  0  0  0  0  0  0  0  0
    9.7343    5.3724   -7.4313 H   0  0  0  0  0  0  0  0  0  0  0  0
   11.4449    5.6319   -7.1038 H   0  0  0  0  0  0  0  0  0  0  0  0
   10.8856    5.7729   -9.5416 H   0  0  0  0  0  0  0  0  0  0  0  0
   11.5913    7.2800   -8.9631 H   0  0  0  0  0  0  0  0  0  0  0  0
   10.4905    8.4615  -10.7914 H   0  0  0  0  0  0  0  0  0  0  0  0
    8.7682    8.3606  -10.9634 H   0  0  0  0  0  0  0  0  0  0  0  0
    7.9656    5.4500  -11.7855 H   0  0  0  0  0  0  0  0  0  0  0  0
    8.8787    4.3999  -15.0285 H   0  0  0  0  0  0  0  0  0  0  0  0
    6.9480    2.9724  -15.1789 H   0  0  0  0  0  0  0  0  0  0  0  0
    5.2638    1.5774  -13.9373 H   0  0  0  0  0  0  0  0  0  0  0  0
    6.0852    1.9220  -12.4211 H   0  0  0  0  0  0  0  0  0  0  0  0
    8.1699    0.7611  -13.4469 H   0  0  0  0  0  0  0  0  0  0  0  0
    7.9674   -0.3293  -15.4466 H   0  0  0  0  0  0  0  0  0  0  0  0
    9.3554    1.9582  -15.9953 H   0  0  0  0  0  0  0  0  0  0  0  0
   10.3532    0.3109  -13.9227 H   0  0  0  0  0  0  0  0  0  0  0  0
   10.3406    2.4967  -13.1205 H   0  0  0  0  0  0  0  0  0  0  0  0
   11.7710    2.3414  -14.9728 H   0  0  0  0  0  0  0  0  0  0  0  0
   10.1527    9.1693   -8.5281 H   0  0  0  0  0  0  0  0  0  0  0  0
    8.4295    9.0603   -8.8292 H   0  0  0  0  0  0  0  0  0  0  0  0
    8.1368    7.4416   -6.9779 H   0  0  0  0  0  0  0  0  0  0  0  0
    8.8919    8.8887   -6.3713 H   0  0  0  0  0  0  0  0  0  0  0  0
  2  1  1  0
  3  2  1  0
  4  3  2  0
  5  4  1  0
  6  5  2  0
  7  6  1  0
  8  3  1  0
  8  7  2  0
  9  8  1  0
 10  9  1  0
 11 10  1  0
 12 11  1  0
 13 12  1  0
 14 13  1  0
 15 14  2  0
 16 15  1  0
 17 16  1  0
 18 17  1  0
 19 18  1  0
 20 19  1  0
 21 20  1  0
 22 19  1  0
 23 22  1  0
 24 22  1  0
 25 24  1  0
 26 17  1  0
 26 24  1  0
 27 26  1  0
 28 16  1  0
 29 14  1  0
 29 28  2  0
 30 12  1  0
 31  9  1  0
 31 30  1  0
 32  1  1  0
 33  1  1  0
 34  1  1  0
 35  4  1  0
 36  5  1  0
 37  6  1  0
 38  7  1  0
 39 10  1  0
 40 10  1  0
 41 11  1  0
 42 11  1  0
 43 13  1  0
 44 13  1  0
 45 15  1  0
 17 46  1  6
 19 47  1  6
 48 20  1  0
 49 20  1  0
 22 50  1  1
 51 23  1  0
 24 52  1  6
 53 25  1  0
 26 54  1  1
 55 27  1  0
 56 30  1  0
 57 30  1  0
 58 31  1  0
 59 31  1  0
M  END
>  <b_m_subgroup_collapsed>  (1187) 
0

>  <r_i_docking_score>  (1187) 
-6.5020346002588898

>  <s_m_subgroup_title>  (1187) 
glide-dock_SP_D22_pv

>  <s_m_subgroupid>  (1187) 
glide-dock_SP_D22_pv

>  <Molecule ChEMBL ID>  (1187) 
CHEMBL2443003

>  <Standard Type>  (1187) 
Ki

>  <Standard Value>  (1187) 
24000.0

>  <label>  (1187) 
0

$$$$
CHEMBL191795
     RDKit          3D

 53 55  0  0  1  0  0  0  0  0999 V2000
    7.3051    1.9102  -14.2473 O   0  0  0  0  0  0  0  0  0  0  0  0
    7.2673    0.8355  -14.8463 C   0  0  0  0  0  0  0  0  0  0  0  0
    8.3557    0.1721  -15.2714 N   0  0  0  0  0  0  0  0  0  0  0  0
    9.7462    0.6112  -15.2037 C   0  0  0  0  0  0  0  0  0  0  0  0
    9.9133    2.0309  -15.7069 C   0  0  0  0  0  0  0  0  0  0  0  0
   10.6151    2.9789  -15.0714 C   0  0  0  0  0  0  0  0  0  0  0  0
   10.6707    4.4268  -15.5219 C   0  0  0  0  0  0  0  0  0  0  0  0
   10.3044    5.3722  -14.4327 N   0  0  0  0  0  0  0  0  0  0  0  0
    9.0649    5.0165  -13.6826 C   0  0  0  0  0  0  0  0  0  0  0  0
    8.6728    6.1206  -12.6838 C   0  0  0  0  0  0  0  0  0  0  0  0
    9.8117    6.4889  -11.8420 N   0  0  0  0  0  0  0  0  0  0  0  0
    9.6900    6.4283  -10.4338 C   0  0  0  0  0  0  0  0  0  0  0  0
    8.9886    5.3396   -9.8681 C   0  0  0  0  0  0  0  0  0  0  0  0
    8.7905    5.2386   -8.4823 C   0  0  0  0  0  0  0  0  0  0  0  0
    9.2869    6.2342   -7.6286 C   0  0  0  0  0  0  0  0  0  0  0  0
   10.0093    7.3155   -8.1601 C   0  0  0  0  0  0  0  0  0  0  0  0
   10.6191    8.5183   -7.0742 Cl  0  0  0  0  0  0  0  0  0  0  0  0
   10.2255    7.4137   -9.5546 C   0  0  0  0  0  0  0  0  0  0  0  0
   11.1263    8.7707  -10.1404 Cl  0  0  0  0  0  0  0  0  0  0  0  0
   11.0754    6.7861  -12.5128 C   0  0  0  0  0  0  0  0  0  0  0  0
   11.4433    5.6908  -13.5366 C   0  0  0  0  0  0  0  0  0  0  0  0
    5.9536    0.1719  -15.1507 C   0  0  0  0  0  0  0  0  0  0  0  0
    4.9919    0.0684  -14.1201 C   0  0  0  0  0  0  0  0  0  0  0  0
    3.7332   -0.5206  -14.3658 C   0  0  0  0  0  0  0  0  0  0  0  0
    3.4434   -1.0278  -15.6439 C   0  0  0  0  0  0  0  0  0  0  0  0
    4.3868   -0.9247  -16.6786 C   0  0  0  0  0  0  0  0  0  0  0  0
    5.6271   -0.2912  -16.4594 C   0  0  0  0  0  0  0  0  0  0  0  0
    6.5116   -0.0792  -17.6177 N   0  0  0  0  0  0  0  0  0  0  0  0
    6.8197    1.0771  -17.8970 O   0  0  0  0  0  0  0  0  0  0  0  0
    6.8722   -1.0651  -18.2482 O   0  0  0  0  0  0  0  0  0  0  0  0
    8.1951   -0.7486  -15.6665 H   0  0  0  0  0  0  0  0  0  0  0  0
   10.3476   -0.0574  -15.8208 H   0  0  0  0  0  0  0  0  0  0  0  0
   10.1152    0.5124  -14.1841 H   0  0  0  0  0  0  0  0  0  0  0  0
    9.4008    2.2696  -16.6284 H   0  0  0  0  0  0  0  0  0  0  0  0
   11.1590    2.7210  -14.1714 H   0  0  0  0  0  0  0  0  0  0  0  0
   11.6676    4.6491  -15.9081 H   0  0  0  0  0  0  0  0  0  0  0  0
    9.9764    4.5688  -16.3544 H   0  0  0  0  0  0  0  0  0  0  0  0
    8.2436    4.8457  -14.3814 H   0  0  0  0  0  0  0  0  0  0  0  0
    9.2120    4.0855  -13.1353 H   0  0  0  0  0  0  0  0  0  0  0  0
    8.3307    7.0074  -13.2094 H   0  0  0  0  0  0  0  0  0  0  0  0
    7.8111    5.8061  -12.0949 H   0  0  0  0  0  0  0  0  0  0  0  0
    8.5856    4.5568  -10.4939 H   0  0  0  0  0  0  0  0  0  0  0  0
    8.2347    4.4060   -8.0792 H   0  0  0  0  0  0  0  0  0  0  0  0
    9.1145    6.1738   -6.5628 H   0  0  0  0  0  0  0  0  0  0  0  0
   10.9745    7.7478  -13.0185 H   0  0  0  0  0  0  0  0  0  0  0  0
   11.8945    6.8937  -11.8015 H   0  0  0  0  0  0  0  0  0  0  0  0
   11.7601    4.7735  -13.0455 H   0  0  0  0  0  0  0  0  0  0  0  0
   12.2961    6.0324  -14.1264 H   0  0  0  0  0  0  0  0  0  0  0  0
    5.2116    0.4548  -13.1348 H   0  0  0  0  0  0  0  0  0  0  0  0
    2.9921   -0.5776  -13.5856 H   0  0  0  0  0  0  0  0  0  0  0  0
    2.4871   -1.4821  -15.8480 H   0  0  0  0  0  0  0  0  0  0  0  0
    4.1292   -1.2909  -17.6631 H   0  0  0  0  0  0  0  0  0  0  0  0
   10.0923    6.2461  -14.8935 H   0  0  0  0  0  0  0  0  0  0  0  0
  2  1  2  0
  3  2  1  0
  4  3  1  0
  5  4  1  0
  6  5  2  0
  7  6  1  0
  8  7  1  0
  9  8  1  0
 10  9  1  0
 11 10  1  0
 12 11  1  0
 13 12  2  0
 14 13  1  0
 15 14  2  0
 16 15  1  0
 17 16  1  0
 18 12  1  0
 18 16  2  0
 19 18  1  0
 20 11  1  0
 21  8  1  0
 21 20  1  0
 22  2  1  0
 23 22  2  0
 24 23  1  0
 25 24  2  0
 26 25  1  0
 27 22  1  0
 27 26  2  0
 28 27  1  0
 29 28  2  0
 30 28  1  0
 31  3  1  0
 32  4  1  0
 33  4  1  0
 34  5  1  0
 35  6  1  0
 36  7  1  0
 37  7  1  0
 38  9  1  0
 39  9  1  0
 40 10  1  0
 41 10  1  0
 42 13  1  0
 43 14  1  0
 44 15  1  0
 45 20  1  0
 46 20  1  0
 47 21  1  0
 48 21  1  0
 49 23  1  0
 50 24  1  0
 51 25  1  0
 52 26  1  0
 53  8  1  0
M  CHG  3   8   1  28   1  30  -1
M  END
>  <b_m_subgroup_collapsed>  (1188) 
0

>  <r_i_docking_score>  (1188) 
-6.4990616676524304

>  <s_m_subgroup_title>  (1188) 
glide-dock_SP_D22_pv

>  <s_m_subgroupid>  (1188) 
glide-dock_SP_D22_pv

>  <Molecule ChEMBL ID>  (1188) 
CHEMBL191795

>  <Standard Type>  (1188) 
Ki

>  <Standard Value>  (1188) 
7.4

>  <label>  (1188) 
1

$$$$
CHEMBL5880427
     RDKit          3D

 45 47  0  0  1  0  0  0  0  0999 V2000
   10.6623    6.7256  -12.0292 C   0  0  0  0  0  0  0  0  0  0  0  0
    9.3641    6.5571  -11.2093 C   0  0  1  0  0  0  0  0  0  0  0  0
    8.2219    6.6181  -12.0690 O   0  0  0  0  0  0  0  0  0  0  0  0
    7.7037    5.4823  -12.6505 C   0  0  0  0  0  0  0  0  0  0  0  0
    8.4708    4.4661  -13.2646 C   0  0  0  0  0  0  0  0  0  0  0  0
    7.8017    3.3730  -13.8468 C   0  0  0  0  0  0  0  0  0  0  0  0
    6.4611    3.2322  -13.8388 N   0  0  0  0  0  0  0  0  0  0  0  0
    5.7329    4.1960  -13.2390 C   0  0  0  0  0  0  0  0  0  0  0  0
    6.3048    5.3374  -12.6467 C   0  0  0  0  0  0  0  0  0  0  0  0
    9.3345    5.3355  -10.2498 C   0  0  0  0  0  0  0  0  0  0  0  0
    9.4851    5.8979   -8.8402 C   0  0  0  0  0  0  0  0  0  0  0  0
    8.8869    7.2393   -8.9233 N   0  0  1  0  0  0  0  0  0  0  0  0
    9.1301    8.1339   -7.7601 C   0  0  0  0  0  0  0  0  0  0  0  0
   10.5672    8.6894   -7.6567 C   0  0  0  0  0  0  0  0  0  0  0  0
   10.7159    9.4733   -6.4838 O   0  0  0  0  0  0  0  0  0  0  0  0
   11.1403    8.8739   -5.3199 C   0  0  0  0  0  0  0  0  0  0  0  0
   11.4362    9.7403   -4.2505 C   0  0  0  0  0  0  0  0  0  0  0  0
   11.9285    9.2394   -3.0316 C   0  0  0  0  0  0  0  0  0  0  0  0
   12.0864    7.8531   -2.8533 C   0  0  0  0  0  0  0  0  0  0  0  0
   11.7522    6.9727   -3.8986 C   0  0  0  0  0  0  0  0  0  0  0  0
   11.2860    7.4758   -5.1294 C   0  0  0  0  0  0  0  0  0  0  0  0
    9.2327    7.7717  -10.2611 C   0  0  0  0  0  0  0  0  0  0  0  0
   11.5189    6.9197  -11.3828 H   0  0  0  0  0  0  0  0  0  0  0  0
   10.9142    5.8683  -12.6463 H   0  0  0  0  0  0  0  0  0  0  0  0
   10.5796    7.5903  -12.6854 H   0  0  0  0  0  0  0  0  0  0  0  0
    9.5435    4.4950  -13.3194 H   0  0  0  0  0  0  0  0  0  0  0  0
    8.3619    2.5856  -14.3293 H   0  0  0  0  0  0  0  0  0  0  0  0
    4.6619    4.0599  -13.2398 H   0  0  0  0  0  0  0  0  0  0  0  0
    5.6863    6.0891  -12.1767 H   0  0  0  0  0  0  0  0  0  0  0  0
    8.3685    4.8303  -10.2824 H   0  0  0  0  0  0  0  0  0  0  0  0
   10.0860    4.5842  -10.4859 H   0  0  0  0  0  0  0  0  0  0  0  0
    8.9895    5.2808   -8.0893 H   0  0  0  0  0  0  0  0  0  0  0  0
   10.5424    5.9623   -8.5829 H   0  0  0  0  0  0  0  0  0  0  0  0
    8.4339    8.9707   -7.8278 H   0  0  0  0  0  0  0  0  0  0  0  0
    8.8599    7.5960   -6.8506 H   0  0  0  0  0  0  0  0  0  0  0  0
   11.3331    7.9182   -7.7345 H   0  0  0  0  0  0  0  0  0  0  0  0
   10.7629    9.3723   -8.4807 H   0  0  0  0  0  0  0  0  0  0  0  0
   11.2857   10.8024   -4.3743 H   0  0  0  0  0  0  0  0  0  0  0  0
   12.1658    9.9187   -2.2259 H   0  0  0  0  0  0  0  0  0  0  0  0
   12.4491    7.4655   -1.9125 H   0  0  0  0  0  0  0  0  0  0  0  0
   11.8587    5.9071   -3.7579 H   0  0  0  0  0  0  0  0  0  0  0  0
   11.0420    6.7653   -5.9039 H   0  0  0  0  0  0  0  0  0  0  0  0
   10.1758    8.3117  -10.2291 H   0  0  0  0  0  0  0  0  0  0  0  0
    8.4862    8.4920  -10.5999 H   0  0  0  0  0  0  0  0  0  0  0  0
    7.8775    7.0990   -8.9584 H   0  0  0  0  0  0  0  0  0  0  0  0
  2  1  1  0
  2  3  1  6
  4  3  1  0
  5  4  2  0
  6  5  1  0
  7  6  2  0
  8  7  1  0
  9  4  1  0
  9  8  2  0
 10  2  1  0
 11 10  1  0
 12 11  1  0
 13 12  1  0
 14 13  1  0
 15 14  1  0
 16 15  1  0
 17 16  2  0
 18 17  1  0
 19 18  2  0
 20 19  1  0
 21 16  1  0
 21 20  2  0
 22  2  1  0
 22 12  1  0
 23  1  1  0
 24  1  1  0
 25  1  1  0
 26  5  1  0
 27  6  1  0
 28  8  1  0
 29  9  1  0
 30 10  1  0
 31 10  1  0
 32 11  1  0
 33 11  1  0
 34 13  1  0
 35 13  1  0
 36 14  1  0
 37 14  1  0
 38 17  1  0
 39 18  1  0
 40 19  1  0
 41 20  1  0
 42 21  1  0
 43 22  1  0
 44 22  1  0
 12 45  1  6
M  CHG  1  12   1
M  END
>  <b_m_subgroup_collapsed>  (1189) 
0

>  <r_i_docking_score>  (1189) 
-6.4958596442538301

>  <s_m_subgroup_title>  (1189) 
glide-dock_SP_D22_pv

>  <s_m_subgroupid>  (1189) 
glide-dock_SP_D22_pv

>  <Molecule ChEMBL ID>  (1189) 
CHEMBL5880427

>  <Standard Type>  (1189) 
Ki

>  <Standard Value>  (1189) 
20000.0

>  <label>  (1189) 
0

$$$$
CHEMBL270595
     RDKit          3D

 30 31  0  0  1  0  0  0  0  0999 V2000
   12.0884    8.5875   -2.6444 C   0  0  0  0  0  0  0  0  0  0  0  0
   12.0860    7.2164   -2.9573 C   0  0  0  0  0  0  0  0  0  0  0  0
   11.6860    6.8219   -4.2467 C   0  0  0  0  0  0  0  0  0  0  0  0
   11.2882    7.8147   -5.1661 C   0  0  0  0  0  0  0  0  0  0  0  0
   10.8828    7.4425   -6.5787 C   0  0  0  0  0  0  0  0  0  0  0  0
    9.3531    7.4865   -6.7736 C   0  0  0  0  0  0  0  0  0  0  0  0
    8.8860    7.1343   -8.1386 N   0  0  0  0  0  0  0  0  0  0  0  0
    9.3173    8.0166   -9.2500 C   0  0  0  0  0  0  0  0  0  0  0  0
    9.6746    7.0921  -10.4213 C   0  0  0  0  0  0  0  0  0  0  0  0
    9.0013    5.7634  -10.0810 C   0  0  0  0  0  0  0  0  0  0  0  0
    9.0587    5.7268   -8.5571 C   0  0  0  0  0  0  0  0  0  0  0  0
   11.2864    9.1329   -4.8694 N   0  0  0  0  0  0  0  0  0  0  0  0
   11.6859    9.5036   -3.6336 C   0  0  0  0  0  0  0  0  0  0  0  0
   12.3879    8.9348   -1.6664 H   0  0  0  0  0  0  0  0  0  0  0  0
   12.3874    6.4805   -2.2258 H   0  0  0  0  0  0  0  0  0  0  0  0
   11.6792    5.7747   -4.5163 H   0  0  0  0  0  0  0  0  0  0  0  0
   11.3911    8.1247   -7.2593 H   0  0  0  0  0  0  0  0  0  0  0  0
   11.2754    6.4496   -6.7958 H   0  0  0  0  0  0  0  0  0  0  0  0
    8.8860    6.7994   -6.0687 H   0  0  0  0  0  0  0  0  0  0  0  0
    8.9762    8.4816   -6.5324 H   0  0  0  0  0  0  0  0  0  0  0  0
    8.4860    8.6707   -9.5136 H   0  0  0  0  0  0  0  0  0  0  0  0
   10.1551    8.6644   -8.9954 H   0  0  0  0  0  0  0  0  0  0  0  0
    9.3498    7.4912  -11.3829 H   0  0  0  0  0  0  0  0  0  0  0  0
   10.7557    6.9553  -10.4646 H   0  0  0  0  0  0  0  0  0  0  0  0
    7.9606    5.7755  -10.4112 H   0  0  0  0  0  0  0  0  0  0  0  0
    9.4906    4.9058  -10.5445 H   0  0  0  0  0  0  0  0  0  0  0  0
   10.0285    5.3400   -8.2467 H   0  0  0  0  0  0  0  0  0  0  0  0
    8.2870    5.0859   -8.1287 H   0  0  0  0  0  0  0  0  0  0  0  0
   11.6677   10.5625   -3.4196 H   0  0  0  0  0  0  0  0  0  0  0  0
    7.8730    7.2564   -8.1174 H   0  0  0  0  0  0  0  0  0  0  0  0
  2  1  2  0
  3  2  1  0
  4  3  2  0
  5  4  1  0
  6  5  1  0
  7  6  1  0
  8  7  1  0
  9  8  1  0
 10  9  1  0
 11  7  1  0
 11 10  1  0
 12  4  1  0
 13  1  1  0
 13 12  2  0
 14  1  1  0
 15  2  1  0
 16  3  1  0
 17  5  1  0
 18  5  1  0
 19  6  1  0
 20  6  1  0
 21  8  1  0
 22  8  1  0
 23  9  1  0
 24  9  1  0
 25 10  1  0
 26 10  1  0
 27 11  1  0
 28 11  1  0
 29 13  1  0
 30  7  1  0
M  CHG  1   7   1
M  END
>  <b_m_subgroup_collapsed>  (1190) 
0

>  <r_i_docking_score>  (1190) 
-6.4926035492780496

>  <s_m_subgroup_title>  (1190) 
glide-dock_SP_D22_pv

>  <s_m_subgroupid>  (1190) 
glide-dock_SP_D22_pv

>  <Molecule ChEMBL ID>  (1190) 
CHEMBL270595

>  <Standard Type>  (1190) 
Ki

>  <Standard Value>  (1190) 
10000.0

>  <label>  (1190) 
0

$$$$
CHEMBL1813595
     RDKit          3D

 63 66  0  0  1  0  0  0  0  0999 V2000
   12.4856    6.5742   -2.4167 O   0  0  0  0  0  0  0  0  0  0  0  0
   12.0860    7.2548   -3.3566 C   0  0  0  0  0  0  0  0  0  0  0  0
   12.3325    8.6921   -3.4823 C   0  0  0  0  0  0  0  0  0  0  0  0
   11.9615    9.3757   -4.5846 C   0  0  0  0  0  0  0  0  0  0  0  0
   11.2861    8.7363   -5.7013 C   0  0  0  0  0  0  0  0  0  0  0  0
   10.9925    9.3933   -6.9125 C   0  0  0  0  0  0  0  0  0  0  0  0
   10.3103    8.7145   -7.9465 C   0  0  0  0  0  0  0  0  0  0  0  0
    9.8778    7.3829   -7.7442 C   0  0  0  0  0  0  0  0  0  0  0  0
    9.1502    6.6197   -8.6338 O   0  0  0  0  0  0  0  0  0  0  0  0
    9.0036    7.0321   -9.9820 C   0  0  0  0  0  0  0  0  0  0  0  0
   10.1613    6.4877  -10.8180 C   0  0  0  0  0  0  0  0  0  0  0  0
   10.1387    7.0079  -12.2588 C   0  0  0  0  0  0  0  0  0  0  0  0
   11.0954    6.2468  -13.2019 C   0  0  0  0  0  0  0  0  0  0  0  0
   10.6230    4.8801  -13.5601 N   0  0  0  0  0  0  0  0  0  0  0  0
   11.7270    4.0704  -14.1395 C   0  0  0  0  0  0  0  0  0  0  0  0
   11.2944    2.6212  -14.4221 C   0  0  0  0  0  0  0  0  0  0  0  0
   10.0549    2.6030  -15.1704 N   0  0  0  0  0  0  0  0  0  0  0  0
    9.9784    1.8711  -16.3667 C   0  0  0  0  0  0  0  0  0  0  0  0
   10.2607    0.4869  -16.3358 C   0  0  0  0  0  0  0  0  0  0  0  0
   10.1958   -0.2819  -17.5103 C   0  0  0  0  0  0  0  0  0  0  0  0
    9.8550    0.3322  -18.7290 C   0  0  0  0  0  0  0  0  0  0  0  0
    9.5858    1.7125  -18.7717 C   0  0  0  0  0  0  0  0  0  0  0  0
    9.6510    2.5010  -17.5957 C   0  0  0  0  0  0  0  0  0  0  0  0
    9.4348    3.8669  -17.5843 O   0  0  0  0  0  0  0  0  0  0  0  0
    9.3692    4.5569  -18.8252 C   0  0  0  0  0  0  0  0  0  0  0  0
    9.3066    6.0620  -18.5473 C   0  0  0  0  0  0  0  0  0  0  0  0
    9.2899    6.7447  -19.6908 F   0  0  0  0  0  0  0  0  0  0  0  0
    8.9445    3.4115  -14.7017 C   0  0  0  0  0  0  0  0  0  0  0  0
    9.4085    4.8576  -14.4296 C   0  0  0  0  0  0  0  0  0  0  0  0
   10.1908    6.7582   -6.5281 C   0  0  0  0  0  0  0  0  0  0  0  0
   10.9412    7.3921   -5.5315 C   0  0  0  0  0  0  0  0  0  0  0  0
   11.3640    6.7038   -4.3608 N   0  0  0  0  0  0  0  0  0  0  0  0
   12.8027    9.2217   -2.6650 H   0  0  0  0  0  0  0  0  0  0  0  0
   12.0862   10.4402   -4.6543 H   0  0  0  0  0  0  0  0  0  0  0  0
   11.2875   10.4212   -7.0466 H   0  0  0  0  0  0  0  0  0  0  0  0
   10.1044    9.2507   -8.8592 H   0  0  0  0  0  0  0  0  0  0  0  0
    8.8852    8.1084  -10.1012 H   0  0  0  0  0  0  0  0  0  0  0  0
    8.0873    6.5723  -10.3540 H   0  0  0  0  0  0  0  0  0  0  0  0
   10.0862    5.4011  -10.8065 H   0  0  0  0  0  0  0  0  0  0  0  0
   11.1118    6.7469  -10.3488 H   0  0  0  0  0  0  0  0  0  0  0  0
   10.4302    8.0583  -12.2389 H   0  0  0  0  0  0  0  0  0  0  0  0
    9.1227    7.0105  -12.6462 H   0  0  0  0  0  0  0  0  0  0  0  0
   12.0666    6.1739  -12.7103 H   0  0  0  0  0  0  0  0  0  0  0  0
   11.2852    6.8166  -14.1149 H   0  0  0  0  0  0  0  0  0  0  0  0
   12.5852    4.0736  -13.4677 H   0  0  0  0  0  0  0  0  0  0  0  0
   12.0622    4.5411  -15.0661 H   0  0  0  0  0  0  0  0  0  0  0  0
   11.1564    2.0661  -13.4948 H   0  0  0  0  0  0  0  0  0  0  0  0
   12.0853    2.1274  -14.9932 H   0  0  0  0  0  0  0  0  0  0  0  0
   10.5177    0.0068  -15.4028 H   0  0  0  0  0  0  0  0  0  0  0  0
   10.4053   -1.3427  -17.4766 H   0  0  0  0  0  0  0  0  0  0  0  0
    9.8022   -0.2571  -19.6325 H   0  0  0  0  0  0  0  0  0  0  0  0
    9.3366    2.1452  -19.7304 H   0  0  0  0  0  0  0  0  0  0  0  0
   10.2522    4.3359  -19.4279 H   0  0  0  0  0  0  0  0  0  0  0  0
    8.4861    4.2492  -19.3863 H   0  0  0  0  0  0  0  0  0  0  0  0
    8.4071    6.3309  -17.9961 H   0  0  0  0  0  0  0  0  0  0  0  0
   10.1715    6.4030  -17.9760 H   0  0  0  0  0  0  0  0  0  0  0  0
    8.1226    3.3724  -15.4180 H   0  0  0  0  0  0  0  0  0  0  0  0
    8.5662    2.9657  -13.7808 H   0  0  0  0  0  0  0  0  0  0  0  0
    8.5844    5.3996  -13.9686 H   0  0  0  0  0  0  0  0  0  0  0  0
    9.6287    5.3668  -15.3691 H   0  0  0  0  0  0  0  0  0  0  0  0
    9.8305    5.7719   -6.3673 H   0  0  0  0  0  0  0  0  0  0  0  0
   11.1420    5.7208   -4.2901 H   0  0  0  0  0  0  0  0  0  0  0  0
   10.3613    4.4241  -12.6982 H   0  0  0  0  0  0  0  0  0  0  0  0
  2  1  2  0
  3  2  1  0
  4  3  2  0
  5  4  1  0
  6  5  2  0
  7  6  1  0
  8  7  2  0
  9  8  1  0
 10  9  1  0
 11 10  1  0
 12 11  1  0
 13 12  1  0
 14 13  1  0
 15 14  1  0
 16 15  1  0
 17 16  1  0
 18 17  1  0
 19 18  2  0
 20 19  1  0
 21 20  2  0
 22 21  1  0
 23 18  1  0
 23 22  2  0
 24 23  1  0
 25 24  1  0
 26 25  1  0
 27 26  1  0
 28 17  1  0
 29 14  1  0
 29 28  1  0
 30  8  1  0
 31  5  1  0
 31 30  2  0
 32  2  1  0
 32 31  1  0
 33  3  1  0
 34  4  1  0
 35  6  1  0
 36  7  1  0
 37 10  1  0
 38 10  1  0
 39 11  1  0
 40 11  1  0
 41 12  1  0
 42 12  1  0
 43 13  1  0
 44 13  1  0
 45 15  1  0
 46 15  1  0
 47 16  1  0
 48 16  1  0
 49 19  1  0
 50 20  1  0
 51 21  1  0
 52 22  1  0
 53 25  1  0
 54 25  1  0
 55 26  1  0
 56 26  1  0
 57 28  1  0
 58 28  1  0
 59 29  1  0
 60 29  1  0
 61 30  1  0
 62 32  1  0
 63 14  1  0
M  CHG  1  14   1
M  END
>  <b_m_subgroup_collapsed>  (1191) 
0

>  <r_i_docking_score>  (1191) 
-6.4851486963671698

>  <s_m_subgroup_title>  (1191) 
glide-dock_SP_D22_pv

>  <s_m_subgroupid>  (1191) 
glide-dock_SP_D22_pv

>  <Molecule ChEMBL ID>  (1191) 
CHEMBL1813595

>  <Standard Type>  (1191) 
Ki

>  <Standard Value>  (1191) 
0.07

>  <label>  (1191) 
1

$$$$
CHEMBL2030623
     RDKit          3D

 32 34  0  0  1  0  0  0  0  0999 V2000
   12.7284    6.1727   -2.6479 F   0  0  0  0  0  0  0  0  0  0  0  0
   12.2542    7.2770   -3.2641 C   0  0  0  0  0  0  0  0  0  0  0  0
   12.4650    8.5393   -2.6815 C   0  0  0  0  0  0  0  0  0  0  0  0
   11.9558    9.6912   -3.3043 C   0  0  0  0  0  0  0  0  0  0  0  0
   11.2373    9.5882   -4.5117 C   0  0  0  0  0  0  0  0  0  0  0  0
   10.9869    8.3191   -5.0786 C   0  0  0  0  0  0  0  0  0  0  0  0
   10.0370    8.1938   -6.2568 C   0  0  0  0  0  0  0  0  0  0  0  0
   10.7029    8.4593   -7.5500 N   0  0  1  0  0  0  0  0  0  0  0  0
   11.5155    7.3808   -8.1176 C   0  0  2  0  0  0  0  0  0  0  0  0
   12.0810    8.0874   -9.3640 C   0  0  0  0  0  0  0  0  0  0  0  0
   10.8833    8.9530   -9.8044 C   0  0  0  0  0  0  0  0  0  0  0  0
    9.8340    8.6229   -8.7239 C   0  0  1  0  0  0  0  0  0  0  0  0
    9.2885    7.2082   -8.9818 C   0  0  0  0  0  0  0  0  0  0  0  0
   10.4858    6.3329   -8.5883 C   0  0  0  0  0  0  0  0  0  0  0  0
   11.5285    7.1635   -4.4689 C   0  0  0  0  0  0  0  0  0  0  0  0
   13.0061    8.6253   -1.7504 H   0  0  0  0  0  0  0  0  0  0  0  0
   12.0865   10.6500   -2.8296 H   0  0  0  0  0  0  0  0  0  0  0  0
   10.8223   10.4805   -4.9570 H   0  0  0  0  0  0  0  0  0  0  0  0
    9.5410    7.2235   -6.2290 H   0  0  0  0  0  0  0  0  0  0  0  0
    9.2441    8.9340   -6.1477 H   0  0  0  0  0  0  0  0  0  0  0  0
   12.2779    6.9850   -7.4471 H   0  0  0  0  0  0  0  0  0  0  0  0
   12.4028    7.3900  -10.1375 H   0  0  0  0  0  0  0  0  0  0  0  0
   12.9358    8.7113   -9.1017 H   0  0  0  0  0  0  0  0  0  0  0  0
   10.5352    8.7125  -10.8107 H   0  0  0  0  0  0  0  0  0  0  0  0
   11.1556   10.0085   -9.7856 H   0  0  0  0  0  0  0  0  0  0  0  0
    9.0534    9.3765   -8.6217 H   0  0  0  0  0  0  0  0  0  0  0  0
    8.4349    6.9903   -8.3417 H   0  0  0  0  0  0  0  0  0  0  0  0
    8.9711    7.0596  -10.0152 H   0  0  0  0  0  0  0  0  0  0  0  0
   10.8493    5.7547   -9.4349 H   0  0  0  0  0  0  0  0  0  0  0  0
   10.2193    5.6312   -7.7974 H   0  0  0  0  0  0  0  0  0  0  0  0
   11.3399    6.1805   -4.8802 H   0  0  0  0  0  0  0  0  0  0  0  0
   11.2720    9.2858   -7.4428 H   0  0  0  0  0  0  0  0  0  0  0  0
  2  1  1  0
  3  2  1  0
  4  3  2  0
  5  4  1  0
  6  5  2  0
  7  6  1  0
  8  7  1  0
  9  8  1  0
 10  9  1  0
 11 10  1  0
 12  8  1  0
 12 11  1  0
 13 12  1  0
 14  9  1  0
 14 13  1  0
 15  2  2  0
 15  6  1  0
 16  3  1  0
 17  4  1  0
 18  5  1  0
 19  7  1  0
 20  7  1  0
  9 21  1  1
 22 10  1  0
 23 10  1  0
 24 11  1  0
 25 11  1  0
 12 26  1  1
 27 13  1  0
 28 13  1  0
 29 14  1  0
 30 14  1  0
 31 15  1  0
  8 32  1  1
M  CHG  1   8   1
M  END
>  <b_m_subgroup_collapsed>  (1192) 
0

>  <r_i_docking_score>  (1192) 
-6.4827388097491303

>  <s_m_subgroup_title>  (1192) 
glide-dock_SP_D22_pv

>  <s_m_subgroupid>  (1192) 
glide-dock_SP_D22_pv

>  <Molecule ChEMBL ID>  (1192) 
CHEMBL2030623

>  <Standard Type>  (1192) 
Ki

>  <Standard Value>  (1192) 
10000.0

>  <label>  (1192) 
0

$$$$
CHEMBL2030628
     RDKit          3D

 35 37  0  0  1  0  0  0  0  0999 V2000
   11.6905    6.9337   -4.0169 F   0  0  0  0  0  0  0  0  0  0  0  0
   11.2854    7.6025   -5.1218 C   0  0  0  0  0  0  0  0  0  0  0  0
   11.6931    8.9333   -5.3299 C   0  0  0  0  0  0  0  0  0  0  0  0
   11.2828    9.6164   -6.4874 C   0  0  0  0  0  0  0  0  0  0  0  0
   10.4471    8.9750   -7.4224 C   0  0  0  0  0  0  0  0  0  0  0  0
   10.0007    7.6578   -7.2075 C   0  0  0  0  0  0  0  0  0  0  0  0
    9.0092    7.0285   -8.1770 C   0  0  0  0  0  0  0  0  0  0  0  0
    9.5390    6.9423   -9.6205 C   0  0  0  0  0  0  0  0  0  0  0  0
    8.4862    6.5717  -10.6069 N   0  0  2  0  0  0  0  0  0  0  0  0
    8.1275    5.1572  -10.7802 C   0  0  1  0  0  0  0  0  0  0  0  0
    7.0043    5.2616  -11.8328 C   0  0  0  0  0  0  0  0  0  0  0  0
    7.5103    6.4147  -12.7192 C   0  0  0  0  0  0  0  0  0  0  0  0
    8.8185    6.8123  -12.0177 C   0  0  2  0  0  0  0  0  0  0  0  0
    9.8665    5.7267  -12.3315 C   0  0  0  0  0  0  0  0  0  0  0  0
    9.3588    4.5481  -11.4728 C   0  0  0  0  0  0  0  0  0  0  0  0
   10.4391    6.9726   -6.0571 C   0  0  0  0  0  0  0  0  0  0  0  0
   12.3326    9.4237   -4.6117 H   0  0  0  0  0  0  0  0  0  0  0  0
   11.6044   10.6340   -6.6518 H   0  0  0  0  0  0  0  0  0  0  0  0
   10.1228    9.5141   -8.2979 H   0  0  0  0  0  0  0  0  0  0  0  0
    8.7059    6.0413   -7.8241 H   0  0  0  0  0  0  0  0  0  0  0  0
    8.1174    7.6511   -8.1451 H   0  0  0  0  0  0  0  0  0  0  0  0
    9.9055    7.9238   -9.9197 H   0  0  0  0  0  0  0  0  0  0  0  0
   10.3971    6.2716   -9.6600 H   0  0  0  0  0  0  0  0  0  0  0  0
    7.8310    4.6391   -9.8692 H   0  0  0  0  0  0  0  0  0  0  0  0
    6.8543    4.3334  -12.3868 H   0  0  0  0  0  0  0  0  0  0  0  0
    6.0500    5.5360  -11.3838 H   0  0  0  0  0  0  0  0  0  0  0  0
    6.7968    7.2404  -12.7262 H   0  0  0  0  0  0  0  0  0  0  0  0
    7.6874    6.0913  -13.7449 H   0  0  0  0  0  0  0  0  0  0  0  0
    9.1411    7.8286  -12.2464 H   0  0  0  0  0  0  0  0  0  0  0  0
   10.8589    6.0566  -12.0264 H   0  0  0  0  0  0  0  0  0  0  0  0
    9.9139    5.4836  -13.3934 H   0  0  0  0  0  0  0  0  0  0  0  0
   10.0863    4.2296  -10.7318 H   0  0  0  0  0  0  0  0  0  0  0  0
    9.1106    3.6762  -12.0776 H   0  0  0  0  0  0  0  0  0  0  0  0
   10.1075    5.9658   -5.8737 H   0  0  0  0  0  0  0  0  0  0  0  0
    7.6223    7.1027  -10.3877 H   0  0  0  0  0  0  0  0  0  0  0  0
  2  1  1  0
  3  2  1  0
  4  3  2  0
  5  4  1  0
  6  5  2  0
  7  6  1  0
  8  7  1  0
  9  8  1  0
 10  9  1  0
 11 10  1  0
 12 11  1  0
 13  9  1  0
 13 12  1  0
 14 13  1  0
 15 10  1  0
 15 14  1  0
 16  2  2  0
 16  6  1  0
 17  3  1  0
 18  4  1  0
 19  5  1  0
 20  7  1  0
 21  7  1  0
 22  8  1  0
 23  8  1  0
 10 24  1  1
 25 11  1  0
 26 11  1  0
 27 12  1  0
 28 12  1  0
 13 29  1  1
 30 14  1  0
 31 14  1  0
 32 15  1  0
 33 15  1  0
 34 16  1  0
  9 35  1  1
M  CHG  1   9   1
M  END
>  <b_m_subgroup_collapsed>  (1193) 
0

>  <r_i_docking_score>  (1193) 
-6.4781295661762401

>  <s_m_subgroup_title>  (1193) 
glide-dock_SP_D22_pv

>  <s_m_subgroupid>  (1193) 
glide-dock_SP_D22_pv

>  <Molecule ChEMBL ID>  (1193) 
CHEMBL2030628

>  <Standard Type>  (1193) 
Ki

>  <Standard Value>  (1193) 
10000.0

>  <label>  (1193) 
0

$$$$
CHEMBL394473
     RDKit          3D

 48 50  0  0  1  0  0  0  0  0999 V2000
   12.4897    6.1988   -2.2297 C   0  0  0  0  0  0  0  0  0  0  0  0
   12.1429    6.9701   -3.1077 C   0  0  0  0  0  0  0  0  0  0  0  0
   11.7171    7.8428   -4.1808 C   0  0  0  0  0  0  0  0  0  0  0  0
   11.7293    9.2419   -4.0148 C   0  0  0  0  0  0  0  0  0  0  0  0
   11.2880   10.0700   -5.0634 C   0  0  0  0  0  0  0  0  0  0  0  0
   10.8452    9.5055   -6.2714 C   0  0  0  0  0  0  0  0  0  0  0  0
   10.8164    8.1025   -6.4390 C   0  0  0  0  0  0  0  0  0  0  0  0
   10.2317    7.4709   -7.6691 C   0  0  0  0  0  0  0  0  0  0  0  0
    9.8119    6.3147   -7.6404 O   0  0  0  0  0  0  0  0  0  0  0  0
   10.2095    8.2369   -8.7712 N   0  0  0  0  0  0  0  0  0  0  0  0
    9.4652    7.8772   -9.9692 C   0  0  0  0  0  0  0  0  0  0  0  0
   10.1764    6.7931  -10.7912 C   0  0  0  0  0  0  0  0  0  0  0  0
    9.2879    6.3009  -11.8371 N   0  0  0  0  0  0  0  0  0  0  0  0
    8.4388    5.2227  -11.2999 C   0  0  0  0  0  0  0  0  0  0  0  0
    7.4779    4.6737  -12.3756 C   0  0  0  0  0  0  0  0  0  0  0  0
    8.2399    4.2873  -13.5566 N   0  0  0  0  0  0  0  0  0  0  0  0
    8.1399    3.0059  -14.1301 C   0  0  0  0  0  0  0  0  0  0  0  0
    6.8584    2.4206  -14.2499 C   0  0  0  0  0  0  0  0  0  0  0  0
    6.6946    1.1518  -14.8341 C   0  0  0  0  0  0  0  0  0  0  0  0
    7.8104    0.4616  -15.3314 C   0  0  0  0  0  0  0  0  0  0  0  0
    9.0928    1.0222  -15.2097 C   0  0  0  0  0  0  0  0  0  0  0  0
   10.4509    0.1673  -15.8457 Cl  0  0  0  0  0  0  0  0  0  0  0  0
    9.2693    2.2710  -14.5807 C   0  0  0  0  0  0  0  0  0  0  0  0
   10.8889    2.8242  -14.3197 Cl  0  0  0  0  0  0  0  0  0  0  0  0
    9.1083    5.3300  -14.0742 C   0  0  0  0  0  0  0  0  0  0  0  0
   10.0729    5.7852  -12.9619 C   0  0  0  0  0  0  0  0  0  0  0  0
   11.2617    7.2757   -5.3858 C   0  0  0  0  0  0  0  0  0  0  0  0
   12.7996    5.5269   -1.4611 H   0  0  0  0  0  0  0  0  0  0  0  0
   12.0638    9.6816   -3.0874 H   0  0  0  0  0  0  0  0  0  0  0  0
   11.2836   11.1414   -4.9447 H   0  0  0  0  0  0  0  0  0  0  0  0
   10.4925   10.1682   -7.0459 H   0  0  0  0  0  0  0  0  0  0  0  0
   10.6114    9.1587   -8.7324 H   0  0  0  0  0  0  0  0  0  0  0  0
    8.4862    7.5339   -9.6501 H   0  0  0  0  0  0  0  0  0  0  0  0
    9.3043    8.7701  -10.5731 H   0  0  0  0  0  0  0  0  0  0  0  0
   11.0812    7.2295  -11.2226 H   0  0  0  0  0  0  0  0  0  0  0  0
   10.4913    5.9637  -10.1576 H   0  0  0  0  0  0  0  0  0  0  0  0
    9.0655    4.4113  -10.9266 H   0  0  0  0  0  0  0  0  0  0  0  0
    7.8528    5.5829  -10.4524 H   0  0  0  0  0  0  0  0  0  0  0  0
    6.9208    3.8310  -11.9665 H   0  0  0  0  0  0  0  0  0  0  0  0
    6.7507    5.4361  -12.6538 H   0  0  0  0  0  0  0  0  0  0  0  0
    5.9836    2.9532  -13.9071 H   0  0  0  0  0  0  0  0  0  0  0  0
    5.7076    0.7201  -14.9247 H   0  0  0  0  0  0  0  0  0  0  0  0
    7.6831   -0.5040  -15.8024 H   0  0  0  0  0  0  0  0  0  0  0  0
    9.6425    5.0192  -14.9704 H   0  0  0  0  0  0  0  0  0  0  0  0
    8.4833    6.1719  -14.3662 H   0  0  0  0  0  0  0  0  0  0  0  0
   10.7277    6.5717  -13.3422 H   0  0  0  0  0  0  0  0  0  0  0  0
   10.7140    4.9663  -12.6432 H   0  0  0  0  0  0  0  0  0  0  0  0
   11.2274    6.1997   -5.4898 H   0  0  0  0  0  0  0  0  0  0  0  0
  2  1  3  0
  3  2  1  0
  4  3  1  0
  5  4  2  0
  6  5  1  0
  7  6  2  0
  8  7  1  0
  9  8  2  0
 10  8  1  0
 11 10  1  0
 12 11  1  0
 13 12  1  0
 14 13  1  0
 15 14  1  0
 16 15  1  0
 17 16  1  0
 18 17  2  0
 19 18  1  0
 20 19  2  0
 21 20  1  0
 22 21  1  0
 23 17  1  0
 23 21  2  0
 24 23  1  0
 25 16  1  0
 26 13  1  0
 26 25  1  0
 27  3  2  0
 27  7  1  0
 28  1  1  0
 29  4  1  0
 30  5  1  0
 31  6  1  0
 32 10  1  0
 33 11  1  0
 34 11  1  0
 35 12  1  0
 36 12  1  0
 37 14  1  0
 38 14  1  0
 39 15  1  0
 40 15  1  0
 41 18  1  0
 42 19  1  0
 43 20  1  0
 44 25  1  0
 45 25  1  0
 46 26  1  0
 47 26  1  0
 48 27  1  0
M  END
>  <b_m_subgroup_collapsed>  (1194) 
0

>  <r_i_docking_score>  (1194) 
-6.4762029203973901

>  <s_m_subgroup_title>  (1194) 
glide-dock_SP_D22_pv

>  <s_m_subgroupid>  (1194) 
glide-dock_SP_D22_pv

>  <Molecule ChEMBL ID>  (1194) 
CHEMBL394473

>  <Standard Type>  (1194) 
Ki

>  <Standard Value>  (1194) 
83.0

>  <label>  (1194) 
1

$$$$
CHEMBL457899
     RDKit          3D

 69 72  0  0  1  0  0  0  0  0999 V2000
    6.8387   -0.1495  -15.9239 C   0  0  0  0  0  0  0  0  0  0  0  0
    6.9343   -0.1289  -17.3410 O   0  0  0  0  0  0  0  0  0  0  0  0
    7.6285    0.9052  -17.9318 C   0  0  0  0  0  0  0  0  0  0  0  0
    7.7444    0.8760  -19.3370 C   0  0  0  0  0  0  0  0  0  0  0  0
    8.4403    1.8890  -20.0238 C   0  0  0  0  0  0  0  0  0  0  0  0
    9.0193    2.9543  -19.3125 C   0  0  0  0  0  0  0  0  0  0  0  0
    8.9060    3.0048  -17.9091 C   0  0  0  0  0  0  0  0  0  0  0  0
    9.5080    4.1650  -17.1381 C   0  0  0  0  0  0  0  0  0  0  0  0
   10.9387    3.8872  -16.6669 C   0  0  0  0  0  0  0  0  0  0  0  0
   11.4811    5.0189  -15.8110 C   0  0  0  0  0  0  0  0  0  0  0  0
   12.3682    5.9540  -16.3843 C   0  0  0  0  0  0  0  0  0  0  0  0
   12.8904    7.0049  -15.6100 C   0  0  0  0  0  0  0  0  0  0  0  0
   12.5517    7.1044  -14.2501 C   0  0  0  0  0  0  0  0  0  0  0  0
   11.6837    6.1616  -13.6687 C   0  0  0  0  0  0  0  0  0  0  0  0
   11.0995    5.1346  -14.4521 C   0  0  0  0  0  0  0  0  0  0  0  0
   10.1577    4.2381  -13.9802 O   0  0  0  0  0  0  0  0  0  0  0  0
    9.7344    4.2776  -12.6193 C   0  0  0  0  0  0  0  0  0  0  0  0
    8.8465    5.4823  -12.2580 C   0  0  0  0  0  0  0  0  0  0  0  0
    8.4676    5.4982  -10.7660 C   0  0  0  0  0  0  0  0  0  0  0  0
    9.5353    5.8937   -9.8376 N   0  0  0  0  0  0  0  0  0  0  0  0
    9.7958    7.3427   -9.8998 C   0  0  0  0  0  0  0  0  0  0  0  0
   10.8258    7.7964   -8.8299 C   0  0  0  0  0  0  0  0  0  0  0  0
   10.3981    7.3870   -7.4916 N   0  0  0  0  0  0  0  0  0  0  0  0
   10.8760    8.0492   -6.3368 C   0  0  0  0  0  0  0  0  0  0  0  0
   10.8934    9.4606   -6.2931 C   0  0  0  0  0  0  0  0  0  0  0  0
   11.2878   10.1518   -5.1330 C   0  0  0  0  0  0  0  0  0  0  0  0
   11.6864    9.4334   -3.9897 C   0  0  0  0  0  0  0  0  0  0  0  0
   11.6859    8.0222   -4.0030 C   0  0  0  0  0  0  0  0  0  0  0  0
   12.0033    7.2322   -2.7400 C   0  0  0  0  0  0  0  0  0  0  0  0
   12.8861    6.2969   -3.0338 F   0  0  0  0  0  0  0  0  0  0  0  0
   12.5017    8.0278   -1.7958 F   0  0  0  0  0  0  0  0  0  0  0  0
   10.9316    6.6122   -2.2470 F   0  0  0  0  0  0  0  0  0  0  0  0
   11.2860    7.3421   -5.1756 C   0  0  0  0  0  0  0  0  0  0  0  0
   10.0479    5.9783   -7.4154 C   0  0  0  0  0  0  0  0  0  0  0  0
    9.0188    5.6112   -8.4943 C   0  0  0  0  0  0  0  0  0  0  0  0
    8.2191    1.9801  -17.2207 C   0  0  0  0  0  0  0  0  0  0  0  0
    6.2616   -1.0217  -15.6178 H   0  0  0  0  0  0  0  0  0  0  0  0
    7.8229   -0.2212  -15.4578 H   0  0  0  0  0  0  0  0  0  0  0  0
    6.3212    0.7333  -15.5471 H   0  0  0  0  0  0  0  0  0  0  0  0
    7.3024    0.0639  -19.8957 H   0  0  0  0  0  0  0  0  0  0  0  0
    8.5255    1.8493  -21.0995 H   0  0  0  0  0  0  0  0  0  0  0  0
    9.5432    3.7346  -19.8465 H   0  0  0  0  0  0  0  0  0  0  0  0
    8.8861    4.3730  -16.2702 H   0  0  0  0  0  0  0  0  0  0  0  0
    9.4815    5.0638  -17.7545 H   0  0  0  0  0  0  0  0  0  0  0  0
   11.5897    3.7300  -17.5272 H   0  0  0  0  0  0  0  0  0  0  0  0
   10.9707    2.9625  -16.0886 H   0  0  0  0  0  0  0  0  0  0  0  0
   12.6498    5.8719  -17.4238 H   0  0  0  0  0  0  0  0  0  0  0  0
   13.5653    7.7218  -16.0542 H   0  0  0  0  0  0  0  0  0  0  0  0
   12.9711    7.8961  -13.6460 H   0  0  0  0  0  0  0  0  0  0  0  0
   11.4689    6.2607  -12.6189 H   0  0  0  0  0  0  0  0  0  0  0  0
    9.1505    3.3727  -12.4572 H   0  0  0  0  0  0  0  0  0  0  0  0
   10.5730    4.1782  -11.9434 H   0  0  0  0  0  0  0  0  0  0  0  0
    9.2738    6.4375  -12.5523 H   0  0  0  0  0  0  0  0  0  0  0  0
    7.9276    5.4011  -12.8383 H   0  0  0  0  0  0  0  0  0  0  0  0
    7.6326    6.1723  -10.6313 H   0  0  0  0  0  0  0  0  0  0  0  0
    8.0966    4.5064  -10.5047 H   0  0  0  0  0  0  0  0  0  0  0  0
   10.1689    7.6089  -10.8885 H   0  0  0  0  0  0  0  0  0  0  0  0
    8.8660    7.8963   -9.7586 H   0  0  0  0  0  0  0  0  0  0  0  0
   11.8031    7.3604   -9.0394 H   0  0  0  0  0  0  0  0  0  0  0  0
   10.9536    8.8757   -8.8962 H   0  0  0  0  0  0  0  0  0  0  0  0
   10.5639   10.0331   -7.1407 H   0  0  0  0  0  0  0  0  0  0  0  0
   11.2812   11.2319   -5.1182 H   0  0  0  0  0  0  0  0  0  0  0  0
   11.9662    9.9744   -3.0966 H   0  0  0  0  0  0  0  0  0  0  0  0
   11.2817    6.2623   -5.1508 H   0  0  0  0  0  0  0  0  0  0  0  0
   10.9499    5.3733   -7.5133 H   0  0  0  0  0  0  0  0  0  0  0  0
    9.5991    5.7725   -6.4475 H   0  0  0  0  0  0  0  0  0  0  0  0
    8.0920    6.1609   -8.3196 H   0  0  0  0  0  0  0  0  0  0  0  0
    8.7774    4.5506   -8.4052 H   0  0  0  0  0  0  0  0  0  0  0  0
    8.1532    2.0430  -16.1451 H   0  0  0  0  0  0  0  0  0  0  0  0
  2  1  1  0
  3  2  1  0
  4  3  1  0
  5  4  2  0
  6  5  1  0
  7  6  2  0
  8  7  1  0
  9  8  1  0
 10  9  1  0
 11 10  2  0
 12 11  1  0
 13 12  2  0
 14 13  1  0
 15 10  1  0
 15 14  2  0
 16 15  1  0
 17 16  1  0
 18 17  1  0
 19 18  1  0
 20 19  1  0
 21 20  1  0
 22 21  1  0
 23 22  1  0
 24 23  1  0
 25 24  1  0
 26 25  2  0
 27 26  1  0
 28 27  2  0
 29 28  1  0
 30 29  1  0
 31 29  1  0
 32 29  1  0
 33 24  2  0
 33 28  1  0
 34 23  1  0
 35 20  1  0
 35 34  1  0
 36  3  2  0
 36  7  1  0
 37  1  1  0
 38  1  1  0
 39  1  1  0
 40  4  1  0
 41  5  1  0
 42  6  1  0
 43  8  1  0
 44  8  1  0
 45  9  1  0
 46  9  1  0
 47 11  1  0
 48 12  1  0
 49 13  1  0
 50 14  1  0
 51 17  1  0
 52 17  1  0
 53 18  1  0
 54 18  1  0
 55 19  1  0
 56 19  1  0
 57 21  1  0
 58 21  1  0
 59 22  1  0
 60 22  1  0
 61 25  1  0
 62 26  1  0
 63 27  1  0
 64 33  1  0
 65 34  1  0
 66 34  1  0
 67 35  1  0
 68 35  1  0
 69 36  1  0
M  END
>  <b_m_subgroup_collapsed>  (1195) 
0

>  <r_i_docking_score>  (1195) 
-6.4736782383646299

>  <s_m_subgroup_title>  (1195) 
glide-dock_SP_D22_pv

>  <s_m_subgroupid>  (1195) 
glide-dock_SP_D22_pv

>  <Molecule ChEMBL ID>  (1195) 
CHEMBL457899

>  <Standard Type>  (1195) 
Ki

>  <Standard Value>  (1195) 
1412000.0

>  <label>  (1195) 
0

$$$$
CHEMBL603542
     RDKit          3D

 56 59  0  0  1  0  0  0  0  0999 V2000
   13.2207    2.2527  -18.3054 C   0  0  0  0  0  0  0  0  0  0  0  0
   12.0709    1.6802  -17.4677 C   0  0  0  0  0  0  0  0  0  0  0  0
   11.0354    2.7447  -17.0625 C   0  0  0  0  0  0  0  0  0  0  0  0
   10.0250    2.2112  -16.1005 N   0  0  2  0  0  0  0  0  0  0  0  0
    9.0130    1.3938  -16.8016 C   0  0  0  0  0  0  0  0  0  0  0  0
    8.1680    0.6579  -15.7788 C   0  0  0  0  0  0  0  0  0  0  0  0
    7.4479    1.5874  -14.8256 C   0  0  0  0  0  0  0  0  0  0  0  0
    6.2417    1.2738  -14.1836 C   0  0  0  0  0  0  0  0  0  0  0  0
    5.6852    2.1762  -13.2697 C   0  0  0  0  0  0  0  0  0  0  0  0
    6.3548    3.3725  -12.9648 C   0  0  0  0  0  0  0  0  0  0  0  0
    7.5937    3.7509  -13.5616 C   0  0  0  0  0  0  0  0  0  0  0  0
    8.0877    2.8227  -14.5205 C   0  0  0  0  0  0  0  0  0  0  0  0
    9.3891    3.2502  -15.2342 C   0  0  1  0  0  0  0  0  0  0  0  0
   10.3817    3.8261  -14.2014 C   0  0  0  0  0  0  0  0  0  0  0  0
    9.7767    4.9697  -13.3988 C   0  0  0  0  0  0  0  0  0  0  0  0
   10.5867    6.0478  -12.9403 C   0  0  0  0  0  0  0  0  0  0  0  0
   12.0718    6.1730  -13.2527 C   0  0  0  0  0  0  0  0  0  0  0  0
   12.3185    7.0690  -14.4555 C   0  0  0  0  0  0  0  0  0  0  0  0
   13.0604    6.8219  -15.5534 C   0  0  0  0  0  0  0  0  0  0  0  0
   13.1877    7.8597  -16.6523 C   0  0  0  0  0  0  0  0  0  0  0  0
   13.8260    5.5390  -15.8248 C   0  0  0  0  0  0  0  0  0  0  0  0
   10.0032    7.0843  -12.1935 C   0  0  0  0  0  0  0  0  0  0  0  0
    8.6220    7.1007  -11.9755 C   0  0  0  0  0  0  0  0  0  0  0  0
    7.8080    6.0629  -12.4609 C   0  0  0  0  0  0  0  0  0  0  0  0
    6.4683    6.2010  -12.2470 O   0  0  0  0  0  0  0  0  0  0  0  0
    8.3772    4.9479  -13.1390 C   0  0  0  0  0  0  0  0  0  0  0  0
   13.8976    1.4615  -18.6323 H   0  0  0  0  0  0  0  0  0  0  0  0
   13.8089    2.9696  -17.7317 H   0  0  0  0  0  0  0  0  0  0  0  0
   12.8501    2.7578  -19.1982 H   0  0  0  0  0  0  0  0  0  0  0  0
   11.5990    0.8795  -18.0359 H   0  0  0  0  0  0  0  0  0  0  0  0
   12.4851    1.2151  -16.5745 H   0  0  0  0  0  0  0  0  0  0  0  0
   11.5812    3.5842  -16.6437 H   0  0  0  0  0  0  0  0  0  0  0  0
   10.5336    3.1443  -17.9441 H   0  0  0  0  0  0  0  0  0  0  0  0
    8.3865    2.0286  -17.4304 H   0  0  0  0  0  0  0  0  0  0  0  0
    9.4787    0.6627  -17.4578 H   0  0  0  0  0  0  0  0  0  0  0  0
    7.4243    0.0399  -16.2880 H   0  0  0  0  0  0  0  0  0  0  0  0
    8.7847   -0.0264  -15.1933 H   0  0  0  0  0  0  0  0  0  0  0  0
    5.7447    0.3365  -14.3902 H   0  0  0  0  0  0  0  0  0  0  0  0
    4.7603    1.9321  -12.7652 H   0  0  0  0  0  0  0  0  0  0  0  0
    5.9052    3.9632  -12.1851 H   0  0  0  0  0  0  0  0  0  0  0  0
    9.0992    4.0656  -15.9021 H   0  0  0  0  0  0  0  0  0  0  0  0
   10.6848    3.0484  -13.4988 H   0  0  0  0  0  0  0  0  0  0  0  0
   11.2828    4.1697  -14.6913 H   0  0  0  0  0  0  0  0  0  0  0  0
   12.5493    6.6533  -12.3996 H   0  0  0  0  0  0  0  0  0  0  0  0
   12.5556    5.2037  -13.3264 H   0  0  0  0  0  0  0  0  0  0  0  0
   11.8267    8.0284  -14.3913 H   0  0  0  0  0  0  0  0  0  0  0  0
   12.7817    7.4737  -17.5875 H   0  0  0  0  0  0  0  0  0  0  0  0
   14.2339    8.1167  -16.8169 H   0  0  0  0  0  0  0  0  0  0  0  0
   12.6532    8.7790  -16.4095 H   0  0  0  0  0  0  0  0  0  0  0  0
   13.5153    5.1196  -16.7811 H   0  0  0  0  0  0  0  0  0  0  0  0
   13.6854    4.7758  -15.0649 H   0  0  0  0  0  0  0  0  0  0  0  0
   14.8938    5.7524  -15.8862 H   0  0  0  0  0  0  0  0  0  0  0  0
   10.6023    7.9091  -11.8301 H   0  0  0  0  0  0  0  0  0  0  0  0
    8.1741    7.9326  -11.4475 H   0  0  0  0  0  0  0  0  0  0  0  0
    6.3104    6.8385  -11.5503 H   0  0  0  0  0  0  0  0  0  0  0  0
   10.5135    1.5885  -15.4705 H   0  0  0  0  0  0  0  0  0  0  0  0
  2  1  1  0
  3  2  1  0
  4  3  1  0
  5  4  1  0
  6  5  1  0
  7  6  1  0
  8  7  2  0
  9  8  1  0
 10  9  2  0
 11 10  1  0
 12  7  1  0
 12 11  2  0
 13  4  1  0
 13 12  1  0
 14 13  1  0
 15 14  1  0
 16 15  2  0
 17 16  1  0
 18 17  1  0
 19 18  2  0
 20 19  1  0
 21 19  1  0
 22 16  1  0
 23 22  2  0
 24 23  1  0
 25 24  1  0
 26 11  1  0
 26 15  1  0
 26 24  2  0
 27  1  1  0
 28  1  1  0
 29  1  1  0
 30  2  1  0
 31  2  1  0
 32  3  1  0
 33  3  1  0
 34  5  1  0
 35  5  1  0
 36  6  1  0
 37  6  1  0
 38  8  1  0
 39  9  1  0
 40 10  1  0
 13 41  1  6
 42 14  1  0
 43 14  1  0
 44 17  1  0
 45 17  1  0
 46 18  1  0
 47 20  1  0
 48 20  1  0
 49 20  1  0
 50 21  1  0
 51 21  1  0
 52 21  1  0
 53 22  1  0
 54 23  1  0
 55 25  1  0
  4 56  1  1
M  CHG  1   4   1
M  END
>  <b_m_subgroup_collapsed>  (1196) 
0

>  <r_i_docking_score>  (1196) 
-6.4712946390217496

>  <s_m_subgroup_title>  (1196) 
glide-dock_SP_D22_pv

>  <s_m_subgroupid>  (1196) 
glide-dock_SP_D22_pv

>  <Molecule ChEMBL ID>  (1196) 
CHEMBL603542

>  <Standard Type>  (1196) 
Ki

>  <Standard Value>  (1196) 
10000.0

>  <label>  (1196) 
0

$$$$
CHEMBL597881
     RDKit          3D

 48 52  0  0  1  0  0  0  0  0999 V2000
    9.7809    6.9119   -7.3763 C   0  0  0  0  0  0  0  0  0  0  0  0
    9.6343    7.5441   -8.7671 C   0  0  0  0  0  0  0  0  0  0  0  0
    9.2495    6.5096   -9.8428 C   0  0  0  0  0  0  0  0  0  0  0  0
    8.8860    7.0992  -11.1696 N   0  0  1  0  0  0  0  0  0  0  0  0
    9.8545    8.0737  -11.7145 C   0  0  0  0  0  0  0  0  0  0  0  0
   11.1488    7.3443  -12.0844 C   0  0  0  0  0  0  0  0  0  0  0  0
   10.9693    6.1729  -13.0429 C   0  0  0  0  0  0  0  0  0  0  0  0
   11.9989    5.6650  -13.8469 C   0  0  0  0  0  0  0  0  0  0  0  0
   11.7952    4.4860  -14.5688 C   0  0  0  0  0  0  0  0  0  0  0  0
   10.5601    3.8228  -14.4945 C   0  0  0  0  0  0  0  0  0  0  0  0
    9.4498    4.3005  -13.7438 C   0  0  0  0  0  0  0  0  0  0  0  0
    9.7168    5.4948  -13.0116 C   0  0  0  0  0  0  0  0  0  0  0  0
    8.5283    6.1139  -12.2352 C   0  0  1  0  0  0  0  0  0  0  0  0
    7.4764    5.0984  -11.7590 C   0  0  0  0  0  0  0  0  0  0  0  0
    7.1573    4.0277  -12.7697 C   0  0  0  0  0  0  0  0  0  0  0  0
    5.9152    3.3721  -12.6556 C   0  0  0  0  0  0  0  0  0  0  0  0
    5.6315    2.2399  -13.4371 C   0  0  0  0  0  0  0  0  0  0  0  0
    6.5678    1.7613  -14.3723 C   0  0  0  0  0  0  0  0  0  0  0  0
    6.6231    0.6623  -15.2909 C   0  0  0  0  0  0  0  0  0  0  0  0
    7.8293    0.7738  -15.9315 C   0  0  0  0  0  0  0  0  0  0  0  0
    8.4700   -0.0676  -16.9819 C   0  0  0  0  0  0  0  0  0  0  0  0
    8.5362    1.8581  -15.4926 O   0  0  0  0  0  0  0  0  0  0  0  0
    7.7899    2.4770  -14.5053 C   0  0  0  0  0  0  0  0  0  0  0  0
    8.1319    3.6039  -13.7052 C   0  0  0  0  0  0  0  0  0  0  0  0
   10.0489    7.6633   -6.6328 H   0  0  0  0  0  0  0  0  0  0  0  0
   10.5570    6.1452   -7.3701 H   0  0  0  0  0  0  0  0  0  0  0  0
    8.8463    6.4483   -7.0522 H   0  0  0  0  0  0  0  0  0  0  0  0
    8.8750    8.3266   -8.7190 H   0  0  0  0  0  0  0  0  0  0  0  0
   10.5768    8.0293   -9.0224 H   0  0  0  0  0  0  0  0  0  0  0  0
   10.0389    5.7654   -9.9569 H   0  0  0  0  0  0  0  0  0  0  0  0
    8.3784    5.9881   -9.4473 H   0  0  0  0  0  0  0  0  0  0  0  0
    9.4285    8.5489  -12.5986 H   0  0  0  0  0  0  0  0  0  0  0  0
   10.0423    8.8861  -11.0152 H   0  0  0  0  0  0  0  0  0  0  0  0
   11.8882    8.0193  -12.5101 H   0  0  0  0  0  0  0  0  0  0  0  0
   11.6297    6.9722  -11.1809 H   0  0  0  0  0  0  0  0  0  0  0  0
   12.9574    6.1589  -13.8792 H   0  0  0  0  0  0  0  0  0  0  0  0
   12.5949    4.0751  -15.1677 H   0  0  0  0  0  0  0  0  0  0  0  0
   10.5085    2.9105  -15.0594 H   0  0  0  0  0  0  0  0  0  0  0  0
    8.0187    6.7041  -12.9994 H   0  0  0  0  0  0  0  0  0  0  0  0
    7.8358    4.5341  -10.8996 H   0  0  0  0  0  0  0  0  0  0  0  0
    6.5653    5.6138  -11.4467 H   0  0  0  0  0  0  0  0  0  0  0  0
    5.1997    3.7041  -11.9166 H   0  0  0  0  0  0  0  0  0  0  0  0
    4.6894    1.7265  -13.3155 H   0  0  0  0  0  0  0  0  0  0  0  0
    5.8682   -0.0951  -15.4429 H   0  0  0  0  0  0  0  0  0  0  0  0
    7.7625   -0.7918  -17.3876 H   0  0  0  0  0  0  0  0  0  0  0  0
    9.3150   -0.6196  -16.5696 H   0  0  0  0  0  0  0  0  0  0  0  0
    8.8326    0.5470  -17.8062 H   0  0  0  0  0  0  0  0  0  0  0  0
    8.0134    7.5953  -10.9682 H   0  0  0  0  0  0  0  0  0  0  0  0
  2  1  1  0
  3  2  1  0
  4  3  1  0
  5  4  1  0
  6  5  1  0
  7  6  1  0
  8  7  1  0
  9  8  2  0
 10  9  1  0
 11 10  2  0
 12  7  2  0
 12 11  1  0
 13  4  1  0
 13 12  1  0
 14 13  1  0
 15 14  1  0
 16 15  2  0
 17 16  1  0
 18 17  2  0
 19 18  1  0
 20 19  2  0
 21 20  1  0
 22 20  1  0
 23 18  1  0
 23 22  1  0
 24 11  1  0
 24 15  1  0
 24 23  2  0
 25  1  1  0
 26  1  1  0
 27  1  1  0
 28  2  1  0
 29  2  1  0
 30  3  1  0
 31  3  1  0
 32  5  1  0
 33  5  1  0
 34  6  1  0
 35  6  1  0
 36  8  1  0
 37  9  1  0
 38 10  1  0
 13 39  1  6
 40 14  1  0
 41 14  1  0
 42 16  1  0
 43 17  1  0
 44 19  1  0
 45 21  1  0
 46 21  1  0
 47 21  1  0
  4 48  1  1
M  CHG  1   4   1
M  END
>  <b_m_subgroup_collapsed>  (1197) 
0

>  <r_i_docking_score>  (1197) 
-6.4700605576422898

>  <s_m_subgroup_title>  (1197) 
glide-dock_SP_D22_pv

>  <s_m_subgroupid>  (1197) 
glide-dock_SP_D22_pv

>  <Molecule ChEMBL ID>  (1197) 
CHEMBL597881

>  <Standard Type>  (1197) 
Ki

>  <Standard Value>  (1197) 
10000.0

>  <label>  (1197) 
0

$$$$
CHEMBL4159188
     RDKit          3D

 49 51  0  0  1  0  0  0  0  0999 V2000
   11.9995    9.5912   -3.3980 C   0  0  0  0  0  0  0  0  0  0  0  0
   11.6571    8.8343   -4.6378 C   0  0  0  0  0  0  0  0  0  0  0  0
   11.2884    7.5164   -4.7324 C   0  0  0  0  0  0  0  0  0  0  0  0
   11.0077    7.1114   -6.0664 C   0  0  0  0  0  0  0  0  0  0  0  0
   11.2077    8.1054   -6.9849 C   0  0  0  0  0  0  0  0  0  0  0  0
   11.0539    7.9901   -8.4163 C   0  0  0  0  0  0  0  0  0  0  0  0
   10.1256    7.2904   -9.1363 C   0  0  0  0  0  0  0  0  0  0  0  0
   10.5426    7.4521  -10.4935 C   0  0  0  0  0  0  0  0  0  0  0  0
    9.8137    6.7944  -11.6278 C   0  0  0  0  0  0  0  0  0  0  0  0
   10.4190    6.4673  -12.6468 O   0  0  0  0  0  0  0  0  0  0  0  0
    8.4861    6.6859  -11.4866 N   0  0  0  0  0  0  0  0  0  0  0  0
    7.5217    6.4394  -12.5513 C   0  0  0  0  0  0  0  0  0  0  0  0
    7.2483    4.9528  -12.8449 C   0  0  0  0  0  0  0  0  0  0  0  0
    8.4269    4.2366  -13.5168 C   0  0  0  0  0  0  0  0  0  0  0  0
    8.0325    2.9013  -14.1687 C   0  0  0  0  0  0  0  0  0  0  0  0
    9.2222    2.1256  -14.5974 N   0  0  0  0  0  0  0  0  0  0  0  0
    8.9015    0.7041  -14.8601 C   0  0  0  0  0  0  0  0  0  0  0  0
   10.1705   -0.0618  -15.2580 C   0  0  0  0  0  0  0  0  0  0  0  0
   10.7613    0.5444  -16.3993 O   0  0  0  0  0  0  0  0  0  0  0  0
   11.1560    1.8860  -16.1491 C   0  0  0  0  0  0  0  0  0  0  0  0
    9.9280    2.7245  -15.7628 C   0  0  0  0  0  0  0  0  0  0  0  0
   11.6528    8.1717  -10.5956 N   0  0  0  0  0  0  0  0  0  0  0  0
   11.9469    8.5138   -9.3274 N   0  0  0  0  0  0  0  0  0  0  0  0
   11.6858    9.5973   -6.2101 S   0  0  0  0  0  0  0  0  0  0  0  0
   11.7113    9.0368   -2.5034 H   0  0  0  0  0  0  0  0  0  0  0  0
   13.0736    9.7745   -3.3458 H   0  0  0  0  0  0  0  0  0  0  0  0
   11.4826   10.5523   -3.3715 H   0  0  0  0  0  0  0  0  0  0  0  0
   11.2109    6.8350   -3.8998 H   0  0  0  0  0  0  0  0  0  0  0  0
   10.6942    6.1087   -6.3087 H   0  0  0  0  0  0  0  0  0  0  0  0
    9.2853    6.7301   -8.7505 H   0  0  0  0  0  0  0  0  0  0  0  0
    8.0475    7.0428  -10.6395 H   0  0  0  0  0  0  0  0  0  0  0  0
    6.5876    6.9106  -12.2476 H   0  0  0  0  0  0  0  0  0  0  0  0
    7.8306    6.9701  -13.4471 H   0  0  0  0  0  0  0  0  0  0  0  0
    6.9659    4.4350  -11.9268 H   0  0  0  0  0  0  0  0  0  0  0  0
    6.3804    4.8980  -13.5018 H   0  0  0  0  0  0  0  0  0  0  0  0
    8.8512    4.9020  -14.2699 H   0  0  0  0  0  0  0  0  0  0  0  0
    9.2067    4.0655  -12.7743 H   0  0  0  0  0  0  0  0  0  0  0  0
    7.4583    2.3218  -13.4477 H   0  0  0  0  0  0  0  0  0  0  0  0
    7.3661    3.0594  -15.0200 H   0  0  0  0  0  0  0  0  0  0  0  0
    8.4645    0.2501  -13.9706 H   0  0  0  0  0  0  0  0  0  0  0  0
    8.1584    0.6317  -15.6562 H   0  0  0  0  0  0  0  0  0  0  0  0
   10.8850   -0.0909  -14.4341 H   0  0  0  0  0  0  0  0  0  0  0  0
    9.9235   -1.0912  -15.5037 H   0  0  0  0  0  0  0  0  0  0  0  0
   11.9091    1.9198  -15.3631 H   0  0  0  0  0  0  0  0  0  0  0  0
   11.6218    2.2904  -17.0484 H   0  0  0  0  0  0  0  0  0  0  0  0
    9.2441    2.7921  -16.6109 H   0  0  0  0  0  0  0  0  0  0  0  0
   10.2549    3.7389  -15.5341 H   0  0  0  0  0  0  0  0  0  0  0  0
   12.7586    9.0803   -9.1113 H   0  0  0  0  0  0  0  0  0  0  0  0
    9.8612    2.1321  -13.8123 H   0  0  0  0  0  0  0  0  0  0  0  0
  2  1  1  0
  3  2  2  0
  4  3  1  0
  5  4  2  0
  6  5  1  0
  7  6  2  0
  8  7  1  0
  9  8  1  0
 10  9  2  0
 11  9  1  0
 12 11  1  0
 13 12  1  0
 14 13  1  0
 15 14  1  0
 16 15  1  0
 17 16  1  0
 18 17  1  0
 19 18  1  0
 20 19  1  0
 21 16  1  0
 21 20  1  0
 22  8  2  0
 23  6  1  0
 23 22  1  0
 24  2  1  0
 24  5  1  0
 25  1  1  0
 26  1  1  0
 27  1  1  0
 28  3  1  0
 29  4  1  0
 30  7  1  0
 31 11  1  0
 32 12  1  0
 33 12  1  0
 34 13  1  0
 35 13  1  0
 36 14  1  0
 37 14  1  0
 38 15  1  0
 39 15  1  0
 40 17  1  0
 41 17  1  0
 42 18  1  0
 43 18  1  0
 44 20  1  0
 45 20  1  0
 46 21  1  0
 47 21  1  0
 48 23  1  0
 49 16  1  0
M  CHG  1  16   1
M  END
>  <b_m_subgroup_collapsed>  (1198) 
0

>  <r_i_docking_score>  (1198) 
-6.4607639343783401

>  <s_m_subgroup_title>  (1198) 
glide-dock_SP_D22_pv

>  <s_m_subgroupid>  (1198) 
glide-dock_SP_D22_pv

>  <Molecule ChEMBL ID>  (1198) 
CHEMBL4159188

>  <Standard Type>  (1198) 
Ki

>  <Standard Value>  (1198) 
10000.0

>  <label>  (1198) 
0

$$$$
CHEMBL4528479
     RDKit          3D

 66 70  0  0  1  0  0  0  0  0999 V2000
    3.4463   -3.2837  -19.1139 C   0  0  0  0  0  0  0  0  0  0  0  0
    4.4783   -2.8653  -18.0611 C   0  0  0  0  0  0  0  0  0  0  0  0
    4.0120   -1.6381  -17.2578 C   0  0  0  0  0  0  0  0  0  0  0  0
    4.9374   -1.2115  -16.2033 N   0  0  0  0  0  0  0  0  0  0  0  0
    4.1926   -0.7445  -15.0346 C   0  0  0  0  0  0  0  0  0  0  0  0
    5.1189   -0.3302  -13.8792 C   0  0  0  0  0  0  0  0  0  0  0  0
    6.0137    0.6745  -14.3278 O   0  0  0  0  0  0  0  0  0  0  0  0
    6.7987    0.2422  -15.4360 C   0  0  2  0  0  0  0  0  0  0  0  0
    7.7987    1.2991  -15.8557 C   0  0  0  0  0  0  0  0  0  0  0  0
    8.3995    2.1201  -14.8808 C   0  0  0  0  0  0  0  0  0  0  0  0
    9.2864    3.1553  -15.2570 C   0  0  0  0  0  0  0  0  0  0  0  0
    9.8445    4.0555  -14.3763 O   0  0  0  0  0  0  0  0  0  0  0  0
    9.3648    4.1032  -13.0365 C   0  0  0  0  0  0  0  0  0  0  0  0
    9.6097    5.5231  -12.5191 C   0  0  0  0  0  0  0  0  0  0  0  0
    9.3595    5.6826  -11.0132 C   0  0  0  0  0  0  0  0  0  0  0  0
    9.4624    7.1518  -10.5826 C   0  0  0  0  0  0  0  0  0  0  0  0
    9.6945    7.2612   -9.1477 N   0  0  0  0  0  0  0  0  0  0  0  0
   10.3376    8.2887   -8.5751 C   0  0  0  0  0  0  0  0  0  0  0  0
   10.6583    9.3124   -9.1797 O   0  0  0  0  0  0  0  0  0  0  0  0
   10.6575    8.1273   -7.1447 C   0  0  0  0  0  0  0  0  0  0  0  0
   10.8376    7.0220   -6.3492 C   0  0  0  0  0  0  0  0  0  0  0  0
   11.2860    7.5013   -5.0699 C   0  0  0  0  0  0  0  0  0  0  0  0
   11.6860    6.9265   -3.8461 C   0  0  0  0  0  0  0  0  0  0  0  0
   12.0879    7.7657   -2.7875 C   0  0  0  0  0  0  0  0  0  0  0  0
   12.0761    9.1624   -2.9778 C   0  0  0  0  0  0  0  0  0  0  0  0
   11.6868    9.7720   -4.1193 N   0  0  0  0  0  0  0  0  0  0  0  0
   11.3254    8.9217   -5.1209 C   0  0  0  0  0  0  0  0  0  0  0  0
   10.9473    9.2620   -6.3997 N   0  0  0  0  0  0  0  0  0  0  0  0
    9.6148    3.3021  -16.6189 C   0  0  0  0  0  0  0  0  0  0  0  0
    9.0356    2.4671  -17.5936 C   0  0  0  0  0  0  0  0  0  0  0  0
    8.1192    1.4645  -17.2222 C   0  0  0  0  0  0  0  0  0  0  0  0
    7.5363    0.7123  -18.2186 O   0  0  0  0  0  0  0  0  0  0  0  0
    6.7712   -0.4293  -17.8319 C   0  0  0  0  0  0  0  0  0  0  0  0
    5.8730   -0.1456  -16.6107 C   0  0  1  0  0  0  0  0  0  0  0  0
    3.7779   -4.1742  -19.6498 H   0  0  0  0  0  0  0  0  0  0  0  0
    3.2898   -2.4884  -19.8452 H   0  0  0  0  0  0  0  0  0  0  0  0
    2.4851   -3.5153  -18.6483 H   0  0  0  0  0  0  0  0  0  0  0  0
    4.6375   -3.6991  -17.3758 H   0  0  0  0  0  0  0  0  0  0  0  0
    5.4362   -2.6991  -18.5476 H   0  0  0  0  0  0  0  0  0  0  0  0
    3.7835   -0.8025  -17.9235 H   0  0  0  0  0  0  0  0  0  0  0  0
    3.0567   -1.9173  -16.8084 H   0  0  0  0  0  0  0  0  0  0  0  0
    3.5573    0.1007  -15.3073 H   0  0  0  0  0  0  0  0  0  0  0  0
    3.5217   -1.5299  -14.6837 H   0  0  0  0  0  0  0  0  0  0  0  0
    4.5354    0.0642  -13.0467 H   0  0  0  0  0  0  0  0  0  0  0  0
    5.6860   -1.1851  -13.5073 H   0  0  0  0  0  0  0  0  0  0  0  0
    7.3806   -0.6276  -15.1265 H   0  0  0  0  0  0  0  0  0  0  0  0
    8.1456    1.9503  -13.8470 H   0  0  0  0  0  0  0  0  0  0  0  0
    8.2953    3.9053  -12.9619 H   0  0  0  0  0  0  0  0  0  0  0  0
    9.8942    3.3650  -12.4336 H   0  0  0  0  0  0  0  0  0  0  0  0
   10.6366    5.8174  -12.7415 H   0  0  0  0  0  0  0  0  0  0  0  0
    8.9659    6.2098  -13.0691 H   0  0  0  0  0  0  0  0  0  0  0  0
    8.3750    5.2937  -10.7459 H   0  0  0  0  0  0  0  0  0  0  0  0
   10.0858    5.0775  -10.4697 H   0  0  0  0  0  0  0  0  0  0  0  0
   10.2845    7.6290  -11.1202 H   0  0  0  0  0  0  0  0  0  0  0  0
    8.5517    7.6888  -10.8538 H   0  0  0  0  0  0  0  0  0  0  0  0
    9.3922    6.4971   -8.5629 H   0  0  0  0  0  0  0  0  0  0  0  0
   10.7098    5.9881   -6.6283 H   0  0  0  0  0  0  0  0  0  0  0  0
   11.6889    5.8530   -3.7261 H   0  0  0  0  0  0  0  0  0  0  0  0
   12.4005    7.3447   -1.8451 H   0  0  0  0  0  0  0  0  0  0  0  0
   12.3763    9.8167   -2.1735 H   0  0  0  0  0  0  0  0  0  0  0  0
   10.9127   10.1906   -6.7925 H   0  0  0  0  0  0  0  0  0  0  0  0
   10.2981    4.0820  -16.9219 H   0  0  0  0  0  0  0  0  0  0  0  0
    9.2866    2.6063  -18.6345 H   0  0  0  0  0  0  0  0  0  0  0  0
    6.1654   -0.6744  -18.7020 H   0  0  0  0  0  0  0  0  0  0  0  0
    7.4367   -1.2737  -17.6430 H   0  0  0  0  0  0  0  0  0  0  0  0
    5.2862    0.7336  -16.8762 H   0  0  0  0  0  0  0  0  0  0  0  0
  2  1  1  0
  3  2  1  0
  4  3  1  0
  5  4  1  0
  6  5  1  0
  7  6  1  0
  8  7  1  0
  9  8  1  0
 10  9  1  0
 11 10  2  0
 12 11  1  0
 13 12  1  0
 14 13  1  0
 15 14  1  0
 16 15  1  0
 17 16  1  0
 18 17  1  0
 19 18  2  0
 20 18  1  0
 21 20  2  0
 22 21  1  0
 23 22  1  0
 24 23  2  0
 25 24  1  0
 26 25  2  0
 27 22  2  0
 27 26  1  0
 28 20  1  0
 28 27  1  0
 29 11  1  0
 30 29  2  0
 31  9  2  0
 31 30  1  0
 32 31  1  0
 33 32  1  0
 34  4  1  0
 34  8  1  0
 34 33  1  0
 35  1  1  0
 36  1  1  0
 37  1  1  0
 38  2  1  0
 39  2  1  0
 40  3  1  0
 41  3  1  0
 42  5  1  0
 43  5  1  0
 44  6  1  0
 45  6  1  0
  8 46  1  1
 47 10  1  0
 48 13  1  0
 49 13  1  0
 50 14  1  0
 51 14  1  0
 52 15  1  0
 53 15  1  0
 54 16  1  0
 55 16  1  0
 56 17  1  0
 57 21  1  0
 58 23  1  0
 59 24  1  0
 60 25  1  0
 61 28  1  0
 62 29  1  0
 63 30  1  0
 64 33  1  0
 65 33  1  0
 34 66  1  6
M  END
>  <b_m_subgroup_collapsed>  (1199) 
0

>  <r_i_docking_score>  (1199) 
-6.45621858723689

>  <s_m_subgroup_title>  (1199) 
glide-dock_SP_D22_pv

>  <s_m_subgroupid>  (1199) 
glide-dock_SP_D22_pv

>  <Molecule ChEMBL ID>  (1199) 
CHEMBL4528479

>  <Standard Type>  (1199) 
Ki

>  <Standard Value>  (1199) 
27000.0

>  <label>  (1199) 
0

$$$$
CHEMBL493384
     RDKit          3D

 49 50  0  0  1  0  0  0  0  0999 V2000
   12.5357    9.0106   -1.5419 C   0  0  0  0  0  0  0  0  0  0  0  0
   12.0862    9.7721   -2.6462 O   0  0  0  0  0  0  0  0  0  0  0  0
   11.7155    9.1086   -3.7892 C   0  0  0  0  0  0  0  0  0  0  0  0
   11.2822    9.9177   -4.8514 C   0  0  0  0  0  0  0  0  0  0  0  0
   10.8445    9.3471   -6.0545 C   0  0  0  0  0  0  0  0  0  0  0  0
   10.8468    7.9486   -6.2181 C   0  0  0  0  0  0  0  0  0  0  0  0
   10.3948    7.3727   -7.5427 C   0  0  0  0  0  0  0  0  0  0  0  0
   11.3319    7.8502   -8.6699 C   0  0  0  0  0  0  0  0  0  0  0  0
   10.8786    7.5311  -10.0208 N   0  0  0  0  0  0  0  0  0  0  0  0
   11.9801    7.8712  -10.9159 C   0  0  0  0  0  0  0  0  0  0  0  0
    9.6858    8.3120  -10.3614 C   0  0  0  0  0  0  0  0  0  0  0  0
    9.1226    8.0273  -11.7699 C   0  0  0  0  0  0  0  0  0  0  0  0
    8.3714    6.7491  -11.8224 N   0  0  0  0  0  0  0  0  0  0  0  0
    7.2530    6.7866  -12.7903 C   0  0  0  0  0  0  0  0  0  0  0  0
    6.3656    5.5396  -12.6475 C   0  0  0  0  0  0  0  0  0  0  0  0
    7.1902    4.2613  -12.8497 C   0  0  0  0  0  0  0  0  0  0  0  0
    8.3845    4.2529  -11.8861 C   0  0  0  0  0  0  0  0  0  0  0  0
    9.2186    5.5395  -12.0107 C   0  0  0  0  0  0  0  0  0  0  0  0
   11.2863    7.1238   -5.1631 C   0  0  0  0  0  0  0  0  0  0  0  0
   11.7282    7.6996   -3.9546 C   0  0  0  0  0  0  0  0  0  0  0  0
   12.6570    9.6758   -0.6911 H   0  0  0  0  0  0  0  0  0  0  0  0
   11.8279    8.2317   -1.2593 H   0  0  0  0  0  0  0  0  0  0  0  0
   13.5068    8.5723   -1.7588 H   0  0  0  0  0  0  0  0  0  0  0  0
   11.2804   10.9903   -4.7407 H   0  0  0  0  0  0  0  0  0  0  0  0
   10.5026    9.9888   -6.8515 H   0  0  0  0  0  0  0  0  0  0  0  0
   10.3822    6.2816   -7.4984 H   0  0  0  0  0  0  0  0  0  0  0  0
    9.3633    7.6903   -7.6866 H   0  0  0  0  0  0  0  0  0  0  0  0
   11.4999    8.9267   -8.6047 H   0  0  0  0  0  0  0  0  0  0  0  0
   12.2976    7.3726   -8.4914 H   0  0  0  0  0  0  0  0  0  0  0  0
   12.8859    7.3724  -10.5844 H   0  0  0  0  0  0  0  0  0  0  0  0
   11.8010    7.5331  -11.9352 H   0  0  0  0  0  0  0  0  0  0  0  0
   12.1764    8.9467  -10.9294 H   0  0  0  0  0  0  0  0  0  0  0  0
    8.8865    8.1218   -9.6499 H   0  0  0  0  0  0  0  0  0  0  0  0
    9.9214    9.3719  -10.2572 H   0  0  0  0  0  0  0  0  0  0  0  0
    8.4281    8.8416  -11.9792 H   0  0  0  0  0  0  0  0  0  0  0  0
    9.8675    8.0808  -12.5630 H   0  0  0  0  0  0  0  0  0  0  0  0
    6.6424    7.6794  -12.6466 H   0  0  0  0  0  0  0  0  0  0  0  0
    7.6860    6.8507  -13.7861 H   0  0  0  0  0  0  0  0  0  0  0  0
    5.9026    5.5329  -11.6594 H   0  0  0  0  0  0  0  0  0  0  0  0
    5.5493    5.5742  -13.3696 H   0  0  0  0  0  0  0  0  0  0  0  0
    6.5653    3.3820  -12.6869 H   0  0  0  0  0  0  0  0  0  0  0  0
    7.5436    4.2085  -13.8792 H   0  0  0  0  0  0  0  0  0  0  0  0
    8.0194    4.1726  -10.8611 H   0  0  0  0  0  0  0  0  0  0  0  0
    9.0115    3.3759  -12.0732 H   0  0  0  0  0  0  0  0  0  0  0  0
    9.7025    5.5824  -12.9872 H   0  0  0  0  0  0  0  0  0  0  0  0
   10.0128    5.4996  -11.2697 H   0  0  0  0  0  0  0  0  0  0  0  0
   11.2941    6.0504   -5.2771 H   0  0  0  0  0  0  0  0  0  0  0  0
   12.0610    7.0407   -3.1660 H   0  0  0  0  0  0  0  0  0  0  0  0
    7.9040    6.6908  -10.9214 H   0  0  0  0  0  0  0  0  0  0  0  0
  2  1  1  0
  3  2  1  0
  4  3  1  0
  5  4  2  0
  6  5  1  0
  7  6  1  0
  8  7  1  0
  9  8  1  0
 10  9  1  0
 11  9  1  0
 12 11  1  0
 13 12  1  0
 14 13  1  0
 15 14  1  0
 16 15  1  0
 17 16  1  0
 18 13  1  0
 18 17  1  0
 19  6  2  0
 20  3  2  0
 20 19  1  0
 21  1  1  0
 22  1  1  0
 23  1  1  0
 24  4  1  0
 25  5  1  0
 26  7  1  0
 27  7  1  0
 28  8  1  0
 29  8  1  0
 30 10  1  0
 31 10  1  0
 32 10  1  0
 33 11  1  0
 34 11  1  0
 35 12  1  0
 36 12  1  0
 37 14  1  0
 38 14  1  0
 39 15  1  0
 40 15  1  0
 41 16  1  0
 42 16  1  0
 43 17  1  0
 44 17  1  0
 45 18  1  0
 46 18  1  0
 47 19  1  0
 48 20  1  0
 49 13  1  0
M  CHG  1  13   1
M  END
>  <b_m_subgroup_collapsed>  (1200) 
0

>  <r_i_docking_score>  (1200) 
-6.45572571704494

>  <s_m_subgroup_title>  (1200) 
glide-dock_SP_D22_pv

>  <s_m_subgroupid>  (1200) 
glide-dock_SP_D22_pv

>  <Molecule ChEMBL ID>  (1200) 
CHEMBL493384

>  <Standard Type>  (1200) 
Ki

>  <Standard Value>  (1200) 
10000.0

>  <label>  (1200) 
0

$$$$
CHEMBL46880
     RDKit          3D

 42 44  0  0  1  0  0  0  0  0999 V2000
   12.4874    8.9723   -1.5881 Br  0  0  0  0  0  0  0  0  0  0  0  0
   11.9840    8.5058   -3.3497 C   0  0  0  0  0  0  0  0  0  0  0  0
   12.0695    7.1630   -3.7461 C   0  0  0  0  0  0  0  0  0  0  0  0
   11.6841    6.8034   -5.0468 C   0  0  0  0  0  0  0  0  0  0  0  0
   11.2257    7.7674   -5.9650 C   0  0  0  0  0  0  0  0  0  0  0  0
   10.9166    7.3075   -7.2219 O   0  0  0  0  0  0  0  0  0  0  0  0
   10.2866    8.1848   -8.1408 C   0  0  0  0  0  0  0  0  0  0  0  0
    9.9793    7.3497   -9.3944 C   0  0  1  0  0  0  0  0  0  0  0  0
    9.0257    6.1874   -9.0706 C   0  0  0  0  0  0  0  0  0  0  0  0
    8.7362    5.3499  -10.3198 C   0  0  0  0  0  0  0  0  0  0  0  0
    8.1450    6.1723  -11.4109 N   0  0  2  0  0  0  0  0  0  0  0  0
    7.8212    5.3666  -12.6171 C   0  0  0  0  0  0  0  0  0  0  0  0
    6.6901    4.3653  -12.4301 C   0  0  0  0  0  0  0  0  0  0  0  0
    5.3865    4.4973  -13.1801 C   0  0  0  0  0  0  0  0  0  0  0  0
    6.3625    3.4213  -13.5687 C   0  0  0  0  0  0  0  0  0  0  0  0
    9.0221    7.3253  -11.7550 C   0  0  0  0  0  0  0  0  0  0  0  0
    9.3752    8.1922  -10.5273 C   0  0  0  0  0  0  0  0  0  0  0  0
   11.1331    9.1199   -5.5538 C   0  0  0  0  0  0  0  0  0  0  0  0
   11.5091    9.4838   -4.2451 C   0  0  0  0  0  0  0  0  0  0  0  0
   12.4223    6.4099   -3.0561 H   0  0  0  0  0  0  0  0  0  0  0  0
   11.7565    5.7733   -5.3567 H   0  0  0  0  0  0  0  0  0  0  0  0
    9.3666    8.5955   -7.7202 H   0  0  0  0  0  0  0  0  0  0  0  0
   10.9506    9.0141   -8.3906 H   0  0  0  0  0  0  0  0  0  0  0  0
   10.9231    6.9319   -9.7503 H   0  0  0  0  0  0  0  0  0  0  0  0
    9.4555    5.5446   -8.3029 H   0  0  0  0  0  0  0  0  0  0  0  0
    8.0928    6.5714   -8.6584 H   0  0  0  0  0  0  0  0  0  0  0  0
    8.0655    4.5449  -10.0306 H   0  0  0  0  0  0  0  0  0  0  0  0
    9.6543    4.8768  -10.6700 H   0  0  0  0  0  0  0  0  0  0  0  0
    7.5637    6.0297  -13.4441 H   0  0  0  0  0  0  0  0  0  0  0  0
    8.7155    4.8264  -12.9327 H   0  0  0  0  0  0  0  0  0  0  0  0
    6.6219    3.9057  -11.4469 H   0  0  0  0  0  0  0  0  0  0  0  0
    4.4861    4.1702  -12.6718 H   0  0  0  0  0  0  0  0  0  0  0  0
    5.2681    5.3491  -13.8464 H   0  0  0  0  0  0  0  0  0  0  0  0
    6.9013    3.5449  -14.5062 H   0  0  0  0  0  0  0  0  0  0  0  0
    6.0994    2.3954  -13.3154 H   0  0  0  0  0  0  0  0  0  0  0  0
    8.5206    7.9509  -12.4955 H   0  0  0  0  0  0  0  0  0  0  0  0
    9.9397    6.9570  -12.2158 H   0  0  0  0  0  0  0  0  0  0  0  0
    8.4863    8.7116  -10.1703 H   0  0  0  0  0  0  0  0  0  0  0  0
   10.0776    8.9711  -10.8239 H   0  0  0  0  0  0  0  0  0  0  0  0
   10.7811    9.8889   -6.2242 H   0  0  0  0  0  0  0  0  0  0  0  0
   11.4297   10.5119   -3.9263 H   0  0  0  0  0  0  0  0  0  0  0  0
    7.2939    6.6042  -11.0397 H   0  0  0  0  0  0  0  0  0  0  0  0
  2  1  1  0
  3  2  1  0
  4  3  2  0
  5  4  1  0
  6  5  1  0
  7  6  1  0
  8  7  1  0
  9  8  1  0
 10  9  1  0
 11 10  1  0
 12 11  1  0
 13 12  1  0
 14 13  1  0
 15 13  1  0
 15 14  1  0
 16 11  1  0
 17  8  1  0
 17 16  1  0
 18  5  2  0
 19  2  2  0
 19 18  1  0
 20  3  1  0
 21  4  1  0
 22  7  1  0
 23  7  1  0
  8 24  1  6
 25  9  1  0
 26  9  1  0
 27 10  1  0
 28 10  1  0
 29 12  1  0
 30 12  1  0
 31 13  1  0
 32 14  1  0
 33 14  1  0
 34 15  1  0
 35 15  1  0
 36 16  1  0
 37 16  1  0
 38 17  1  0
 39 17  1  0
 40 18  1  0
 41 19  1  0
 11 42  1  1
M  CHG  1  11   1
M  END
>  <b_m_subgroup_collapsed>  (1201) 
0

>  <r_i_docking_score>  (1201) 
-6.45475936859419

>  <s_m_subgroup_title>  (1201) 
glide-dock_SP_D22_pv

>  <s_m_subgroupid>  (1201) 
glide-dock_SP_D22_pv

>  <Molecule ChEMBL ID>  (1201) 
CHEMBL46880

>  <Standard Type>  (1201) 
Ki

>  <Standard Value>  (1201) 
10000.0

>  <label>  (1201) 
0

$$$$
CHEMBL93917
     RDKit          3D

 41 42  0  0  1  0  0  0  0  0999 V2000
   10.0934    7.0328   -6.0917 C   0  0  0  0  0  0  0  0  0  0  0  0
    9.4303    7.3933   -7.4237 C   0  0  0  0  0  0  0  0  0  0  0  0
    9.4814    6.2227   -8.4218 C   0  0  0  0  0  0  0  0  0  0  0  0
    8.8860    6.5501   -9.7424 N   0  0  1  0  0  0  0  0  0  0  0  0
    9.6989    7.5036  -10.5438 C   0  0  0  0  0  0  0  0  0  0  0  0
    8.9489    7.9358  -11.8126 C   0  0  0  0  0  0  0  0  0  0  0  0
    8.5098    6.7213  -12.6394 C   0  0  0  0  0  0  0  0  0  0  0  0
    7.7499    5.6905  -11.7857 C   0  0  1  0  0  0  0  0  0  0  0  0
    7.3292    4.4549  -12.5769 C   0  0  0  0  0  0  0  0  0  0  0  0
    6.0538    3.8973  -12.3445 C   0  0  0  0  0  0  0  0  0  0  0  0
    5.6363    2.7530  -13.0470 C   0  0  0  0  0  0  0  0  0  0  0  0
    6.4860    2.1609  -13.9997 C   0  0  0  0  0  0  0  0  0  0  0  0
    7.7609    2.7076  -14.2470 C   0  0  0  0  0  0  0  0  0  0  0  0
    8.6740    2.0570  -15.2683 C   0  0  0  0  0  0  0  0  0  0  0  0
    8.1206    2.1149  -16.6306 C   0  0  0  0  0  0  0  0  0  0  0  0
    7.6865    2.1606  -17.7035 N   0  0  0  0  0  0  0  0  0  0  0  0
    8.1842    3.8445  -13.5266 C   0  0  0  0  0  0  0  0  0  0  0  0
    8.5606    5.3289  -10.5279 C   0  0  0  0  0  0  0  0  0  0  0  0
   10.0844    7.8916   -5.4232 H   0  0  0  0  0  0  0  0  0  0  0  0
    9.5730    6.2130   -5.5969 H   0  0  0  0  0  0  0  0  0  0  0  0
   11.1331    6.7348   -6.2338 H   0  0  0  0  0  0  0  0  0  0  0  0
    9.9352    8.2751   -7.8194 H   0  0  0  0  0  0  0  0  0  0  0  0
    8.3936    7.6835   -7.2440 H   0  0  0  0  0  0  0  0  0  0  0  0
    8.9385    5.3851   -7.9803 H   0  0  0  0  0  0  0  0  0  0  0  0
   10.5098    5.8841   -8.5614 H   0  0  0  0  0  0  0  0  0  0  0  0
   10.6489    7.0382  -10.8110 H   0  0  0  0  0  0  0  0  0  0  0  0
    9.9352    8.3994   -9.9719 H   0  0  0  0  0  0  0  0  0  0  0  0
    9.5846    8.5820  -12.4172 H   0  0  0  0  0  0  0  0  0  0  0  0
    8.0858    8.5399  -11.5377 H   0  0  0  0  0  0  0  0  0  0  0  0
    9.4020    6.2778  -13.0756 H   0  0  0  0  0  0  0  0  0  0  0  0
    7.8626    7.0466  -13.4478 H   0  0  0  0  0  0  0  0  0  0  0  0
    6.8304    6.1723  -11.4487 H   0  0  0  0  0  0  0  0  0  0  0  0
    5.3915    4.3398  -11.6148 H   0  0  0  0  0  0  0  0  0  0  0  0
    4.6603    2.3302  -12.8586 H   0  0  0  0  0  0  0  0  0  0  0  0
    6.1568    1.2848  -14.5396 H   0  0  0  0  0  0  0  0  0  0  0  0
    9.6503    2.5409  -15.2751 H   0  0  0  0  0  0  0  0  0  0  0  0
    8.8271    1.0102  -15.0057 H   0  0  0  0  0  0  0  0  0  0  0  0
    9.1728    4.2327  -13.7108 H   0  0  0  0  0  0  0  0  0  0  0  0
    7.9798    4.6399   -9.9129 H   0  0  0  0  0  0  0  0  0  0  0  0
    9.4786    4.8046  -10.7997 H   0  0  0  0  0  0  0  0  0  0  0  0
    7.9836    6.9995   -9.5786 H   0  0  0  0  0  0  0  0  0  0  0  0
  2  1  1  0
  3  2  1  0
  4  3  1  0
  5  4  1  0
  6  5  1  0
  7  6  1  0
  8  7  1  0
  9  8  1  0
 10  9  2  0
 11 10  1  0
 12 11  2  0
 13 12  1  0
 14 13  1  0
 15 14  1  0
 16 15  3  0
 17  9  1  0
 17 13  2  0
 18  4  1  0
 18  8  1  0
 19  1  1  0
 20  1  1  0
 21  1  1  0
 22  2  1  0
 23  2  1  0
 24  3  1  0
 25  3  1  0
 26  5  1  0
 27  5  1  0
 28  6  1  0
 29  6  1  0
 30  7  1  0
 31  7  1  0
  8 32  1  1
 33 10  1  0
 34 11  1  0
 35 12  1  0
 36 14  1  0
 37 14  1  0
 38 17  1  0
 39 18  1  0
 40 18  1  0
  4 41  1  1
M  CHG  1   4   1
M  END
>  <b_m_subgroup_collapsed>  (1202) 
0

>  <r_i_docking_score>  (1202) 
-6.4542270561191497

>  <s_m_subgroup_title>  (1202) 
glide-dock_SP_D22_pv

>  <s_m_subgroupid>  (1202) 
glide-dock_SP_D22_pv

>  <Molecule ChEMBL ID>  (1202) 
CHEMBL93917

>  <Standard Type>  (1202) 
Ki

>  <Standard Value>  (1202) 
69.0

>  <label>  (1202) 
1

$$$$
CHEMBL5438081
     RDKit          3D

 63 65  0  0  1  0  0  0  0  0999 V2000
   12.6286    8.8882   -1.4470 C   0  0  0  0  0  0  0  0  0  0  0  0
   11.8237    8.7032   -2.5954 O   0  0  0  0  0  0  0  0  0  0  0  0
   12.2383    9.5805   -3.6221 C   0  0  0  0  0  0  0  0  0  0  0  0
   11.3135    9.5706   -4.8431 C   0  0  0  0  0  0  0  0  0  0  0  0
   11.1104    8.1896   -5.4869 C   0  0  0  0  0  0  0  0  0  0  0  0
   11.6780    7.2064   -5.0083 O   0  0  0  0  0  0  0  0  0  0  0  0
   10.2516    8.0860   -6.5271 N   0  0  0  0  0  0  0  0  0  0  0  0
    9.8039    6.7945   -7.0511 C   0  0  0  0  0  0  0  0  0  0  0  0
   10.4854    6.5642   -8.4042 C   0  0  0  0  0  0  0  0  0  0  0  0
   10.1191    7.6883   -9.3973 C   0  0  0  0  0  0  0  0  0  0  0  0
   10.8007    7.5144  -10.7691 C   0  0  0  0  0  0  0  0  0  0  0  0
    9.9147    6.8461  -11.8324 C   0  0  0  0  0  0  0  0  0  0  0  0
    9.2859    5.5192  -11.3872 C   0  0  0  0  0  0  0  0  0  0  0  0
    8.5915    4.8629  -12.5175 N   0  0  0  0  0  0  0  0  0  0  0  0
    7.1714    4.5427  -12.2205 C   0  0  0  0  0  0  0  0  0  0  0  0
    6.4746    3.9873  -13.4714 C   0  0  0  0  0  0  0  0  0  0  0  0
    7.2266    2.8597  -14.0124 N   0  0  0  0  0  0  0  0  0  0  0  0
    6.5508    1.6666  -14.3515 C   0  0  0  0  0  0  0  0  0  0  0  0
    5.5773    1.1825  -13.4472 C   0  0  0  0  0  0  0  0  0  0  0  0
    4.7706    0.0817  -13.7707 C   0  0  0  0  0  0  0  0  0  0  0  0
    4.9597   -0.6001  -14.9843 C   0  0  0  0  0  0  0  0  0  0  0  0
    5.9391   -0.1537  -15.8923 C   0  0  0  0  0  0  0  0  0  0  0  0
    6.0852   -0.9583  -17.4156 Cl  0  0  0  0  0  0  0  0  0  0  0  0
    6.7357    0.9776  -15.5889 C   0  0  0  0  0  0  0  0  0  0  0  0
    7.8226    1.5622  -16.8062 Cl  0  0  0  0  0  0  0  0  0  0  0  0
    8.6536    3.0424  -14.2538 C   0  0  0  0  0  0  0  0  0  0  0  0
    9.3502    3.7006  -13.0488 C   0  0  0  0  0  0  0  0  0  0  0  0
   10.4590    9.0480   -8.7738 C   0  0  0  0  0  0  0  0  0  0  0  0
    9.8168    9.1969   -7.3819 C   0  0  0  0  0  0  0  0  0  0  0  0
   12.3644    8.1729   -0.6769 H   0  0  0  0  0  0  0  0  0  0  0  0
   13.6859    8.7607   -1.6731 H   0  0  0  0  0  0  0  0  0  0  0  0
   12.4854    9.8843   -1.0325 H   0  0  0  0  0  0  0  0  0  0  0  0
   13.2653    9.3776   -3.9236 H   0  0  0  0  0  0  0  0  0  0  0  0
   12.2068   10.5723   -3.1840 H   0  0  0  0  0  0  0  0  0  0  0  0
   11.7494   10.2424   -5.5823 H   0  0  0  0  0  0  0  0  0  0  0  0
   10.3455    9.9859   -4.5649 H   0  0  0  0  0  0  0  0  0  0  0  0
    8.7179    6.7984   -7.1660 H   0  0  0  0  0  0  0  0  0  0  0  0
   10.0321    5.9742   -6.3726 H   0  0  0  0  0  0  0  0  0  0  0  0
   10.2190    5.5797   -8.7851 H   0  0  0  0  0  0  0  0  0  0  0  0
   11.5625    6.5707   -8.2450 H   0  0  0  0  0  0  0  0  0  0  0  0
    9.0368    7.6866   -9.5403 H   0  0  0  0  0  0  0  0  0  0  0  0
   11.7391    6.9735  -10.6536 H   0  0  0  0  0  0  0  0  0  0  0  0
   11.0889    8.4916  -11.1567 H   0  0  0  0  0  0  0  0  0  0  0  0
   10.5170    6.6897  -12.7281 H   0  0  0  0  0  0  0  0  0  0  0  0
    9.1193    7.5381  -12.1145 H   0  0  0  0  0  0  0  0  0  0  0  0
    8.5793    5.7035  -10.5767 H   0  0  0  0  0  0  0  0  0  0  0  0
   10.0486    4.8577  -10.9749 H   0  0  0  0  0  0  0  0  0  0  0  0
    6.6491    5.4386  -11.8801 H   0  0  0  0  0  0  0  0  0  0  0  0
    7.1187    3.8185  -11.4062 H   0  0  0  0  0  0  0  0  0  0  0  0
    6.4254    4.7546  -14.2405 H   0  0  0  0  0  0  0  0  0  0  0  0
    5.4393    3.7351  -13.2445 H   0  0  0  0  0  0  0  0  0  0  0  0
    5.4116    1.6754  -12.4991 H   0  0  0  0  0  0  0  0  0  0  0  0
    4.0021   -0.2289  -13.0785 H   0  0  0  0  0  0  0  0  0  0  0  0
    4.3396   -1.4505  -15.2334 H   0  0  0  0  0  0  0  0  0  0  0  0
    9.1350    2.0864  -14.4615 H   0  0  0  0  0  0  0  0  0  0  0  0
    8.7803    3.6692  -15.1380 H   0  0  0  0  0  0  0  0  0  0  0  0
   10.3539    4.0152  -13.3369 H   0  0  0  0  0  0  0  0  0  0  0  0
    9.4797    2.9723  -12.2512 H   0  0  0  0  0  0  0  0  0  0  0  0
   11.5402    9.1686   -8.6972 H   0  0  0  0  0  0  0  0  0  0  0  0
   10.1050    9.8276   -9.4448 H   0  0  0  0  0  0  0  0  0  0  0  0
    8.7287    9.1862   -7.4671 H   0  0  0  0  0  0  0  0  0  0  0  0
   10.0861   10.1708   -6.9841 H   0  0  0  0  0  0  0  0  0  0  0  0
    8.5567    5.5450  -13.2595 H   0  0  0  0  0  0  0  0  0  0  0  0
  2  1  1  0
  3  2  1  0
  4  3  1  0
  5  4  1  0
  6  5  2  0
  7  5  1  0
  8  7  1  0
  9  8  1  0
 10  9  1  0
 11 10  1  0
 12 11  1  0
 13 12  1  0
 14 13  1  0
 15 14  1  0
 16 15  1  0
 17 16  1  0
 18 17  1  0
 19 18  2  0
 20 19  1  0
 21 20  2  0
 22 21  1  0
 23 22  1  0
 24 18  1  0
 24 22  2  0
 25 24  1  0
 26 17  1  0
 27 14  1  0
 27 26  1  0
 28 10  1  0
 29  7  1  0
 29 28  1  0
 30  1  1  0
 31  1  1  0
 32  1  1  0
 33  3  1  0
 34  3  1  0
 35  4  1  0
 36  4  1  0
 37  8  1  0
 38  8  1  0
 39  9  1  0
 40  9  1  0
 41 10  1  0
 42 11  1  0
 43 11  1  0
 44 12  1  0
 45 12  1  0
 46 13  1  0
 47 13  1  0
 48 15  1  0
 49 15  1  0
 50 16  1  0
 51 16  1  0
 52 19  1  0
 53 20  1  0
 54 21  1  0
 55 26  1  0
 56 26  1  0
 57 27  1  0
 58 27  1  0
 59 28  1  0
 60 28  1  0
 61 29  1  0
 62 29  1  0
 63 14  1  0
M  CHG  1  14   1
M  END
>  <b_m_subgroup_collapsed>  (1203) 
0

>  <r_i_docking_score>  (1203) 
-6.4533746141531401

>  <s_m_subgroup_title>  (1203) 
glide-dock_SP_D22_pv

>  <s_m_subgroupid>  (1203) 
glide-dock_SP_D22_pv

>  <Molecule ChEMBL ID>  (1203) 
CHEMBL5438081

>  <Standard Type>  (1203) 
Ki

>  <Standard Value>  (1203) 
19.4

>  <label>  (1203) 
1

$$$$
CHEMBL118254
     RDKit          3D

 42 45  0  0  1  0  0  0  0  0999 V2000
   14.1038    5.4946  -16.6221 C   0  0  0  0  0  0  0  0  0  0  0  0
   12.5699    5.5633  -16.7094 C   0  0  0  0  0  0  0  0  0  0  0  0
   11.8779    4.3159  -16.1687 C   0  0  0  0  0  0  0  0  0  0  0  0
   11.9697    3.1623  -16.9798 C   0  0  0  0  0  0  0  0  0  0  0  0
   11.2883    1.9823  -16.6451 C   0  0  0  0  0  0  0  0  0  0  0  0
   10.4623    1.9628  -15.5135 C   0  0  0  0  0  0  0  0  0  0  0  0
   10.3548    3.1076  -14.6993 C   0  0  0  0  0  0  0  0  0  0  0  0
   11.1101    4.2815  -14.9613 C   0  0  0  0  0  0  0  0  0  0  0  0
   11.0295    5.3681  -13.9423 C   0  0  0  0  0  0  0  0  0  0  0  0
   12.0858    6.2768  -13.6810 C   0  0  0  0  0  0  0  0  0  0  0  0
   12.0394    7.2605  -12.6777 C   0  0  0  0  0  0  0  0  0  0  0  0
   10.9224    7.3512  -11.8374 C   0  0  0  0  0  0  0  0  0  0  0  0
    9.8582    6.4506  -12.0049 C   0  0  0  0  0  0  0  0  0  0  0  0
    9.9252    5.4946  -13.0550 C   0  0  0  0  0  0  0  0  0  0  0  0
    8.7704    4.5055  -13.3171 C   0  0  1  0  0  0  0  0  0  0  0  0
    9.3479    3.0958  -13.5651 C   0  0  0  0  0  0  0  0  0  0  0  0
    7.6825    4.4921  -12.2984 N   0  0  2  0  0  0  0  0  0  0  0  0
    6.4242    3.8540  -12.7626 C   0  0  0  0  0  0  0  0  0  0  0  0
    7.4095    5.8338  -11.7657 C   0  0  0  0  0  0  0  0  0  0  0  0
    8.6618    6.3613  -11.0832 C   0  0  0  0  0  0  0  0  0  0  0  0
   14.5540    6.4047  -17.0180 H   0  0  0  0  0  0  0  0  0  0  0  0
   14.4946    4.6561  -17.1990 H   0  0  0  0  0  0  0  0  0  0  0  0
   14.4552    5.3724  -15.5987 H   0  0  0  0  0  0  0  0  0  0  0  0
   12.1811    6.4723  -16.2540 H   0  0  0  0  0  0  0  0  0  0  0  0
   12.2933    5.6601  -17.7600 H   0  0  0  0  0  0  0  0  0  0  0  0
   12.5611    3.1854  -17.8829 H   0  0  0  0  0  0  0  0  0  0  0  0
   11.3692    1.1096  -17.2757 H   0  0  0  0  0  0  0  0  0  0  0  0
    9.8967    1.0709  -15.2835 H   0  0  0  0  0  0  0  0  0  0  0  0
   13.0018    6.2133  -14.2389 H   0  0  0  0  0  0  0  0  0  0  0  0
   12.8825    7.9212  -12.5330 H   0  0  0  0  0  0  0  0  0  0  0  0
   10.9012    8.0832  -11.0426 H   0  0  0  0  0  0  0  0  0  0  0  0
    8.3112    4.8511  -14.2459 H   0  0  0  0  0  0  0  0  0  0  0  0
    8.5657    2.3820  -13.8191 H   0  0  0  0  0  0  0  0  0  0  0  0
    9.8412    2.7297  -12.6651 H   0  0  0  0  0  0  0  0  0  0  0  0
    6.0001    4.3937  -13.6108 H   0  0  0  0  0  0  0  0  0  0  0  0
    5.6815    3.8503  -11.9630 H   0  0  0  0  0  0  0  0  0  0  0  0
    6.5642    2.8168  -13.0596 H   0  0  0  0  0  0  0  0  0  0  0  0
    7.0859    6.5084  -12.5595 H   0  0  0  0  0  0  0  0  0  0  0  0
    6.5944    5.7722  -11.0470 H   0  0  0  0  0  0  0  0  0  0  0  0
    8.9233    5.7283  -10.2345 H   0  0  0  0  0  0  0  0  0  0  0  0
    8.4863    7.3562  -10.6756 H   0  0  0  0  0  0  0  0  0  0  0  0
    8.0215    3.9535  -11.5141 H   0  0  0  0  0  0  0  0  0  0  0  0
  2  1  1  0
  3  2  1  0
  4  3  1  0
  5  4  2  0
  6  5  1  0
  7  6  2  0
  8  3  2  0
  8  7  1  0
  9  8  1  0
 10  9  1  0
 11 10  2  0
 12 11  1  0
 13 12  2  0
 14  9  2  0
 14 13  1  0
 15 14  1  0
 16  7  1  0
 16 15  1  0
 17 15  1  0
 18 17  1  0
 19 17  1  0
 20 13  1  0
 20 19  1  0
 21  1  1  0
 22  1  1  0
 23  1  1  0
 24  2  1  0
 25  2  1  0
 26  4  1  0
 27  5  1  0
 28  6  1  0
 29 10  1  0
 30 11  1  0
 31 12  1  0
 15 32  1  6
 33 16  1  0
 34 16  1  0
 35 18  1  0
 36 18  1  0
 37 18  1  0
 38 19  1  0
 39 19  1  0
 40 20  1  0
 41 20  1  0
 17 42  1  1
M  CHG  1  17   1
M  END
>  <b_m_subgroup_collapsed>  (1204) 
0

>  <r_i_docking_score>  (1204) 
-6.45179170469574

>  <s_m_subgroup_title>  (1204) 
glide-dock_SP_D22_pv

>  <s_m_subgroupid>  (1204) 
glide-dock_SP_D22_pv

>  <Molecule ChEMBL ID>  (1204) 
CHEMBL118254

>  <Standard Type>  (1204) 
Ki

>  <Standard Value>  (1204) 
79.2

>  <label>  (1204) 
1

$$$$
CHEMBL609611
     RDKit          3D

 44 48  0  0  1  0  0  0  0  0999 V2000
    9.4644    0.8952  -15.5553 C   0  0  0  0  0  0  0  0  0  0  0  0
    8.6435    2.1446  -15.9093 C   0  0  1  0  0  0  0  0  0  0  0  0
    7.1825    2.0522  -15.4166 C   0  0  0  0  0  0  0  0  0  0  0  0
    7.2083    2.9741  -14.2470 C   0  0  0  0  0  0  0  0  0  0  0  0
    6.1906    3.1848  -13.3090 C   0  0  0  0  0  0  0  0  0  0  0  0
    6.4774    4.0515  -12.2411 C   0  0  0  0  0  0  0  0  0  0  0  0
    7.7340    4.6987  -12.1524 C   0  0  0  0  0  0  0  0  0  0  0  0
    8.7130    4.5832  -13.1707 C   0  0  0  0  0  0  0  0  0  0  0  0
    8.4215    3.6487  -14.2013 C   0  0  0  0  0  0  0  0  0  0  0  0
    9.2265    3.2755  -15.2444 O   0  0  0  0  0  0  0  0  0  0  0  0
    9.9425    5.4251  -13.0903 C   0  0  0  0  0  0  0  0  0  0  0  0
   10.9996    5.3374  -14.0337 C   0  0  0  0  0  0  0  0  0  0  0  0
   12.1144    6.1906  -14.0240 C   0  0  0  0  0  0  0  0  0  0  0  0
   12.2593    7.1570  -13.0218 C   0  0  0  0  0  0  0  0  0  0  0  0
   11.2789    7.2826  -12.0278 C   0  0  0  0  0  0  0  0  0  0  0  0
   10.1306    6.4421  -12.1042 C   0  0  0  0  0  0  0  0  0  0  0  0
    8.9510    6.6924  -11.1486 C   0  0  1  0  0  0  0  0  0  0  0  0
    8.0737    5.4628  -10.8967 C   0  0  0  0  0  0  0  0  0  0  0  0
    9.2856    7.4096   -9.8870 N   0  0  1  0  0  0  0  0  0  0  0  0
    9.8066    6.5746   -8.7741 C   0  0  0  0  0  0  0  0  0  0  0  0
   10.0967    8.5993  -10.1663 C   0  0  0  0  0  0  0  0  0  0  0  0
   11.4182    8.1752  -10.7986 C   0  0  0  0  0  0  0  0  0  0  0  0
    9.0542    0.0046  -16.0305 H   0  0  0  0  0  0  0  0  0  0  0  0
    9.4751    0.7236  -14.4788 H   0  0  0  0  0  0  0  0  0  0  0  0
   10.4990    1.0022  -15.8826 H   0  0  0  0  0  0  0  0  0  0  0  0
    8.6691    2.3019  -16.9880 H   0  0  0  0  0  0  0  0  0  0  0  0
    6.4864    2.4317  -16.1640 H   0  0  0  0  0  0  0  0  0  0  0  0
    6.8838    1.0425  -15.1318 H   0  0  0  0  0  0  0  0  0  0  0  0
    5.2483    2.6601  -13.3700 H   0  0  0  0  0  0  0  0  0  0  0  0
    5.7476    4.1775  -11.4527 H   0  0  0  0  0  0  0  0  0  0  0  0
   10.9806    4.6144  -14.8291 H   0  0  0  0  0  0  0  0  0  0  0  0
   12.8834    6.0799  -14.7751 H   0  0  0  0  0  0  0  0  0  0  0  0
   13.1479    7.7726  -12.9952 H   0  0  0  0  0  0  0  0  0  0  0  0
    8.3206    7.3845  -11.7111 H   0  0  0  0  0  0  0  0  0  0  0  0
    7.1715    5.7723  -10.3831 H   0  0  0  0  0  0  0  0  0  0  0  0
    8.5804    4.7454  -10.2505 H   0  0  0  0  0  0  0  0  0  0  0  0
   10.6381    5.9479   -9.0956 H   0  0  0  0  0  0  0  0  0  0  0  0
    9.0256    5.9282   -8.3725 H   0  0  0  0  0  0  0  0  0  0  0  0
   10.1504    7.1989   -7.9487 H   0  0  0  0  0  0  0  0  0  0  0  0
    9.5345    9.2422  -10.8424 H   0  0  0  0  0  0  0  0  0  0  0  0
   10.2642    9.1757   -9.2557 H   0  0  0  0  0  0  0  0  0  0  0  0
   12.0265    7.6370  -10.0714 H   0  0  0  0  0  0  0  0  0  0  0  0
   12.0013    9.0605  -11.0465 H   0  0  0  0  0  0  0  0  0  0  0  0
    8.3827    7.7614   -9.5732 H   0  0  0  0  0  0  0  0  0  0  0  0
  2  1  1  0
  3  2  1  0
  4  3  1  0
  5  4  2  0
  6  5  1  0
  7  6  2  0
  8  7  1  0
  9  4  1  0
  9  8  2  0
 10  2  1  0
 10  9  1  0
 11  8  1  0
 12 11  1  0
 13 12  2  0
 14 13  1  0
 15 14  2  0
 16 11  2  0
 16 15  1  0
 17 16  1  0
 18  7  1  0
 18 17  1  0
 19 17  1  0
 20 19  1  0
 21 19  1  0
 22 15  1  0
 22 21  1  0
 23  1  1  0
 24  1  1  0
 25  1  1  0
  2 26  1  6
 27  3  1  0
 28  3  1  0
 29  5  1  0
 30  6  1  0
 31 12  1  0
 32 13  1  0
 33 14  1  0
 17 34  1  6
 35 18  1  0
 36 18  1  0
 37 20  1  0
 38 20  1  0
 39 20  1  0
 40 21  1  0
 41 21  1  0
 42 22  1  0
 43 22  1  0
 19 44  1  1
M  CHG  1  19   1
M  END
>  <b_m_subgroup_collapsed>  (1205) 
0

>  <r_i_docking_score>  (1205) 
-6.4516287812247102

>  <s_m_subgroup_title>  (1205) 
glide-dock_SP_D22_pv

>  <s_m_subgroupid>  (1205) 
glide-dock_SP_D22_pv

>  <Molecule ChEMBL ID>  (1205) 
CHEMBL609611

>  <Standard Type>  (1205) 
Ki

>  <Standard Value>  (1205) 
10000.0

>  <label>  (1205) 
0

$$$$
CHEMBL4636881
     RDKit          3D

 57 59  0  0  1  0  0  0  0  0999 V2000
    5.3216   -0.6173  -14.8181 C   0  0  0  0  0  0  0  0  0  0  0  0
    5.7760    0.5530  -13.9526 C   0  0  0  0  0  0  0  0  0  0  0  0
    5.4855    0.5722  -12.7561 O   0  0  0  0  0  0  0  0  0  0  0  0
    6.4865    1.5068  -14.5816 N   0  0  0  0  0  0  0  0  0  0  0  0
    7.0969    2.6332  -13.9742 C   0  0  0  0  0  0  0  0  0  0  0  0
    6.3901    3.5025  -13.1061 C   0  0  0  0  0  0  0  0  0  0  0  0
    5.0549    3.3615  -12.9207 F   0  0  0  0  0  0  0  0  0  0  0  0
    7.0749    4.5159  -12.4069 C   0  0  0  0  0  0  0  0  0  0  0  0
    8.4674    4.6685  -12.5760 C   0  0  0  0  0  0  0  0  0  0  0  0
    9.2558    5.6577  -11.7697 C   0  0  0  0  0  0  0  0  0  0  0  0
   10.2519    6.2003  -12.2482 O   0  0  0  0  0  0  0  0  0  0  0  0
    8.8860    5.7943  -10.4863 N   0  0  0  0  0  0  0  0  0  0  0  0
    9.6739    6.4793   -9.4642 C   0  0  1  0  0  0  0  0  0  0  0  0
    9.6915    8.0077   -9.6765 C   0  0  0  0  0  0  0  0  0  0  0  0
   10.5150    8.6921   -8.5799 C   0  0  0  0  0  0  0  0  0  0  0  0
    9.9277    8.3843   -7.1931 C   0  0  2  0  0  0  0  0  0  0  0  0
   10.7029    9.0196   -6.1974 O   0  0  0  0  0  0  0  0  0  0  0  0
    9.9106    6.8667   -6.9502 C   0  0  0  0  0  0  0  0  0  0  0  0
    9.1402    6.1311   -8.0605 C   0  0  0  0  0  0  0  0  0  0  0  0
    9.1407    3.8714  -13.5240 C   0  0  0  0  0  0  0  0  0  0  0  0
    8.4663    2.8563  -14.2461 C   0  0  0  0  0  0  0  0  0  0  0  0
    9.0775    2.0266  -15.1689 O   0  0  0  0  0  0  0  0  0  0  0  0
   10.4722    2.1719  -15.4416 C   0  0  1  0  0  0  0  0  0  0  0  0
   10.8864    0.9549  -16.2753 C   0  0  0  0  0  0  0  0  0  0  0  0
   10.8119    3.4700  -16.1659 C   0  0  0  0  0  0  0  0  0  0  0  0
   12.0079    4.1577  -15.8598 C   0  0  0  0  0  0  0  0  0  0  0  0
   12.3173    5.3673  -16.5114 C   0  0  0  0  0  0  0  0  0  0  0  0
   11.4345    5.8951  -17.4745 C   0  0  0  0  0  0  0  0  0  0  0  0
   10.2459    5.2072  -17.7941 C   0  0  0  0  0  0  0  0  0  0  0  0
    9.9389    3.9955  -17.1438 C   0  0  0  0  0  0  0  0  0  0  0  0
    6.1486   -0.9989  -15.4216 H   0  0  0  0  0  0  0  0  0  0  0  0
    4.9534   -1.4354  -14.2011 H   0  0  0  0  0  0  0  0  0  0  0  0
    4.5175   -0.3065  -15.4854 H   0  0  0  0  0  0  0  0  0  0  0  0
    6.7882    1.2977  -15.5223 H   0  0  0  0  0  0  0  0  0  0  0  0
    6.5282    5.1483  -11.7211 H   0  0  0  0  0  0  0  0  0  0  0  0
    8.0331    5.3458  -10.1838 H   0  0  0  0  0  0  0  0  0  0  0  0
   10.7000    6.1128   -9.5319 H   0  0  0  0  0  0  0  0  0  0  0  0
    8.6736    8.3994   -9.6702 H   0  0  0  0  0  0  0  0  0  0  0  0
   10.1129    8.2642  -10.6489 H   0  0  0  0  0  0  0  0  0  0  0  0
   10.5351    9.7604   -8.7631 H   0  0  0  0  0  0  0  0  0  0  0  0
   11.5512    8.3541   -8.6372 H   0  0  0  0  0  0  0  0  0  0  0  0
    8.9085    8.7731   -7.1319 H   0  0  0  0  0  0  0  0  0  0  0  0
   11.5884    8.6945   -6.2511 H   0  0  0  0  0  0  0  0  0  0  0  0
   10.9304    6.4815   -6.9040 H   0  0  0  0  0  0  0  0  0  0  0  0
    9.4546    6.6460   -5.9836 H   0  0  0  0  0  0  0  0  0  0  0  0
    8.0859    6.3954   -7.9978 H   0  0  0  0  0  0  0  0  0  0  0  0
    9.1954    5.0550   -7.8911 H   0  0  0  0  0  0  0  0  0  0  0  0
   10.1996    4.0305  -13.6494 H   0  0  0  0  0  0  0  0  0  0  0  0
   11.0227    2.1241  -14.5001 H   0  0  0  0  0  0  0  0  0  0  0  0
   11.9554    0.9725  -16.4893 H   0  0  0  0  0  0  0  0  0  0  0  0
   10.6687    0.0275  -15.7435 H   0  0  0  0  0  0  0  0  0  0  0  0
   10.3543    0.9265  -17.2265 H   0  0  0  0  0  0  0  0  0  0  0  0
   12.6878    3.7668  -15.1161 H   0  0  0  0  0  0  0  0  0  0  0  0
   13.2267    5.8963  -16.2640 H   0  0  0  0  0  0  0  0  0  0  0  0
   11.6715    6.8254  -17.9711 H   0  0  0  0  0  0  0  0  0  0  0  0
    9.5696    5.6112  -18.5346 H   0  0  0  0  0  0  0  0  0  0  0  0
    9.0243    3.4752  -17.3879 H   0  0  0  0  0  0  0  0  0  0  0  0
  2  1  1  0
  3  2  2  0
  4  2  1  0
  5  4  1  0
  6  5  1  0
  7  6  1  0
  8  6  2  0
  9  8  1  0
 10  9  1  0
 11 10  2  0
 12 10  1  0
 13 12  1  0
 14 13  1  0
 15 14  1  0
 16 15  1  0
 17 16  1  0
 18 16  1  0
 19 13  1  0
 19 18  1  0
 20  9  2  0
 21  5  2  0
 21 20  1  0
 22 21  1  0
 23 22  1  0
 24 23  1  0
 25 23  1  0
 26 25  2  0
 27 26  1  0
 28 27  2  0
 29 28  1  0
 30 25  1  0
 30 29  2  0
 31  1  1  0
 32  1  1  0
 33  1  1  0
 34  4  1  0
 35  8  1  0
 36 12  1  0
 13 37  1  1
 38 14  1  0
 39 14  1  0
 40 15  1  0
 41 15  1  0
 16 42  1  6
 43 17  1  0
 44 18  1  0
 45 18  1  0
 46 19  1  0
 47 19  1  0
 48 20  1  0
 23 49  1  1
 50 24  1  0
 51 24  1  0
 52 24  1  0
 53 26  1  0
 54 27  1  0
 55 28  1  0
 56 29  1  0
 57 30  1  0
M  END
>  <b_m_subgroup_collapsed>  (1206) 
0

>  <r_i_docking_score>  (1206) 
-6.4495848411239898

>  <s_m_subgroup_title>  (1206) 
glide-dock_SP_D22_pv

>  <s_m_subgroupid>  (1206) 
glide-dock_SP_D22_pv

>  <Molecule ChEMBL ID>  (1206) 
CHEMBL4636881

>  <Standard Type>  (1206) 
Ki

>  <Standard Value>  (1206) 
100000.0

>  <label>  (1206) 
0

$$$$
CHEMBL201561
     RDKit          3D

 41 43  0  0  1  0  0  0  0  0999 V2000
   11.6245    7.7869  -10.0896 C   0  0  0  0  0  0  0  0  0  0  0  0
   10.3382    8.3464  -10.5758 N   0  0  1  0  0  0  0  0  0  0  0  0
    9.3331    7.4389  -11.1935 C   0  0  0  0  0  0  0  0  0  0  0  0
    9.7992    6.0401  -11.6382 C   0  0  0  0  0  0  0  0  0  0  0  0
    9.2887    4.8621  -10.7684 C   0  0  0  0  0  0  0  0  0  0  0  0
    9.6917    4.8059   -9.2741 C   0  0  0  0  0  0  0  0  0  0  0  0
    8.8787    5.6862   -8.3095 C   0  0  0  0  0  0  0  0  0  0  0  0
    9.6979    6.6358   -7.4762 C   0  0  0  0  0  0  0  0  0  0  0  0
   10.5294    6.1726   -6.4813 N   0  0  0  0  0  0  0  0  0  0  0  0
   10.9793    7.2007   -5.6860 C   0  0  0  0  0  0  0  0  0  0  0  0
   11.6917    7.2089   -4.4795 C   0  0  0  0  0  0  0  0  0  0  0  0
   12.0386    8.4365   -3.8736 C   0  0  0  0  0  0  0  0  0  0  0  0
   11.5846    9.6325   -4.4719 C   0  0  0  0  0  0  0  0  0  0  0  0
   10.8847    9.6122   -5.6936 C   0  0  0  0  0  0  0  0  0  0  0  0
   10.5393    8.3921   -6.3251 C   0  0  0  0  0  0  0  0  0  0  0  0
    9.7658    8.0072   -7.4745 C   0  0  0  0  0  0  0  0  0  0  0  0
    9.0170    8.9007   -8.4016 C   0  0  0  0  0  0  0  0  0  0  0  0
    9.7440    9.3724   -9.6772 C   0  0  0  0  0  0  0  0  0  0  0  0
   11.5052    7.0064   -9.3481 H   0  0  0  0  0  0  0  0  0  0  0  0
   12.2336    8.5665   -9.6318 H   0  0  0  0  0  0  0  0  0  0  0  0
   12.2192    7.3980  -10.9145 H   0  0  0  0  0  0  0  0  0  0  0  0
    8.4860    7.3286  -10.5421 H   0  0  0  0  0  0  0  0  0  0  0  0
    8.9426    7.9683  -12.0643 H   0  0  0  0  0  0  0  0  0  0  0  0
    9.3642    5.8712  -12.6234 H   0  0  0  0  0  0  0  0  0  0  0  0
   10.8648    5.9915  -11.8469 H   0  0  0  0  0  0  0  0  0  0  0  0
    8.2025    4.8058  -10.8390 H   0  0  0  0  0  0  0  0  0  0  0  0
    9.6512    3.9475  -11.2402 H   0  0  0  0  0  0  0  0  0  0  0  0
    9.5792    3.7734   -8.9394 H   0  0  0  0  0  0  0  0  0  0  0  0
   10.7449    5.0041   -9.1383 H   0  0  0  0  0  0  0  0  0  0  0  0
    8.0846    6.2136   -8.8269 H   0  0  0  0  0  0  0  0  0  0  0  0
    8.3231    5.0371   -7.6356 H   0  0  0  0  0  0  0  0  0  0  0  0
   10.6269    5.1921   -6.2536 H   0  0  0  0  0  0  0  0  0  0  0  0
   11.9881    6.2755   -4.0200 H   0  0  0  0  0  0  0  0  0  0  0  0
   12.5729    8.4689   -2.9391 H   0  0  0  0  0  0  0  0  0  0  0  0
   11.7438   10.5698   -3.9641 H   0  0  0  0  0  0  0  0  0  0  0  0
   10.5523   10.5451   -6.1249 H   0  0  0  0  0  0  0  0  0  0  0  0
    8.0888    8.4248   -8.6673 H   0  0  0  0  0  0  0  0  0  0  0  0
    8.6917    9.7719   -7.8465 H   0  0  0  0  0  0  0  0  0  0  0  0
   10.5146   10.1052   -9.4452 H   0  0  0  0  0  0  0  0  0  0  0  0
    8.9670    9.8773  -10.2467 H   0  0  0  0  0  0  0  0  0  0  0  0
   10.6446    8.8942  -11.3663 H   0  0  0  0  0  0  0  0  0  0  0  0
  2  1  1  0
  3  2  1  0
  4  3  1  0
  5  4  1  0
  6  5  1  0
  7  6  1  0
  8  7  1  0
  9  8  1  0
 10  9  1  0
 11 10  2  0
 12 11  1  0
 13 12  2  0
 14 13  1  0
 15 10  1  0
 15 14  2  0
 16  8  2  0
 16 15  1  0
 17 16  1  0
 18  2  1  0
 18 17  1  0
 19  1  1  0
 20  1  1  0
 21  1  1  0
 22  3  1  0
 23  3  1  0
 24  4  1  0
 25  4  1  0
 26  5  1  0
 27  5  1  0
 28  6  1  0
 29  6  1  0
 30  7  1  0
 31  7  1  0
 32  9  1  0
 33 11  1  0
 34 12  1  0
 35 13  1  0
 36 14  1  0
 37 17  1  0
 38 17  1  0
 39 18  1  0
 40 18  1  0
  2 41  1  6
M  CHG  1   2   1
M  END
>  <b_m_subgroup_collapsed>  (1207) 
0

>  <r_i_docking_score>  (1207) 
-6.4488390828307898

>  <s_m_subgroup_title>  (1207) 
glide-dock_SP_D22_pv

>  <s_m_subgroupid>  (1207) 
glide-dock_SP_D22_pv

>  <Molecule ChEMBL ID>  (1207) 
CHEMBL201561

>  <Standard Type>  (1207) 
Ki

>  <Standard Value>  (1207) 
10000.0

>  <label>  (1207) 
0

$$$$
CHEMBL4642292
     RDKit          3D

 33 35  0  0  1  0  0  0  0  0999 V2000
    9.6674    4.2665  -14.4017 C   0  0  0  0  0  0  0  0  0  0  0  0
   10.5534    5.3725  -13.8557 C   0  0  0  0  0  0  0  0  0  0  0  0
   11.6124    5.6166  -14.6569 N   0  0  0  0  0  0  0  0  0  0  0  0
   12.4860    6.5739  -14.3049 C   0  0  0  0  0  0  0  0  0  0  0  0
   12.3881    7.2906  -13.1045 C   0  0  0  0  0  0  0  0  0  0  0  0
   11.3113    7.0216  -12.2334 C   0  0  0  0  0  0  0  0  0  0  0  0
   10.3099    6.0988  -12.6469 C   0  0  0  0  0  0  0  0  0  0  0  0
    9.0533    5.9429  -11.7523 C   0  0  0  0  0  0  0  0  0  0  0  0
    7.7385    5.8818  -12.5579 C   0  0  0  0  0  0  0  0  0  0  0  0
    9.1888    4.6856  -10.8708 C   0  0  0  0  0  0  0  0  0  0  0  0
    8.8860    7.0874  -10.8606 N   0  0  0  0  0  0  0  0  0  0  0  0
    9.9953    7.6193  -10.2107 C   0  0  0  0  0  0  0  0  0  0  0  0
    9.8682    8.1139   -8.8961 C   0  0  0  0  0  0  0  0  0  0  0  0
   11.0086    8.5731   -8.2123 C   0  0  0  0  0  0  0  0  0  0  0  0
   10.8860    9.1955   -6.4168 Br  0  0  0  0  0  0  0  0  0  0  0  0
   12.2526    8.5723   -8.8642 C   0  0  0  0  0  0  0  0  0  0  0  0
   12.3578    8.1389  -10.1990 C   0  0  0  0  0  0  0  0  0  0  0  0
   11.2331    7.6254  -10.8835 C   0  0  0  0  0  0  0  0  0  0  0  0
    9.3056    3.6017  -13.6212 H   0  0  0  0  0  0  0  0  0  0  0  0
    8.8234    4.6931  -14.9424 H   0  0  0  0  0  0  0  0  0  0  0  0
   10.2173    3.6420  -15.1073 H   0  0  0  0  0  0  0  0  0  0  0  0
   13.3113    6.7456  -14.9800 H   0  0  0  0  0  0  0  0  0  0  0  0
   13.1563    8.0066  -12.8568 H   0  0  0  0  0  0  0  0  0  0  0  0
    7.5884    4.9463  -13.0879 H   0  0  0  0  0  0  0  0  0  0  0  0
    6.8731    5.9737  -11.8984 H   0  0  0  0  0  0  0  0  0  0  0  0
    7.6858    6.7010  -13.2755 H   0  0  0  0  0  0  0  0  0  0  0  0
    9.2861    3.7724  -11.4538 H   0  0  0  0  0  0  0  0  0  0  0  0
   10.0641    4.7443  -10.2231 H   0  0  0  0  0  0  0  0  0  0  0  0
    8.3166    4.5701  -10.2257 H   0  0  0  0  0  0  0  0  0  0  0  0
    7.9336    7.3219  -10.5364 H   0  0  0  0  0  0  0  0  0  0  0  0
    8.9073    8.1029   -8.4006 H   0  0  0  0  0  0  0  0  0  0  0  0
   13.1304    8.9366   -8.3497 H   0  0  0  0  0  0  0  0  0  0  0  0
   13.3267    8.1723  -10.6716 H   0  0  0  0  0  0  0  0  0  0  0  0
  2  1  1  0
  3  2  1  0
  4  3  2  0
  5  4  1  0
  6  5  2  0
  7  2  2  0
  7  6  1  0
  8  7  1  0
  9  8  1  0
 10  8  1  0
 11  8  1  0
 12 11  1  0
 13 12  2  0
 14 13  1  0
 15 14  1  0
 16 14  2  0
 17 16  1  0
 18  6  1  0
 18 12  1  0
 18 17  2  0
 19  1  1  0
 20  1  1  0
 21  1  1  0
 22  4  1  0
 23  5  1  0
 24  9  1  0
 25  9  1  0
 26  9  1  0
 27 10  1  0
 28 10  1  0
 29 10  1  0
 30 11  1  0
 31 13  1  0
 32 16  1  0
 33 17  1  0
M  END
>  <b_m_subgroup_collapsed>  (1208) 
0

>  <r_i_docking_score>  (1208) 
-6.4485351881856703

>  <s_m_subgroup_title>  (1208) 
glide-dock_SP_D22_pv

>  <s_m_subgroupid>  (1208) 
glide-dock_SP_D22_pv

>  <Molecule ChEMBL ID>  (1208) 
CHEMBL4642292

>  <Standard Type>  (1208) 
Ki

>  <Standard Value>  (1208) 
10000.0

>  <label>  (1208) 
0

$$$$
CHEMBL4591203
     RDKit          3D

 46 48  0  0  1  0  0  0  0  0999 V2000
    8.8845    7.4763   -6.8524 C   0  0  0  0  0  0  0  0  0  0  0  0
   10.1205    8.0258   -7.3818 N   0  0  0  0  0  0  0  0  0  0  0  0
   10.4824    8.2999   -8.6559 C   0  0  0  0  0  0  0  0  0  0  0  0
    9.4909    8.0365  -10.0816 S   0  0  0  0  0  0  0  0  0  0  0  0
    9.4689    6.2169  -10.1436 C   0  0  0  0  0  0  0  0  0  0  0  0
    8.6778    5.6921  -11.3533 C   0  0  0  0  0  0  0  0  0  0  0  0
    9.3311    6.0201  -12.7119 C   0  0  0  0  0  0  0  0  0  0  0  0
   10.2722    4.9862  -13.1509 N   0  0  0  0  0  0  0  0  0  0  0  0
   11.2201    5.5735  -14.1017 C   0  0  0  0  0  0  0  0  0  0  0  0
   12.2505    4.5165  -14.5351 C   0  0  0  0  0  0  0  0  0  0  0  0
   11.5636    3.3794  -15.1823 N   0  0  0  0  0  0  0  0  0  0  0  0
   10.5325    2.8035  -14.2925 C   0  0  0  0  0  0  0  0  0  0  0  0
    9.5514    3.8959  -13.8190 C   0  0  0  0  0  0  0  0  0  0  0  0
   11.6847    8.8593   -8.7567 N   0  0  0  0  0  0  0  0  0  0  0  0
   12.1476    8.9700   -7.4724 N   0  0  0  0  0  0  0  0  0  0  0  0
   11.2079    8.4344   -6.6932 C   0  0  0  0  0  0  0  0  0  0  0  0
   11.4181    8.3208   -5.2575 C   0  0  0  0  0  0  0  0  0  0  0  0
   11.6860    9.4791   -4.4995 C   0  0  0  0  0  0  0  0  0  0  0  0
   12.0179    9.3716   -3.1350 C   0  0  0  0  0  0  0  0  0  0  0  0
   12.0861    8.1065   -2.5226 C   0  0  0  0  0  0  0  0  0  0  0  0
   11.8095    6.9490   -3.2744 C   0  0  0  0  0  0  0  0  0  0  0  0
   11.4750    7.0539   -4.6394 C   0  0  0  0  0  0  0  0  0  0  0  0
    8.2076    7.1793   -7.6491 H   0  0  0  0  0  0  0  0  0  0  0  0
    9.0947    6.6031   -6.2341 H   0  0  0  0  0  0  0  0  0  0  0  0
    8.3797    8.2295   -6.2503 H   0  0  0  0  0  0  0  0  0  0  0  0
   10.4863    5.8436  -10.1727 H   0  0  0  0  0  0  0  0  0  0  0  0
    9.0185    5.8256   -9.2335 H   0  0  0  0  0  0  0  0  0  0  0  0
    8.5132    4.6201  -11.2463 H   0  0  0  0  0  0  0  0  0  0  0  0
    7.6851    6.1436  -11.3255 H   0  0  0  0  0  0  0  0  0  0  0  0
    8.5573    6.1623  -13.4692 H   0  0  0  0  0  0  0  0  0  0  0  0
    9.8397    6.9822  -12.6341 H   0  0  0  0  0  0  0  0  0  0  0  0
   10.6933    5.9778  -14.9686 H   0  0  0  0  0  0  0  0  0  0  0  0
   11.7437    6.4056  -13.6279 H   0  0  0  0  0  0  0  0  0  0  0  0
   12.9654    4.9509  -15.2336 H   0  0  0  0  0  0  0  0  0  0  0  0
   12.8227    4.1721  -13.6720 H   0  0  0  0  0  0  0  0  0  0  0  0
   11.1143    3.7124  -16.0227 H   0  0  0  0  0  0  0  0  0  0  0  0
    9.9915    2.0237  -14.8285 H   0  0  0  0  0  0  0  0  0  0  0  0
   11.0174    2.3205  -13.4470 H   0  0  0  0  0  0  0  0  0  0  0  0
    8.8273    3.4532  -13.1349 H   0  0  0  0  0  0  0  0  0  0  0  0
    8.9846    4.2822  -14.6683 H   0  0  0  0  0  0  0  0  0  0  0  0
   11.6593   10.4513   -4.9720 H   0  0  0  0  0  0  0  0  0  0  0  0
   12.2204   10.2625   -2.5605 H   0  0  0  0  0  0  0  0  0  0  0  0
   12.3411    8.0278   -1.4758 H   0  0  0  0  0  0  0  0  0  0  0  0
   11.8584    5.9759   -2.8064 H   0  0  0  0  0  0  0  0  0  0  0  0
   11.2911    6.1601   -5.2154 H   0  0  0  0  0  0  0  0  0  0  0  0
   12.2403    2.6703  -15.4261 H   0  0  0  0  0  0  0  0  0  0  0  0
  2  1  1  0
  3  2  1  0
  4  3  1  0
  5  4  1  0
  6  5  1  0
  7  6  1  0
  8  7  1  0
  9  8  1  0
 10  9  1  0
 11 10  1  0
 12 11  1  0
 13  8  1  0
 13 12  1  0
 14  3  2  0
 15 14  1  0
 16  2  1  0
 16 15  2  0
 17 16  1  0
 18 17  2  0
 19 18  1  0
 20 19  2  0
 21 20  1  0
 22 17  1  0
 22 21  2  0
 23  1  1  0
 24  1  1  0
 25  1  1  0
 26  5  1  0
 27  5  1  0
 28  6  1  0
 29  6  1  0
 30  7  1  0
 31  7  1  0
 32  9  1  0
 33  9  1  0
 34 10  1  0
 35 10  1  0
 36 11  1  0
 37 12  1  0
 38 12  1  0
 39 13  1  0
 40 13  1  0
 41 18  1  0
 42 19  1  0
 43 20  1  0
 44 21  1  0
 45 22  1  0
 46 11  1  0
M  CHG  1  11   1
M  END
>  <b_m_subgroup_collapsed>  (1209) 
0

>  <r_i_docking_score>  (1209) 
-6.4482817703846997

>  <s_m_subgroup_title>  (1209) 
glide-dock_SP_D22_pv

>  <s_m_subgroupid>  (1209) 
glide-dock_SP_D22_pv

>  <Molecule ChEMBL ID>  (1209) 
CHEMBL4591203

>  <Standard Type>  (1209) 
Ki

>  <Standard Value>  (1209) 
74272.0

>  <label>  (1209) 
0

$$$$
CHEMBL3966484
     RDKit          3D

 46 49  0  0  1  0  0  0  0  0999 V2000
    6.5726    0.5866  -13.7520 C   0  0  0  0  0  0  0  0  0  0  0  0
    7.9624    0.5872  -14.2472 N   0  0  0  0  0  0  0  0  0  0  0  0
    8.3072    1.7435  -15.0961 C   0  0  1  0  0  0  0  0  0  0  0  0
    8.9157    2.9055  -14.3468 C   0  0  0  0  0  0  0  0  0  0  0  0
   10.1938    2.7433  -14.9543 C   0  0  0  0  0  0  0  0  0  0  0  0
   11.2848    3.5825  -14.7123 C   0  0  0  0  0  0  0  0  0  0  0  0
   11.0155    4.6588  -13.8200 C   0  0  0  0  0  0  0  0  0  0  0  0
    9.7136    4.8572  -13.2476 C   0  0  0  0  0  0  0  0  0  0  0  0
    8.6742    3.9797  -13.5169 C   0  0  0  0  0  0  0  0  0  0  0  0
    7.4636    4.3637  -12.9137 C   0  0  0  0  0  0  0  0  0  0  0  0
    7.7888    5.5230  -12.2497 C   0  0  0  0  0  0  0  0  0  0  0  0
    9.1405    5.8358  -12.4352 N   0  0  0  0  0  0  0  0  0  0  0  0
    9.8804    7.2937  -11.8463 S   0  0  0  0  0  0  0  0  0  0  0  0
   11.1974    7.3723  -12.4954 O   0  0  0  0  0  0  0  0  0  0  0  0
    8.8864    8.3552  -12.0638 O   0  0  0  0  0  0  0  0  0  0  0  0
   10.1514    7.1154  -10.0816 C   0  0  0  0  0  0  0  0  0  0  0  0
   11.2354    7.8123   -9.5071 C   0  0  0  0  0  0  0  0  0  0  0  0
   11.4404    7.7716   -8.1141 C   0  0  0  0  0  0  0  0  0  0  0  0
   10.5695    7.0210   -7.2986 C   0  0  0  0  0  0  0  0  0  0  0  0
    9.4900    6.3219   -7.8746 C   0  0  0  0  0  0  0  0  0  0  0  0
    9.2814    6.3643   -9.2671 C   0  0  0  0  0  0  0  0  0  0  0  0
    9.7612    1.5540  -15.7771 C   0  0  2  0  0  0  0  0  0  0  0  0
   10.0133    1.7431  -17.2801 C   0  0  0  0  0  0  0  0  0  0  0  0
    9.0970    2.7500  -18.0030 C   0  0  0  0  0  0  0  0  0  0  0  0
    7.8376    2.1721  -18.2974 O   0  0  0  0  0  0  0  0  0  0  0  0
    6.4053   -0.2820  -13.1145 H   0  0  0  0  0  0  0  0  0  0  0  0
    5.8674    0.5398  -14.5831 H   0  0  0  0  0  0  0  0  0  0  0  0
    6.3575    1.4819  -13.1700 H   0  0  0  0  0  0  0  0  0  0  0  0
    8.6095    0.5714  -13.4675 H   0  0  0  0  0  0  0  0  0  0  0  0
    7.5127    2.0551  -15.7723 H   0  0  0  0  0  0  0  0  0  0  0  0
   12.2468    3.4423  -15.1839 H   0  0  0  0  0  0  0  0  0  0  0  0
   11.8158    5.3501  -13.6068 H   0  0  0  0  0  0  0  0  0  0  0  0
    6.5279    3.8342  -13.0076 H   0  0  0  0  0  0  0  0  0  0  0  0
    7.1511    6.1729  -11.6647 H   0  0  0  0  0  0  0  0  0  0  0  0
   11.8931    8.4007  -10.1298 H   0  0  0  0  0  0  0  0  0  0  0  0
   12.2637    8.3149   -7.6738 H   0  0  0  0  0  0  0  0  0  0  0  0
   10.7218    6.9890   -6.2284 H   0  0  0  0  0  0  0  0  0  0  0  0
    8.8041    5.7699   -7.2483 H   0  0  0  0  0  0  0  0  0  0  0  0
    8.4291    5.8551   -9.6869 H   0  0  0  0  0  0  0  0  0  0  0  0
   10.2891    0.6837  -15.3819 H   0  0  0  0  0  0  0  0  0  0  0  0
   11.0481    2.0589  -17.4210 H   0  0  0  0  0  0  0  0  0  0  0  0
    9.9451    0.7803  -17.7871 H   0  0  0  0  0  0  0  0  0  0  0  0
    8.9637    3.6605  -17.4172 H   0  0  0  0  0  0  0  0  0  0  0  0
    9.5562    3.0474  -18.9477 H   0  0  0  0  0  0  0  0  0  0  0  0
    7.9814    1.3904  -18.8175 H   0  0  0  0  0  0  0  0  0  0  0  0
    8.0892   -0.2544  -14.7928 H   0  0  0  0  0  0  0  0  0  0  0  0
  2  1  1  0
  3  2  1  0
  4  3  1  0
  5  4  1  0
  6  5  2  0
  7  6  1  0
  8  7  2  0
  9  4  2  0
  9  8  1  0
 10  9  1  0
 11 10  2  0
 12  8  1  0
 12 11  1  0
 13 12  1  0
 14 13  2  0
 15 13  2  0
 16 13  1  0
 17 16  2  0
 18 17  1  0
 19 18  2  0
 20 19  1  0
 21 16  1  0
 21 20  2  0
 22  3  1  0
 22  5  1  0
 23 22  1  0
 24 23  1  0
 25 24  1  0
 26  1  1  0
 27  1  1  0
 28  1  1  0
 29  2  1  0
  3 30  1  6
 31  6  1  0
 32  7  1  0
 33 10  1  0
 34 11  1  0
 35 17  1  0
 36 18  1  0
 37 19  1  0
 38 20  1  0
 39 21  1  0
 22 40  1  1
 41 23  1  0
 42 23  1  0
 43 24  1  0
 44 24  1  0
 45 25  1  0
 46  2  1  0
M  CHG  1   2   1
M  END
>  <b_m_subgroup_collapsed>  (1210) 
0

>  <r_i_docking_score>  (1210) 
-6.4468870268725098

>  <s_m_subgroup_title>  (1210) 
glide-dock_SP_D22_pv

>  <s_m_subgroupid>  (1210) 
glide-dock_SP_D22_pv

>  <Molecule ChEMBL ID>  (1210) 
CHEMBL3966484

>  <Standard Type>  (1210) 
Ki

>  <Standard Value>  (1210) 
15848.93

>  <label>  (1210) 
0

$$$$
CHEMBL4065797
     RDKit          3D

 46 48  0  0  1  0  0  0  0  0999 V2000
    9.0884    8.4526   -7.7758 C   0  0  0  0  0  0  0  0  0  0  0  0
    9.0939    6.9385   -7.5256 C   0  0  0  0  0  0  0  0  0  0  0  0
    9.6979    6.1064   -8.6667 C   0  0  0  0  0  0  0  0  0  0  0  0
    8.8861    6.1549   -9.9187 N   0  0  1  0  0  0  0  0  0  0  0  0
    9.5680    6.9619  -10.9637 C   0  0  0  0  0  0  0  0  0  0  0  0
    8.6814    7.2815  -12.1743 C   0  0  0  0  0  0  0  0  0  0  0  0
    8.6482    6.1695  -13.2359 C   0  0  0  0  0  0  0  0  0  0  0  0
    8.0178    4.9182  -12.8225 N   0  0  0  0  0  0  0  0  0  0  0  0
    8.2488    3.7570  -13.6004 C   0  0  0  0  0  0  0  0  0  0  0  0
    9.5457    3.4706  -14.0940 C   0  0  0  0  0  0  0  0  0  0  0  0
    9.8167    2.2748  -14.7843 C   0  0  0  0  0  0  0  0  0  0  0  0
    8.8092    1.3126  -14.9669 C   0  0  0  0  0  0  0  0  0  0  0  0
    9.1301    0.1354  -15.5819 O   0  0  0  0  0  0  0  0  0  0  0  0
    7.5094    1.5739  -14.4835 C   0  0  0  0  0  0  0  0  0  0  0  0
    7.2180    2.8071  -13.8469 C   0  0  0  0  0  0  0  0  0  0  0  0
    5.9288    3.0408  -13.4196 O   0  0  0  0  0  0  0  0  0  0  0  0
    5.1957    1.9023  -12.9464 C   0  0  0  0  0  0  0  0  0  0  0  0
    5.3654    0.6652  -13.8464 C   0  0  0  0  0  0  0  0  0  0  0  0
    4.5189   -0.2261  -13.8454 O   0  0  0  0  0  0  0  0  0  0  0  0
    6.4860    0.5981  -14.5780 N   0  0  0  0  0  0  0  0  0  0  0  0
    7.4425    4.7713  -11.4840 C   0  0  0  0  0  0  0  0  0  0  0  0
    8.5109    4.7906  -10.3762 C   0  0  0  0  0  0  0  0  0  0  0  0
    8.6590    8.9707   -6.9194 H   0  0  0  0  0  0  0  0  0  0  0  0
   10.0968    8.8366   -7.9309 H   0  0  0  0  0  0  0  0  0  0  0  0
    8.4868    8.7152   -8.6449 H   0  0  0  0  0  0  0  0  0  0  0  0
    8.0866    6.5898   -7.3130 H   0  0  0  0  0  0  0  0  0  0  0  0
    9.6623    6.7445   -6.6152 H   0  0  0  0  0  0  0  0  0  0  0  0
    9.7867    5.0783   -8.3098 H   0  0  0  0  0  0  0  0  0  0  0  0
   10.7260    6.4227   -8.8523 H   0  0  0  0  0  0  0  0  0  0  0  0
   10.4870    6.4712  -11.2841 H   0  0  0  0  0  0  0  0  0  0  0  0
    9.8663    7.9105  -10.5164 H   0  0  0  0  0  0  0  0  0  0  0  0
    9.0836    8.1776  -12.6468 H   0  0  0  0  0  0  0  0  0  0  0  0
    7.6845    7.5645  -11.8595 H   0  0  0  0  0  0  0  0  0  0  0  0
    9.6685    6.0111  -13.5756 H   0  0  0  0  0  0  0  0  0  0  0  0
    8.0860    6.5108  -14.0999 H   0  0  0  0  0  0  0  0  0  0  0  0
   10.3759    4.1357  -13.9180 H   0  0  0  0  0  0  0  0  0  0  0  0
   10.8185    2.0761  -15.1366 H   0  0  0  0  0  0  0  0  0  0  0  0
    8.4782   -0.5469  -15.5189 H   0  0  0  0  0  0  0  0  0  0  0  0
    4.1404    2.1705  -12.8895 H   0  0  0  0  0  0  0  0  0  0  0  0
    5.5205    1.6559  -11.9349 H   0  0  0  0  0  0  0  0  0  0  0  0
    6.6294   -0.2142  -15.1578 H   0  0  0  0  0  0  0  0  0  0  0  0
    6.6850    5.5376  -11.3151 H   0  0  0  0  0  0  0  0  0  0  0  0
    6.9152    3.8224  -11.4055 H   0  0  0  0  0  0  0  0  0  0  0  0
    9.3961    4.2254  -10.6744 H   0  0  0  0  0  0  0  0  0  0  0  0
    8.0869    4.2651   -9.5194 H   0  0  0  0  0  0  0  0  0  0  0  0
    8.0152    6.6393   -9.7071 H   0  0  0  0  0  0  0  0  0  0  0  0
  2  1  1  0
  3  2  1  0
  4  3  1  0
  5  4  1  0
  6  5  1  0
  7  6  1  0
  8  7  1  0
  9  8  1  0
 10  9  1  0
 11 10  2  0
 12 11  1  0
 13 12  1  0
 14 12  2  0
 15  9  2  0
 15 14  1  0
 16 15  1  0
 17 16  1  0
 18 17  1  0
 19 18  2  0
 20 14  1  0
 20 18  1  0
 21  8  1  0
 22  4  1  0
 22 21  1  0
 23  1  1  0
 24  1  1  0
 25  1  1  0
 26  2  1  0
 27  2  1  0
 28  3  1  0
 29  3  1  0
 30  5  1  0
 31  5  1  0
 32  6  1  0
 33  6  1  0
 34  7  1  0
 35  7  1  0
 36 10  1  0
 37 11  1  0
 38 13  1  0
 39 17  1  0
 40 17  1  0
 41 20  1  0
 42 21  1  0
 43 21  1  0
 44 22  1  0
 45 22  1  0
  4 46  1  1
M  CHG  1   4   1
M  END
>  <b_m_subgroup_collapsed>  (1211) 
0

>  <r_i_docking_score>  (1211) 
-6.4449227040831403

>  <s_m_subgroup_title>  (1211) 
glide-dock_SP_D22_pv

>  <s_m_subgroupid>  (1211) 
glide-dock_SP_D22_pv

>  <Molecule ChEMBL ID>  (1211) 
CHEMBL4065797

>  <Standard Type>  (1211) 
Ki

>  <Standard Value>  (1211) 
56.0

>  <label>  (1211) 
1

$$$$
CHEMBL4444268
     RDKit          3D

 30 32  0  0  1  0  0  0  0  0999 V2000
   11.4440    6.7758  -12.6420 C   0  0  0  0  0  0  0  0  0  0  0  0
   11.2857    5.8870  -13.7781 N   0  0  0  0  0  0  0  0  0  0  0  0
   12.2380    5.6221  -14.6835 C   0  0  0  0  0  0  0  0  0  0  0  0
   11.8625    4.8123  -15.6607 N   0  0  0  0  0  0  0  0  0  0  0  0
   10.5351    4.5259  -15.3588 C   0  0  0  0  0  0  0  0  0  0  0  0
   10.1614    5.1554  -14.1890 C   0  0  0  0  0  0  0  0  0  0  0  0
    8.8766    5.1534  -13.4738 C   0  0  0  0  0  0  0  0  0  0  0  0
    8.3919    6.1447  -12.6484 C   0  0  0  0  0  0  0  0  0  0  0  0
    7.1691    5.7858  -12.1311 N   0  0  0  0  0  0  0  0  0  0  0  0
    6.7872    4.5632  -12.6203 C   0  0  0  0  0  0  0  0  0  0  0  0
    5.6404    3.7974  -12.3890 C   0  0  0  0  0  0  0  0  0  0  0  0
    5.5021    2.5458  -13.0066 C   0  0  0  0  0  0  0  0  0  0  0  0
    6.5205    2.0495  -13.8468 C   0  0  0  0  0  0  0  0  0  0  0  0
    6.3748    0.6522  -14.3974 C   0  0  0  0  0  0  0  0  0  0  0  0
    7.4969    0.0089  -14.7174 N   0  0  0  0  0  0  0  0  0  0  0  0
    5.2767    0.1043  -14.4613 O   0  0  0  0  0  0  0  0  0  0  0  0
    7.6661    2.8589  -14.1007 C   0  0  0  0  0  0  0  0  0  0  0  0
    8.6507    2.3893  -14.9020 F   0  0  0  0  0  0  0  0  0  0  0  0
    7.8399    4.1307  -13.4814 C   0  0  0  0  0  0  0  0  0  0  0  0
   10.8885    6.3997  -11.7832 H   0  0  0  0  0  0  0  0  0  0  0  0
   12.4954    6.8503  -12.3678 H   0  0  0  0  0  0  0  0  0  0  0  0
   11.0821    7.7714  -12.9010 H   0  0  0  0  0  0  0  0  0  0  0  0
   13.2314    6.0445  -14.6331 H   0  0  0  0  0  0  0  0  0  0  0  0
    9.9591    3.9002  -16.0212 H   0  0  0  0  0  0  0  0  0  0  0  0
    8.8124    7.0991  -12.3710 H   0  0  0  0  0  0  0  0  0  0  0  0
    6.6673    6.3739  -11.4635 H   0  0  0  0  0  0  0  0  0  0  0  0
    4.8869    4.1720  -11.7131 H   0  0  0  0  0  0  0  0  0  0  0  0
    4.6205    1.9536  -12.8017 H   0  0  0  0  0  0  0  0  0  0  0  0
    8.3770    0.5016  -14.6559 H   0  0  0  0  0  0  0  0  0  0  0  0
    7.4581   -0.9478  -15.0492 H   0  0  0  0  0  0  0  0  0  0  0  0
  2  1  1  0
  3  2  1  0
  4  3  2  0
  5  4  1  0
  6  2  1  0
  6  5  2  0
  7  6  1  0
  8  7  2  0
  9  8  1  0
 10  9  1  0
 11 10  2  0
 12 11  1  0
 13 12  2  0
 14 13  1  0
 15 14  1  0
 16 14  2  0
 17 13  1  0
 18 17  1  0
 19  7  1  0
 19 10  1  0
 19 17  2  0
 20  1  1  0
 21  1  1  0
 22  1  1  0
 23  3  1  0
 24  5  1  0
 25  8  1  0
 26  9  1  0
 27 11  1  0
 28 12  1  0
 29 15  1  0
 30 15  1  0
M  END
>  <b_m_subgroup_collapsed>  (1212) 
0

>  <r_i_docking_score>  (1212) 
-6.44318136206308

>  <s_m_subgroup_title>  (1212) 
glide-dock_SP_D22_pv

>  <s_m_subgroupid>  (1212) 
glide-dock_SP_D22_pv

>  <Molecule ChEMBL ID>  (1212) 
CHEMBL4444268

>  <Standard Type>  (1212) 
Ki

>  <Standard Value>  (1212) 
10000.0

>  <label>  (1212) 
0

$$$$
CHEMBL3287393
     RDKit          3D

 53 56  0  0  1  0  0  0  0  0999 V2000
   10.0842    0.2365  -15.6996 Cl  0  0  0  0  0  0  0  0  0  0  0  0
    8.7662    1.1090  -14.9994 C   0  0  0  0  0  0  0  0  0  0  0  0
    7.4991    0.5009  -14.9539 C   0  0  0  0  0  0  0  0  0  0  0  0
    6.4127    1.1821  -14.3817 C   0  0  0  0  0  0  0  0  0  0  0  0
    6.5860    2.4723  -13.8477 C   0  0  0  0  0  0  0  0  0  0  0  0
    7.8626    3.0854  -13.8476 C   0  0  0  0  0  0  0  0  0  0  0  0
    8.0799    4.3023  -13.1670 N   0  0  0  0  0  0  0  0  0  0  0  0
    6.9787    5.2301  -12.9516 C   0  0  0  0  0  0  0  0  0  0  0  0
    7.5393    6.6155  -12.5691 C   0  0  0  0  0  0  0  0  0  0  0  0
    8.4862    6.5731  -11.4190 N   0  0  0  0  0  0  0  0  0  0  0  0
    9.1471    7.8892  -11.1885 C   0  0  0  0  0  0  0  0  0  0  0  0
    9.7387    8.0716   -9.7690 C   0  0  0  0  0  0  0  0  0  0  0  0
   11.2051    7.6107   -9.6011 C   0  0  0  0  0  0  0  0  0  0  0  0
   11.8588    8.0808   -8.2960 C   0  0  0  0  0  0  0  0  0  0  0  0
   11.1401    7.5835   -7.1639 O   0  0  0  0  0  0  0  0  0  0  0  0
   11.1460    8.4094   -6.0628 C   0  0  0  0  0  0  0  0  0  0  0  0
   10.8248    9.7428   -6.1254 C   0  0  0  0  0  0  0  0  0  0  0  0
   10.8965   10.5553   -4.9801 C   0  0  0  0  0  0  0  0  0  0  0  0
   11.3460   10.0442   -3.7884 C   0  0  0  0  0  0  0  0  0  0  0  0
   11.6767    8.6767   -3.7007 C   0  0  0  0  0  0  0  0  0  0  0  0
   12.0870    7.8490   -2.6989 C   0  0  0  0  0  0  0  0  0  0  0  0
   12.0848    6.5724   -3.2993 C   0  0  0  0  0  0  0  0  0  0  0  0
   11.7440    6.5726   -4.5700 N   0  0  0  0  0  0  0  0  0  0  0  0
   11.5125    7.8848   -4.8560 N   0  0  0  0  0  0  0  0  0  0  0  0
    9.4572    5.4491  -11.4797 C   0  0  0  0  0  0  0  0  0  0  0  0
    8.8322    4.1313  -11.9335 C   0  0  0  0  0  0  0  0  0  0  0  0
    8.9514    2.4027  -14.4612 C   0  0  0  0  0  0  0  0  0  0  0  0
   10.5198    3.1391  -14.5553 Cl  0  0  0  0  0  0  0  0  0  0  0  0
    7.3605   -0.4927  -15.3566 H   0  0  0  0  0  0  0  0  0  0  0  0
    5.4417    0.7101  -14.3481 H   0  0  0  0  0  0  0  0  0  0  0  0
    5.7367    2.9532  -13.3863 H   0  0  0  0  0  0  0  0  0  0  0  0
    6.3400    4.8616  -12.1466 H   0  0  0  0  0  0  0  0  0  0  0  0
    6.3520    5.2874  -13.8408 H   0  0  0  0  0  0  0  0  0  0  0  0
    6.7190    7.2812  -12.2954 H   0  0  0  0  0  0  0  0  0  0  0  0
    8.0449    7.0396  -13.4354 H   0  0  0  0  0  0  0  0  0  0  0  0
    8.3966    8.6686  -11.3260 H   0  0  0  0  0  0  0  0  0  0  0  0
    9.9006    8.0785  -11.9544 H   0  0  0  0  0  0  0  0  0  0  0  0
    9.0953    7.6008   -9.0230 H   0  0  0  0  0  0  0  0  0  0  0  0
    9.7084    9.1383   -9.5407 H   0  0  0  0  0  0  0  0  0  0  0  0
   11.8004    7.9857  -10.4344 H   0  0  0  0  0  0  0  0  0  0  0  0
   11.2854    6.5310   -9.6326 H   0  0  0  0  0  0  0  0  0  0  0  0
   11.9496    9.1657   -8.3286 H   0  0  0  0  0  0  0  0  0  0  0  0
   12.8819    7.7074   -8.2440 H   0  0  0  0  0  0  0  0  0  0  0  0
   10.4820   10.1694   -7.0527 H   0  0  0  0  0  0  0  0  0  0  0  0
   10.6402   11.6008   -5.0466 H   0  0  0  0  0  0  0  0  0  0  0  0
   11.4447   10.6643   -2.9054 H   0  0  0  0  0  0  0  0  0  0  0  0
   12.3057    8.1020   -1.6728 H   0  0  0  0  0  0  0  0  0  0  0  0
   12.3340    5.6421   -2.8151 H   0  0  0  0  0  0  0  0  0  0  0  0
   10.2800    5.7081  -12.1488 H   0  0  0  0  0  0  0  0  0  0  0  0
    9.8671    5.2735  -10.4896 H   0  0  0  0  0  0  0  0  0  0  0  0
    8.1423    3.7760  -11.1675 H   0  0  0  0  0  0  0  0  0  0  0  0
    9.6111    3.3730  -12.0231 H   0  0  0  0  0  0  0  0  0  0  0  0
    7.8751    6.4319  -10.6211 H   0  0  0  0  0  0  0  0  0  0  0  0
  2  1  1  0
  3  2  1  0
  4  3  2  0
  5  4  1  0
  6  5  2  0
  7  6  1  0
  8  7  1  0
  9  8  1  0
 10  9  1  0
 11 10  1  0
 12 11  1  0
 13 12  1  0
 14 13  1  0
 15 14  1  0
 16 15  1  0
 17 16  2  0
 18 17  1  0
 19 18  2  0
 20 19  1  0
 21 20  2  0
 22 21  1  0
 23 22  2  0
 24 16  1  0
 24 20  1  0
 24 23  1  0
 25 10  1  0
 26  7  1  0
 26 25  1  0
 27  2  2  0
 27  6  1  0
 28 27  1  0
 29  3  1  0
 30  4  1  0
 31  5  1  0
 32  8  1  0
 33  8  1  0
 34  9  1  0
 35  9  1  0
 36 11  1  0
 37 11  1  0
 38 12  1  0
 39 12  1  0
 40 13  1  0
 41 13  1  0
 42 14  1  0
 43 14  1  0
 44 17  1  0
 45 18  1  0
 46 19  1  0
 47 21  1  0
 48 22  1  0
 49 25  1  0
 50 25  1  0
 51 26  1  0
 52 26  1  0
 53 10  1  0
M  CHG  1  10   1
M  END
>  <b_m_subgroup_collapsed>  (1213) 
0

>  <r_i_docking_score>  (1213) 
-6.4408209982100102

>  <s_m_subgroup_title>  (1213) 
glide-dock_SP_D22_pv

>  <s_m_subgroupid>  (1213) 
glide-dock_SP_D22_pv

>  <Molecule ChEMBL ID>  (1213) 
CHEMBL3287393

>  <Standard Type>  (1213) 
Ki

>  <Standard Value>  (1213) 
16.0

>  <label>  (1213) 
1

$$$$
CHEMBL1632223
     RDKit          3D

 67 71  0  0  1  0  0  0  0  0999 V2000
    3.4024   -0.7722  -14.5155 C   0  0  0  0  0  0  0  0  0  0  0  0
    4.7419   -0.3121  -15.0444 C   0  0  0  0  0  0  0  0  0  0  0  0
    5.6278    0.4312  -14.2431 C   0  0  0  0  0  0  0  0  0  0  0  0
    6.8179    0.8962  -14.8294 C   0  0  0  0  0  0  0  0  0  0  0  0
    7.0954    0.5958  -16.1850 C   0  0  0  0  0  0  0  0  0  0  0  0
    8.2545    1.0907  -16.8431 C   0  0  0  0  0  0  0  0  0  0  0  0
    9.1616    1.9419  -16.1939 N   0  0  0  0  0  0  0  0  0  0  0  0
   10.0863    1.4298  -15.1994 C   0  0  0  0  0  0  0  0  0  0  0  0
   10.2310    2.4434  -14.0462 C   0  0  0  0  0  0  0  0  0  0  0  0
   10.4103    3.8510  -14.5089 N   0  0  0  0  0  0  0  0  0  0  0  0
   10.4680    4.8473  -13.4040 C   0  0  0  0  0  0  0  0  0  0  0  0
    9.1770    4.9806  -12.5555 C   0  0  0  0  0  0  0  0  0  0  0  0
    9.2545    6.1636  -11.6088 C   0  0  0  0  0  0  0  0  0  0  0  0
    8.8890    7.4451  -12.0621 C   0  0  0  0  0  0  0  0  0  0  0  0
    9.0279    8.5706  -11.2354 C   0  0  0  0  0  0  0  0  0  0  0  0
    9.4951    8.4165   -9.9192 C   0  0  0  0  0  0  0  0  0  0  0  0
    9.8122    7.1262   -9.4300 C   0  0  0  0  0  0  0  0  0  0  0  0
   10.2012    6.8782   -8.0921 N   0  0  0  0  0  0  0  0  0  0  0  0
   10.7301    7.7372   -7.2104 C   0  0  0  0  0  0  0  0  0  0  0  0
   11.1305    8.8691   -7.4813 O   0  0  0  0  0  0  0  0  0  0  0  0
   10.8225    7.1645   -6.0023 N   0  0  0  0  0  0  0  0  0  0  0  0
   11.2882    7.7346   -4.7957 C   0  0  0  0  0  0  0  0  0  0  0  0
   11.7143    6.8353   -3.8001 C   0  0  0  0  0  0  0  0  0  0  0  0
   12.1683    7.3082   -2.5579 C   0  0  0  0  0  0  0  0  0  0  0  0
   12.1806    8.6885   -2.2937 C   0  0  0  0  0  0  0  0  0  0  0  0
   11.7295    9.5917   -3.2726 C   0  0  0  0  0  0  0  0  0  0  0  0
   11.2894    9.1249   -4.5253 C   0  0  0  0  0  0  0  0  0  0  0  0
    9.6867    6.0056  -10.2780 C   0  0  0  0  0  0  0  0  0  0  0  0
    9.4833    4.2654  -15.5954 C   0  0  0  0  0  0  0  0  0  0  0  0
    9.4451    3.2517  -16.7463 C   0  0  0  0  0  0  0  0  0  0  0  0
    8.4710    0.7724  -18.2002 C   0  0  0  0  0  0  0  0  0  0  0  0
    7.5541   -0.0298  -18.8984 C   0  0  0  0  0  0  0  0  0  0  0  0
    6.4010   -0.5014  -18.2484 C   0  0  0  0  0  0  0  0  0  0  0  0
    6.1481   -0.1961  -16.8960 C   0  0  0  0  0  0  0  0  0  0  0  0
    5.0016   -0.6281  -16.3269 N   0  0  0  0  0  0  0  0  0  0  0  0
    3.3195   -0.6322  -13.4394 H   0  0  0  0  0  0  0  0  0  0  0  0
    2.5926   -0.2241  -14.9977 H   0  0  0  0  0  0  0  0  0  0  0  0
    3.2771   -1.8278  -14.7386 H   0  0  0  0  0  0  0  0  0  0  0  0
    5.3896    0.6718  -13.2176 H   0  0  0  0  0  0  0  0  0  0  0  0
    7.4864    1.4984  -14.2381 H   0  0  0  0  0  0  0  0  0  0  0  0
   11.0521    1.2657  -15.6805 H   0  0  0  0  0  0  0  0  0  0  0  0
    9.7561    0.4628  -14.8183 H   0  0  0  0  0  0  0  0  0  0  0  0
   11.0922    2.1595  -13.4466 H   0  0  0  0  0  0  0  0  0  0  0  0
    9.3516    2.3738  -13.4088 H   0  0  0  0  0  0  0  0  0  0  0  0
   10.7229    5.8155  -13.8374 H   0  0  0  0  0  0  0  0  0  0  0  0
   11.2926    4.5819  -12.7482 H   0  0  0  0  0  0  0  0  0  0  0  0
    9.0015    4.0769  -11.9712 H   0  0  0  0  0  0  0  0  0  0  0  0
    8.2930    5.1219  -13.1752 H   0  0  0  0  0  0  0  0  0  0  0  0
    8.4852    7.5749  -13.0468 H   0  0  0  0  0  0  0  0  0  0  0  0
    8.7243    9.5401  -11.5991 H   0  0  0  0  0  0  0  0  0  0  0  0
    9.5497    9.2906   -9.2884 H   0  0  0  0  0  0  0  0  0  0  0  0
   10.0203    5.9424   -7.7645 H   0  0  0  0  0  0  0  0  0  0  0  0
   10.5530    6.1940   -5.9388 H   0  0  0  0  0  0  0  0  0  0  0  0
   11.7031    5.7723   -3.9877 H   0  0  0  0  0  0  0  0  0  0  0  0
   12.5000    6.6035   -1.8111 H   0  0  0  0  0  0  0  0  0  0  0  0
   12.5183    9.0571   -1.3359 H   0  0  0  0  0  0  0  0  0  0  0  0
   11.7062   10.6464   -3.0474 H   0  0  0  0  0  0  0  0  0  0  0  0
   10.9349    9.8427   -5.2501 H   0  0  0  0  0  0  0  0  0  0  0  0
    9.9331    5.0212   -9.9085 H   0  0  0  0  0  0  0  0  0  0  0  0
    8.4869    4.3470  -15.1720 H   0  0  0  0  0  0  0  0  0  0  0  0
    9.7581    5.2509  -15.9733 H   0  0  0  0  0  0  0  0  0  0  0  0
   10.4026    3.2236  -17.2700 H   0  0  0  0  0  0  0  0  0  0  0  0
    8.6867    3.5378  -17.4760 H   0  0  0  0  0  0  0  0  0  0  0  0
    9.3463    1.1444  -18.7124 H   0  0  0  0  0  0  0  0  0  0  0  0
    7.7278   -0.2739  -19.9372 H   0  0  0  0  0  0  0  0  0  0  0  0
    5.6874   -1.1030  -18.7946 H   0  0  0  0  0  0  0  0  0  0  0  0
   11.3239    3.8665  -14.9390 H   0  0  0  0  0  0  0  0  0  0  0  0
  2  1  1  0
  3  2  1  0
  4  3  2  0
  5  4  1  0
  6  5  2  0
  7  6  1  0
  8  7  1  0
  9  8  1  0
 10  9  1  0
 11 10  1  0
 12 11  1  0
 13 12  1  0
 14 13  2  0
 15 14  1  0
 16 15  2  0
 17 16  1  0
 18 17  1  0
 19 18  1  0
 20 19  2  0
 21 19  1  0
 22 21  1  0
 23 22  2  0
 24 23  1  0
 25 24  2  0
 26 25  1  0
 27 22  1  0
 27 26  2  0
 28 13  1  0
 28 17  2  0
 29 10  1  0
 30  7  1  0
 30 29  1  0
 31  6  1  0
 32 31  2  0
 33 32  1  0
 34  5  1  0
 34 33  2  0
 35  2  2  0
 35 34  1  0
 36  1  1  0
 37  1  1  0
 38  1  1  0
 39  3  1  0
 40  4  1  0
 41  8  1  0
 42  8  1  0
 43  9  1  0
 44  9  1  0
 45 11  1  0
 46 11  1  0
 47 12  1  0
 48 12  1  0
 49 14  1  0
 50 15  1  0
 51 16  1  0
 52 18  1  0
 53 21  1  0
 54 23  1  0
 55 24  1  0
 56 25  1  0
 57 26  1  0
 58 27  1  0
 59 28  1  0
 60 29  1  0
 61 29  1  0
 62 30  1  0
 63 30  1  0
 64 31  1  0
 65 32  1  0
 66 33  1  0
 67 10  1  0
M  CHG  1  10   1
M  END
>  <b_m_subgroup_collapsed>  (1214) 
0

>  <r_i_docking_score>  (1214) 
-6.4396779685531298

>  <s_m_subgroup_title>  (1214) 
glide-dock_SP_D22_pv

>  <s_m_subgroupid>  (1214) 
glide-dock_SP_D22_pv

>  <Molecule ChEMBL ID>  (1214) 
CHEMBL1632223

>  <Standard Type>  (1214) 
Ki

>  <Standard Value>  (1214) 
79.43

>  <label>  (1214) 
1

$$$$
CHEMBL716
     RDKit          3D

 52 55  0  0  1  0  0  0  0  0999 V2000
   12.7403    8.9722   -2.0946 O   0  0  0  0  0  0  0  0  0  0  0  0
   11.7990    9.3300   -3.0870 C   0  0  0  0  0  0  0  0  0  0  0  0
   12.3273    9.0199   -4.4948 C   0  0  0  0  0  0  0  0  0  0  0  0
   11.3821    9.4674   -5.4597 O   0  0  0  0  0  0  0  0  0  0  0  0
   11.8145    9.3238   -6.8079 C   0  0  0  0  0  0  0  0  0  0  0  0
   11.5644    7.9050   -7.3745 C   0  0  0  0  0  0  0  0  0  0  0  0
   10.4648    7.7845   -8.3379 N   0  0  0  0  0  0  0  0  0  0  0  0
   10.1596    6.3750   -8.6215 C   0  0  0  0  0  0  0  0  0  0  0  0
    9.0101    6.1951   -9.6373 C   0  0  0  0  0  0  0  0  0  0  0  0
    9.2947    6.9316  -10.8697 N   0  0  0  0  0  0  0  0  0  0  0  0
    9.6932    6.3266  -12.0638 C   0  0  0  0  0  0  0  0  0  0  0  0
   10.8756    6.5734  -12.5558 N   0  0  0  0  0  0  0  0  0  0  0  0
   11.3604    6.1710  -13.8079 C   0  0  0  0  0  0  0  0  0  0  0  0
   12.0863    7.1445  -14.5308 C   0  0  0  0  0  0  0  0  0  0  0  0
   12.6472    6.8529  -15.7875 C   0  0  0  0  0  0  0  0  0  0  0  0
   12.5057    5.5658  -16.3351 C   0  0  0  0  0  0  0  0  0  0  0  0
   11.8121    4.5751  -15.6171 C   0  0  0  0  0  0  0  0  0  0  0  0
   11.2517    4.8697  -14.3577 C   0  0  0  0  0  0  0  0  0  0  0  0
   10.4859    3.5694  -13.4732 S   0  0  0  0  0  0  0  0  0  0  0  0
    8.8741    4.2051  -13.3359 C   0  0  0  0  0  0  0  0  0  0  0  0
    7.8260    3.4132  -13.8465 C   0  0  0  0  0  0  0  0  0  0  0  0
    6.4922    3.8164  -13.6832 C   0  0  0  0  0  0  0  0  0  0  0  0
    6.2208    5.0366  -13.0467 C   0  0  0  0  0  0  0  0  0  0  0  0
    7.2722    5.8493  -12.5830 C   0  0  0  0  0  0  0  0  0  0  0  0
    8.6235    5.4445  -12.6923 C   0  0  0  0  0  0  0  0  0  0  0  0
    9.5799    8.3374  -10.5901 C   0  0  0  0  0  0  0  0  0  0  0  0
   10.7569    8.4561   -9.6069 C   0  0  0  0  0  0  0  0  0  0  0  0
   13.2871    9.7286   -1.9163 H   0  0  0  0  0  0  0  0  0  0  0  0
   10.8861    8.7687   -2.9076 H   0  0  0  0  0  0  0  0  0  0  0  0
   11.5537   10.3874   -2.9871 H   0  0  0  0  0  0  0  0  0  0  0  0
   13.2829    9.5227   -4.6465 H   0  0  0  0  0  0  0  0  0  0  0  0
   12.4882    7.9477   -4.5995 H   0  0  0  0  0  0  0  0  0  0  0  0
   11.2860   10.0759   -7.3888 H   0  0  0  0  0  0  0  0  0  0  0  0
   12.8701    9.5787   -6.8957 H   0  0  0  0  0  0  0  0  0  0  0  0
   12.4813    7.5502   -7.8466 H   0  0  0  0  0  0  0  0  0  0  0  0
   11.3875    7.2256   -6.5399 H   0  0  0  0  0  0  0  0  0  0  0  0
   11.0418    5.8800   -9.0139 H   0  0  0  0  0  0  0  0  0  0  0  0
    9.9009    5.8609   -7.6962 H   0  0  0  0  0  0  0  0  0  0  0  0
    8.8530    5.1368   -9.8450 H   0  0  0  0  0  0  0  0  0  0  0  0
    8.0854    6.5719   -9.2063 H   0  0  0  0  0  0  0  0  0  0  0  0
   12.2062    8.1403  -14.1244 H   0  0  0  0  0  0  0  0  0  0  0  0
   13.1853    7.6157  -16.3289 H   0  0  0  0  0  0  0  0  0  0  0  0
   12.9418    5.3337  -17.2953 H   0  0  0  0  0  0  0  0  0  0  0  0
   11.7239    3.5795  -16.0269 H   0  0  0  0  0  0  0  0  0  0  0  0
    8.0456    2.4713  -14.3278 H   0  0  0  0  0  0  0  0  0  0  0  0
    5.6848    3.2022  -14.0549 H   0  0  0  0  0  0  0  0  0  0  0  0
    5.2062    5.3738  -12.9330 H   0  0  0  0  0  0  0  0  0  0  0  0
    7.0192    6.7897  -12.1164 H   0  0  0  0  0  0  0  0  0  0  0  0
    9.8019    8.8715  -11.5139 H   0  0  0  0  0  0  0  0  0  0  0  0
    8.6876    8.8048  -10.1736 H   0  0  0  0  0  0  0  0  0  0  0  0
   10.9651    9.5141   -9.4452 H   0  0  0  0  0  0  0  0  0  0  0  0
   11.6548    8.0317  -10.0602 H   0  0  0  0  0  0  0  0  0  0  0  0
  2  1  1  0
  3  2  1  0
  4  3  1  0
  5  4  1  0
  6  5  1  0
  7  6  1  0
  8  7  1  0
  9  8  1  0
 10  9  1  0
 11 10  1  0
 12 11  2  0
 13 12  1  0
 14 13  2  0
 15 14  1  0
 16 15  2  0
 17 16  1  0
 18 13  1  0
 18 17  2  0
 19 18  1  0
 20 19  1  0
 21 20  2  0
 22 21  1  0
 23 22  2  0
 24 23  1  0
 25 11  1  0
 25 20  1  0
 25 24  2  0
 26 10  1  0
 27  7  1  0
 27 26  1  0
 28  1  1  0
 29  2  1  0
 30  2  1  0
 31  3  1  0
 32  3  1  0
 33  5  1  0
 34  5  1  0
 35  6  1  0
 36  6  1  0
 37  8  1  0
 38  8  1  0
 39  9  1  0
 40  9  1  0
 41 14  1  0
 42 15  1  0
 43 16  1  0
 44 17  1  0
 45 21  1  0
 46 22  1  0
 47 23  1  0
 48 24  1  0
 49 26  1  0
 50 26  1  0
 51 27  1  0
 52 27  1  0
M  END
>  <b_m_subgroup_collapsed>  (1215) 
0

>  <r_i_docking_score>  (1215) 
-6.4393584814387701

>  <s_m_subgroup_title>  (1215) 
glide-dock_SP_D22_pv

>  <s_m_subgroupid>  (1215) 
glide-dock_SP_D22_pv

>  <Molecule ChEMBL ID>  (1215) 
CHEMBL716

>  <Standard Type>  (1215) 
Ki

>  <Standard Value>  (1215) 
63.1

>  <label>  (1215) 
1

$$$$
CHEMBL317535
     RDKit          3D

 40 41  0  0  1  0  0  0  0  0999 V2000
   11.7477    5.7638  -14.8274 C   0  0  0  0  0  0  0  0  0  0  0  0
   12.3267    6.9865  -14.1118 C   0  0  0  0  0  0  0  0  0  0  0  0
   11.9004    6.9716  -12.7584 O   0  0  0  0  0  0  0  0  0  0  0  0
   12.4859    7.7724  -11.8603 C   0  0  0  0  0  0  0  0  0  0  0  0
   13.4087    8.5499  -12.1257 O   0  0  0  0  0  0  0  0  0  0  0  0
   11.8833    7.7321  -10.5249 C   0  0  0  0  0  0  0  0  0  0  0  0
   12.4066    8.5710   -9.5520 N   0  0  0  0  0  0  0  0  0  0  0  0
   11.7609    8.3967   -8.3464 C   0  0  0  0  0  0  0  0  0  0  0  0
   11.9274    8.9854   -7.0798 C   0  0  0  0  0  0  0  0  0  0  0  0
   11.0859    8.5984   -6.0217 C   0  0  0  0  0  0  0  0  0  0  0  0
   10.0958    7.6228   -6.2442 C   0  0  0  0  0  0  0  0  0  0  0  0
    9.9403    7.0347   -7.5103 C   0  0  0  0  0  0  0  0  0  0  0  0
   10.7669    7.4085   -8.5933 C   0  0  0  0  0  0  0  0  0  0  0  0
   10.8472    7.0101   -9.9713 C   0  0  0  0  0  0  0  0  0  0  0  0
    9.9407    6.0066  -10.6180 C   0  0  0  0  0  0  0  0  0  0  0  0
    8.5031    6.5354  -10.6771 C   0  0  0  0  0  0  0  0  0  0  0  0
    7.5842    5.7039  -11.4799 N   0  0  0  0  0  0  0  0  0  0  0  0
    7.6983    5.9247  -12.9350 C   0  0  0  0  0  0  0  0  0  0  0  0
    7.6058    4.2749  -11.1154 C   0  0  0  0  0  0  0  0  0  0  0  0
   12.0574    5.7450  -15.8722 H   0  0  0  0  0  0  0  0  0  0  0  0
   12.0899    4.8390  -14.3616 H   0  0  0  0  0  0  0  0  0  0  0  0
   10.6579    5.7718  -14.8027 H   0  0  0  0  0  0  0  0  0  0  0  0
   11.9849    7.9042  -14.5913 H   0  0  0  0  0  0  0  0  0  0  0  0
   13.4148    6.9716  -14.1811 H   0  0  0  0  0  0  0  0  0  0  0  0
   13.1449    9.2451   -9.7604 H   0  0  0  0  0  0  0  0  0  0  0  0
   12.6962    9.7275   -6.9192 H   0  0  0  0  0  0  0  0  0  0  0  0
   11.2015    9.0441   -5.0443 H   0  0  0  0  0  0  0  0  0  0  0  0
    9.4415    7.3127   -5.4468 H   0  0  0  0  0  0  0  0  0  0  0  0
    9.1704    6.2906   -7.6499 H   0  0  0  0  0  0  0  0  0  0  0  0
   10.2672    5.7282  -11.6140 H   0  0  0  0  0  0  0  0  0  0  0  0
    9.9720    5.0827  -10.0399 H   0  0  0  0  0  0  0  0  0  0  0  0
    8.0870    6.5723   -9.6687 H   0  0  0  0  0  0  0  0  0  0  0  0
    8.4866    7.5579  -11.0578 H   0  0  0  0  0  0  0  0  0  0  0  0
    8.6461    5.5514  -13.3231 H   0  0  0  0  0  0  0  0  0  0  0  0
    6.8903    5.4024  -13.4470 H   0  0  0  0  0  0  0  0  0  0  0  0
    7.6295    6.9869  -13.1716 H   0  0  0  0  0  0  0  0  0  0  0  0
    8.4602    3.7729  -11.5711 H   0  0  0  0  0  0  0  0  0  0  0  0
    7.6860    4.1708  -10.0332 H   0  0  0  0  0  0  0  0  0  0  0  0
    6.6943    3.7767  -11.4474 H   0  0  0  0  0  0  0  0  0  0  0  0
    6.6765    6.0661  -11.2033 H   0  0  0  0  0  0  0  0  0  0  0  0
  2  1  1  0
  3  2  1  0
  4  3  1  0
  5  4  2  0
  6  4  1  0
  7  6  1  0
  8  7  1  0
  9  8  2  0
 10  9  1  0
 11 10  2  0
 12 11  1  0
 13  8  1  0
 13 12  2  0
 14  6  2  0
 14 13  1  0
 15 14  1  0
 16 15  1  0
 17 16  1  0
 18 17  1  0
 19 17  1  0
 20  1  1  0
 21  1  1  0
 22  1  1  0
 23  2  1  0
 24  2  1  0
 25  7  1  0
 26  9  1  0
 27 10  1  0
 28 11  1  0
 29 12  1  0
 30 15  1  0
 31 15  1  0
 32 16  1  0
 33 16  1  0
 34 18  1  0
 35 18  1  0
 36 18  1  0
 37 19  1  0
 38 19  1  0
 39 19  1  0
 40 17  1  0
M  CHG  1  17   1
M  END
>  <b_m_subgroup_collapsed>  (1216) 
0

>  <r_i_docking_score>  (1216) 
-6.4385472605445599

>  <s_m_subgroup_title>  (1216) 
glide-dock_SP_D22_pv

>  <s_m_subgroupid>  (1216) 
glide-dock_SP_D22_pv

>  <Molecule ChEMBL ID>  (1216) 
CHEMBL317535

>  <Standard Type>  (1216) 
Ki

>  <Standard Value>  (1216) 
59.0

>  <label>  (1216) 
1

$$$$
CHEMBL204098
     RDKit          3D

 44 46  0  0  1  0  0  0  0  0999 V2000
    9.9541    5.1984  -16.9749 C   0  0  0  0  0  0  0  0  0  0  0  0
   10.2554    3.7470  -16.9998 N   0  0  1  0  0  0  0  0  0  0  0  0
   11.6236    3.3567  -17.4520 C   0  0  0  0  0  0  0  0  0  0  0  0
   12.8242    3.7799  -16.5739 C   0  0  0  0  0  0  0  0  0  0  0  0
   12.9657    5.2816  -16.3739 C   0  0  0  0  0  0  0  0  0  0  0  0
   13.3441    6.0475  -17.4994 C   0  0  0  0  0  0  0  0  0  0  0  0
   13.4528    7.4460  -17.4187 C   0  0  0  0  0  0  0  0  0  0  0  0
   13.1959    8.0928  -16.2006 C   0  0  0  0  0  0  0  0  0  0  0  0
   12.8400    7.3401  -15.0662 C   0  0  0  0  0  0  0  0  0  0  0  0
   12.7141    5.9334  -15.1328 C   0  0  0  0  0  0  0  0  0  0  0  0
   12.3296    5.1927  -13.8500 C   0  0  0  0  0  0  0  0  0  0  0  0
   10.8620    5.3093  -13.4455 C   0  0  0  0  0  0  0  0  0  0  0  0
   10.5015    6.4189  -12.6468 C   0  0  0  0  0  0  0  0  0  0  0  0
    9.1889    6.5871  -12.1725 C   0  0  0  0  0  0  0  0  0  0  0  0
    8.8860    7.6965  -11.3842 N   0  0  0  0  0  0  0  0  0  0  0  0
    8.2028    5.6387  -12.5043 C   0  0  0  0  0  0  0  0  0  0  0  0
    6.9221    5.7723  -12.0458 O   0  0  0  0  0  0  0  0  0  0  0  0
    8.5483    4.5277  -13.2983 C   0  0  0  0  0  0  0  0  0  0  0  0
    9.8723    4.3368  -13.7602 C   0  0  0  0  0  0  0  0  0  0  0  0
   10.1793    3.0356  -14.4950 C   0  0  0  0  0  0  0  0  0  0  0  0
    9.6245    2.9163  -15.9338 C   0  0  0  0  0  0  0  0  0  0  0  0
   10.2835    5.6890  -16.0658 H   0  0  0  0  0  0  0  0  0  0  0  0
    8.8860    5.3676  -17.0540 H   0  0  0  0  0  0  0  0  0  0  0  0
   10.4168    5.7081  -17.8206 H   0  0  0  0  0  0  0  0  0  0  0  0
   11.6476    2.2739  -17.5810 H   0  0  0  0  0  0  0  0  0  0  0  0
   11.7633    3.7667  -18.4531 H   0  0  0  0  0  0  0  0  0  0  0  0
   12.8581    3.2250  -15.6485 H   0  0  0  0  0  0  0  0  0  0  0  0
   13.7315    3.4531  -17.0833 H   0  0  0  0  0  0  0  0  0  0  0  0
   13.5422    5.5625  -18.4440 H   0  0  0  0  0  0  0  0  0  0  0  0
   13.7319    8.0233  -18.2885 H   0  0  0  0  0  0  0  0  0  0  0  0
   13.2806    9.1680  -16.1355 H   0  0  0  0  0  0  0  0  0  0  0  0
   12.6621    7.8561  -14.1344 H   0  0  0  0  0  0  0  0  0  0  0  0
   12.6933    4.1728  -13.8078 H   0  0  0  0  0  0  0  0  0  0  0  0
   12.8859    5.6690  -13.0481 H   0  0  0  0  0  0  0  0  0  0  0  0
   11.2487    7.1530  -12.3836 H   0  0  0  0  0  0  0  0  0  0  0  0
    7.9744    7.7725  -10.9162 H   0  0  0  0  0  0  0  0  0  0  0  0
    9.6178    8.2591  -10.9786 H   0  0  0  0  0  0  0  0  0  0  0  0
    6.8184    6.4591  -11.3901 H   0  0  0  0  0  0  0  0  0  0  0  0
    7.7892    3.7914  -13.5191 H   0  0  0  0  0  0  0  0  0  0  0  0
   11.2249    2.7622  -14.4393 H   0  0  0  0  0  0  0  0  0  0  0  0
    9.6993    2.2518  -13.9061 H   0  0  0  0  0  0  0  0  0  0  0  0
    8.5530    3.1166  -15.9229 H   0  0  0  0  0  0  0  0  0  0  0  0
    9.7158    1.8743  -16.2432 H   0  0  0  0  0  0  0  0  0  0  0  0
    9.7155    3.4598  -17.8040 H   0  0  0  0  0  0  0  0  0  0  0  0
  2  1  1  0
  3  2  1  0
  4  3  1  0
  5  4  1  0
  6  5  2  0
  7  6  1  0
  8  7  2  0
  9  8  1  0
 10  5  1  0
 10  9  2  0
 11 10  1  0
 12 11  1  0
 13 12  1  0
 14 13  2  0
 15 14  1  0
 16 14  1  0
 17 16  1  0
 18 16  2  0
 19 12  2  0
 19 18  1  0
 20 19  1  0
 21  2  1  0
 21 20  1  0
 22  1  1  0
 23  1  1  0
 24  1  1  0
 25  3  1  0
 26  3  1  0
 27  4  1  0
 28  4  1  0
 29  6  1  0
 30  7  1  0
 31  8  1  0
 32  9  1  0
 33 11  1  0
 34 11  1  0
 35 13  1  0
 36 15  1  0
 37 15  1  0
 38 17  1  0
 39 18  1  0
 40 20  1  0
 41 20  1  0
 42 21  1  0
 43 21  1  0
  2 44  1  6
M  CHG  1   2   1
M  END
>  <b_m_subgroup_collapsed>  (1217) 
0

>  <r_i_docking_score>  (1217) 
-6.4379051269010299

>  <s_m_subgroup_title>  (1217) 
glide-dock_SP_D22_pv

>  <s_m_subgroupid>  (1217) 
glide-dock_SP_D22_pv

>  <Molecule ChEMBL ID>  (1217) 
CHEMBL204098

>  <Standard Type>  (1217) 
Ki

>  <Standard Value>  (1217) 
26.1

>  <label>  (1217) 
1

$$$$
CHEMBL5189614
     RDKit          3D

 57 60  0  0  1  0  0  0  0  0999 V2000
   11.8107   11.3619   -6.3286 C   0  0  0  0  0  0  0  0  0  0  0  0
   11.1577   10.1573   -6.6454 O   0  0  0  0  0  0  0  0  0  0  0  0
   11.3470    9.0937   -5.7939 C   0  0  0  0  0  0  0  0  0  0  0  0
   11.9191    9.2315   -4.4998 C   0  0  0  0  0  0  0  0  0  0  0  0
   12.0928    8.1355   -3.6443 C   0  0  0  0  0  0  0  0  0  0  0  0
   11.6853    6.8685   -4.0710 C   0  0  0  0  0  0  0  0  0  0  0  0
   11.1038    6.7281   -5.3414 C   0  0  0  0  0  0  0  0  0  0  0  0
   10.9374    7.8080   -6.2240 C   0  0  0  0  0  0  0  0  0  0  0  0
   10.4175    7.5292   -7.5069 N   0  0  0  0  0  0  0  0  0  0  0  0
    9.1255    6.8607   -7.6368 C   0  0  0  0  0  0  0  0  0  0  0  0
    9.1046    5.9749   -8.9037 C   0  0  0  0  0  0  0  0  0  0  0  0
    9.4279    6.7710  -10.0946 N   0  0  0  0  0  0  0  0  0  0  0  0
    9.3880    5.9768  -11.3236 C   0  0  0  0  0  0  0  0  0  0  0  0
    7.9748    5.4663  -11.6813 C   0  0  0  0  0  0  0  0  0  0  0  0
    7.7179    5.3146  -13.1989 C   0  0  0  0  0  0  0  0  0  0  0  0
    8.2361    4.0538  -13.7603 N   0  0  0  0  0  0  0  0  0  0  0  0
    9.5419    3.9954  -14.1421 C   0  0  0  0  0  0  0  0  0  0  0  0
   10.2941    4.9713  -14.1494 O   0  0  0  0  0  0  0  0  0  0  0  0
   10.1228    2.6412  -14.5584 C   0  0  0  0  0  0  0  0  0  0  0  0
    9.1111    1.8167  -15.3573 C   0  0  0  0  0  0  0  0  0  0  0  0
    7.7753    1.7809  -14.6461 C   0  0  0  0  0  0  0  0  0  0  0  0
    6.9704    0.6250  -14.7233 C   0  0  0  0  0  0  0  0  0  0  0  0
    5.7394    0.5754  -14.0468 C   0  0  0  0  0  0  0  0  0  0  0  0
    5.3031    1.6933  -13.3122 C   0  0  0  0  0  0  0  0  0  0  0  0
    6.0957    2.8548  -13.2412 C   0  0  0  0  0  0  0  0  0  0  0  0
    7.3611    2.9105  -13.8880 C   0  0  0  0  0  0  0  0  0  0  0  0
   10.7603    7.3618   -9.9338 C   0  0  0  0  0  0  0  0  0  0  0  0
   10.8088    8.2784   -8.6937 C   0  0  0  0  0  0  0  0  0  0  0  0
   11.6860   12.1042   -7.1121 H   0  0  0  0  0  0  0  0  0  0  0  0
   11.3896   11.7714   -5.4165 H   0  0  0  0  0  0  0  0  0  0  0  0
   12.8787   11.1902   -6.2466 H   0  0  0  0  0  0  0  0  0  0  0  0
   12.2508   10.1725   -4.1140 H   0  0  0  0  0  0  0  0  0  0  0  0
   12.5380    8.2694   -2.6700 H   0  0  0  0  0  0  0  0  0  0  0  0
   11.8098    6.0103   -3.4284 H   0  0  0  0  0  0  0  0  0  0  0  0
   10.7919    5.7726   -5.6770 H   0  0  0  0  0  0  0  0  0  0  0  0
    8.8889    6.2588   -6.7603 H   0  0  0  0  0  0  0  0  0  0  0  0
    8.3498    7.6233   -7.7041 H   0  0  0  0  0  0  0  0  0  0  0  0
    9.8105    5.1491   -8.8024 H   0  0  0  0  0  0  0  0  0  0  0  0
    8.1113    5.5379   -9.0093 H   0  0  0  0  0  0  0  0  0  0  0  0
    9.7376    6.6183  -12.1326 H   0  0  0  0  0  0  0  0  0  0  0  0
   10.0854    5.1399  -11.2675 H   0  0  0  0  0  0  0  0  0  0  0  0
    7.7628    4.5335  -11.1568 H   0  0  0  0  0  0  0  0  0  0  0  0
    7.2408    6.1717  -11.3099 H   0  0  0  0  0  0  0  0  0  0  0  0
    6.6507    5.3951  -13.3975 H   0  0  0  0  0  0  0  0  0  0  0  0
    8.1257    6.1746  -13.7304 H   0  0  0  0  0  0  0  0  0  0  0  0
   11.0396    2.7782  -15.1338 H   0  0  0  0  0  0  0  0  0  0  0  0
   10.4024    2.1134  -13.6469 H   0  0  0  0  0  0  0  0  0  0  0  0
    8.9743    2.2421  -16.3530 H   0  0  0  0  0  0  0  0  0  0  0  0
    9.4877    0.8020  -15.4941 H   0  0  0  0  0  0  0  0  0  0  0  0
    7.3009   -0.2339  -15.2898 H   0  0  0  0  0  0  0  0  0  0  0  0
    5.1288   -0.3131  -14.0995 H   0  0  0  0  0  0  0  0  0  0  0  0
    4.3565    1.6718  -12.7974 H   0  0  0  0  0  0  0  0  0  0  0  0
    5.7291    3.6690  -12.6364 H   0  0  0  0  0  0  0  0  0  0  0  0
   11.5070    6.5724   -9.8480 H   0  0  0  0  0  0  0  0  0  0  0  0
   11.0108    7.9473  -10.8193 H   0  0  0  0  0  0  0  0  0  0  0  0
   10.1351    9.1268   -8.8245 H   0  0  0  0  0  0  0  0  0  0  0  0
   11.8170    8.6759   -8.5755 H   0  0  0  0  0  0  0  0  0  0  0  0
  2  1  1  0
  3  2  1  0
  4  3  2  0
  5  4  1  0
  6  5  2  0
  7  6  1  0
  8  3  1  0
  8  7  2  0
  9  8  1  0
 10  9  1  0
 11 10  1  0
 12 11  1  0
 13 12  1  0
 14 13  1  0
 15 14  1  0
 16 15  1  0
 17 16  1  0
 18 17  2  0
 19 17  1  0
 20 19  1  0
 21 20  1  0
 22 21  2  0
 23 22  1  0
 24 23  2  0
 25 24  1  0
 26 16  1  0
 26 21  1  0
 26 25  2  0
 27 12  1  0
 28  9  1  0
 28 27  1  0
 29  1  1  0
 30  1  1  0
 31  1  1  0
 32  4  1  0
 33  5  1  0
 34  6  1  0
 35  7  1  0
 36 10  1  0
 37 10  1  0
 38 11  1  0
 39 11  1  0
 40 13  1  0
 41 13  1  0
 42 14  1  0
 43 14  1  0
 44 15  1  0
 45 15  1  0
 46 19  1  0
 47 19  1  0
 48 20  1  0
 49 20  1  0
 50 22  1  0
 51 23  1  0
 52 24  1  0
 53 25  1  0
 54 27  1  0
 55 27  1  0
 56 28  1  0
 57 28  1  0
M  END
>  <b_m_subgroup_collapsed>  (1218) 
0

>  <r_i_docking_score>  (1218) 
-6.4329177528424504

>  <s_m_subgroup_title>  (1218) 
glide-dock_SP_D22_pv

>  <s_m_subgroupid>  (1218) 
glide-dock_SP_D22_pv

>  <Molecule ChEMBL ID>  (1218) 
CHEMBL5189614

>  <Standard Type>  (1218) 
Ki

>  <Standard Value>  (1218) 
81.28

>  <label>  (1218) 
1

$$$$
CHEMBL1125
     RDKit          3D

 40 43  0  0  1  0  0  0  0  0999 V2000
   11.8228    8.9724   -9.4958 C   0  0  0  0  0  0  0  0  0  0  0  0
   11.0218    8.2320  -10.5008 C   0  0  0  0  0  0  0  0  0  0  0  0
   11.4517    7.3723  -11.4737 C   0  0  0  0  0  0  0  0  0  0  0  0
   10.3865    6.7747  -12.2292 C   0  0  0  0  0  0  0  0  0  0  0  0
    9.1711    7.2497  -11.8280 C   0  0  0  0  0  0  0  0  0  0  0  0
    9.3036    8.4286  -10.5563 S   0  0  0  0  0  0  0  0  0  0  0  0
    7.9167    6.8899  -12.2469 N   0  0  0  0  0  0  0  0  0  0  0  0
    7.5568    5.6307  -12.7127 C   0  0  0  0  0  0  0  0  0  0  0  0
    6.2130    5.2645  -12.4882 C   0  0  0  0  0  0  0  0  0  0  0  0
    5.7088    4.0362  -12.9458 C   0  0  0  0  0  0  0  0  0  0  0  0
    6.5565    3.1586  -13.6368 C   0  0  0  0  0  0  0  0  0  0  0  0
    7.9033    3.5087  -13.8467 C   0  0  0  0  0  0  0  0  0  0  0  0
    8.4372    4.7366  -13.3920 C   0  0  0  0  0  0  0  0  0  0  0  0
    9.7833    4.9338  -13.7590 N   0  0  0  0  0  0  0  0  0  0  0  0
   10.6670    5.7723  -13.3059 C   0  0  0  0  0  0  0  0  0  0  0  0
   11.9526    5.8377  -13.8499 N   0  0  0  0  0  0  0  0  0  0  0  0
   12.3875    7.0294  -14.5793 C   0  0  0  0  0  0  0  0  0  0  0  0
   12.1058    6.8868  -16.0868 C   0  0  0  0  0  0  0  0  0  0  0  0
   12.7242    5.6526  -16.6197 N   0  0  0  0  0  0  0  0  0  0  0  0
   12.3330    4.4399  -15.8679 C   0  0  0  0  0  0  0  0  0  0  0  0
   12.6035    4.6310  -14.3638 C   0  0  0  0  0  0  0  0  0  0  0  0
   12.8831    8.7322   -9.5776 H   0  0  0  0  0  0  0  0  0  0  0  0
   11.6859   10.0424   -9.6442 H   0  0  0  0  0  0  0  0  0  0  0  0
   11.4990    8.7272   -8.4844 H   0  0  0  0  0  0  0  0  0  0  0  0
   12.4868    7.1239  -11.6354 H   0  0  0  0  0  0  0  0  0  0  0  0
    7.2090    7.3266  -11.6430 H   0  0  0  0  0  0  0  0  0  0  0  0
    5.5565    5.9386  -11.9558 H   0  0  0  0  0  0  0  0  0  0  0  0
    4.6774    3.7705  -12.7684 H   0  0  0  0  0  0  0  0  0  0  0  0
    6.1793    2.2128  -13.9974 H   0  0  0  0  0  0  0  0  0  0  0  0
    8.5392    2.8160  -14.3789 H   0  0  0  0  0  0  0  0  0  0  0  0
   11.8916    7.9235  -14.2002 H   0  0  0  0  0  0  0  0  0  0  0  0
   13.4540    7.1759  -14.4072 H   0  0  0  0  0  0  0  0  0  0  0  0
   11.0314    6.8432  -16.2644 H   0  0  0  0  0  0  0  0  0  0  0  0
   12.4872    7.7515  -16.6312 H   0  0  0  0  0  0  0  0  0  0  0  0
   12.4683    5.5425  -17.5909 H   0  0  0  0  0  0  0  0  0  0  0  0
   11.2755    4.2365  -16.0417 H   0  0  0  0  0  0  0  0  0  0  0  0
   12.8865    3.5807  -16.2477 H   0  0  0  0  0  0  0  0  0  0  0  0
   13.6773    4.7041  -14.1944 H   0  0  0  0  0  0  0  0  0  0  0  0
   12.2661    3.7551  -13.8082 H   0  0  0  0  0  0  0  0  0  0  0  0
   13.7275    5.7507  -16.5566 H   0  0  0  0  0  0  0  0  0  0  0  0
  2  1  1  0
  3  2  2  0
  4  3  1  0
  5  4  2  0
  6  2  1  0
  6  5  1  0
  7  5  1  0
  8  7  1  0
  9  8  2  0
 10  9  1  0
 11 10  2  0
 12 11  1  0
 13  8  1  0
 13 12  2  0
 14 13  1  0
 15  4  1  0
 15 14  2  0
 16 15  1  0
 17 16  1  0
 18 17  1  0
 19 18  1  0
 20 19  1  0
 21 16  1  0
 21 20  1  0
 22  1  1  0
 23  1  1  0
 24  1  1  0
 25  3  1  0
 26  7  1  0
 27  9  1  0
 28 10  1  0
 29 11  1  0
 30 12  1  0
 31 17  1  0
 32 17  1  0
 33 18  1  0
 34 18  1  0
 35 19  1  0
 36 20  1  0
 37 20  1  0
 38 21  1  0
 39 21  1  0
 40 19  1  0
M  CHG  1  19   1
M  END
>  <b_m_subgroup_collapsed>  (1219) 
0

>  <r_i_docking_score>  (1219) 
-6.4281454543871401

>  <s_m_subgroup_title>  (1219) 
glide-dock_SP_D22_pv

>  <s_m_subgroupid>  (1219) 
glide-dock_SP_D22_pv

>  <Molecule ChEMBL ID>  (1219) 
CHEMBL1125

>  <Standard Type>  (1219) 
Ki

>  <Standard Value>  (1219) 
9.0

>  <label>  (1219) 
1

$$$$
CHEMBL5396600
     RDKit          3D

 55 58  0  0  1  0  0  0  0  0999 V2000
   14.5982    6.0818  -17.7984 C   0  0  0  0  0  0  0  0  0  0  0  0
   14.0345    6.0540  -16.4304 N   0  0  0  0  0  0  0  0  0  0  0  0
   13.1723    4.8680  -16.1940 C   0  0  0  0  0  0  0  0  0  0  0  0
   12.7437    4.8035  -14.7219 C   0  0  0  0  0  0  0  0  0  0  0  0
   12.1191    6.0650  -14.3410 N   0  0  0  0  0  0  0  0  0  0  0  0
   11.0648    6.0701  -13.4145 C   0  0  0  0  0  0  0  0  0  0  0  0
    9.9673    5.2046  -13.6031 C   0  0  0  0  0  0  0  0  0  0  0  0
    8.8566    5.2881  -12.7333 C   0  0  0  0  0  0  0  0  0  0  0  0
    7.6522    4.4581  -12.9136 C   0  0  0  0  0  0  0  0  0  0  0  0
    7.6014    3.3673  -13.8436 C   0  0  0  0  0  0  0  0  0  0  0  0
    6.4061    2.7010  -13.8469 C   0  0  0  0  0  0  0  0  0  0  0  0
    5.2878    3.3902  -12.7106 S   0  0  0  0  0  0  0  0  0  0  0  0
    6.4574    4.5922  -12.2464 C   0  0  0  0  0  0  0  0  0  0  0  0
    8.9254    6.2270  -11.6847 C   0  0  0  0  0  0  0  0  0  0  0  0
   10.0671    7.0388  -11.5597 C   0  0  0  0  0  0  0  0  0  0  0  0
   10.1635    8.0608  -10.4433 C   0  0  0  0  0  0  0  0  0  0  0  0
   11.0145    7.5936   -9.2396 C   0  0  0  0  0  0  0  0  0  0  0  0
   11.1828    8.7175   -8.1969 C   0  0  0  0  0  0  0  0  0  0  0  0
    9.8940    8.9722   -7.3900 C   0  0  0  0  0  0  0  0  0  0  0  0
    9.3637    7.6865   -6.7389 C   0  0  0  0  0  0  0  0  0  0  0  0
    9.1817    6.5723   -7.7804 C   0  0  0  0  0  0  0  0  0  0  0  0
   10.4856    6.3131   -8.5509 C   0  0  0  0  0  0  0  0  0  0  0  0
   11.1156    6.9709  -12.4075 N   0  0  0  0  0  0  0  0  0  0  0  0
   12.8519    7.2991  -14.6109 C   0  0  0  0  0  0  0  0  0  0  0  0
   13.3444    7.3197  -16.0707 C   0  0  0  0  0  0  0  0  0  0  0  0
   13.8099    6.1823  -18.5489 H   0  0  0  0  0  0  0  0  0  0  0  0
   15.2836    6.9220  -17.9182 H   0  0  0  0  0  0  0  0  0  0  0  0
   15.1536    5.1643  -18.0019 H   0  0  0  0  0  0  0  0  0  0  0  0
   13.6925    3.9488  -16.4667 H   0  0  0  0  0  0  0  0  0  0  0  0
   12.2899    4.9232  -16.8354 H   0  0  0  0  0  0  0  0  0  0  0  0
   13.6241    4.6300  -14.0969 H   0  0  0  0  0  0  0  0  0  0  0  0
   12.0806    3.9523  -14.5632 H   0  0  0  0  0  0  0  0  0  0  0  0
    9.9614    4.5342  -14.4461 H   0  0  0  0  0  0  0  0  0  0  0  0
    8.4329    3.0821  -14.4671 H   0  0  0  0  0  0  0  0  0  0  0  0
    6.1192    1.8444  -14.4378 H   0  0  0  0  0  0  0  0  0  0  0  0
    6.1920    5.3177  -11.4879 H   0  0  0  0  0  0  0  0  0  0  0  0
    8.1073    6.3457  -10.9874 H   0  0  0  0  0  0  0  0  0  0  0  0
   10.5954    8.9709  -10.8597 H   0  0  0  0  0  0  0  0  0  0  0  0
    9.1545    8.3297  -10.1283 H   0  0  0  0  0  0  0  0  0  0  0  0
   12.0062    7.3720   -9.6350 H   0  0  0  0  0  0  0  0  0  0  0  0
   11.9873    8.4541   -7.5085 H   0  0  0  0  0  0  0  0  0  0  0  0
   11.4981    9.6353   -8.6935 H   0  0  0  0  0  0  0  0  0  0  0  0
   10.0859    9.7214   -6.6215 H   0  0  0  0  0  0  0  0  0  0  0  0
    9.1234    9.3874   -8.0403 H   0  0  0  0  0  0  0  0  0  0  0  0
   10.0502    7.3522   -5.9608 H   0  0  0  0  0  0  0  0  0  0  0  0
    8.4112    7.8905   -6.2490 H   0  0  0  0  0  0  0  0  0  0  0  0
    8.8466    5.6588   -7.2899 H   0  0  0  0  0  0  0  0  0  0  0  0
    8.3895    6.8449   -8.4784 H   0  0  0  0  0  0  0  0  0  0  0  0
   10.3412    5.5090   -9.2736 H   0  0  0  0  0  0  0  0  0  0  0  0
   11.2348    5.9495   -7.8445 H   0  0  0  0  0  0  0  0  0  0  0  0
   12.2148    8.1672  -14.4378 H   0  0  0  0  0  0  0  0  0  0  0  0
   13.6840    7.3813  -13.9121 H   0  0  0  0  0  0  0  0  0  0  0  0
   14.0115    8.1678  -16.2320 H   0  0  0  0  0  0  0  0  0  0  0  0
   12.4925    7.4586  -16.7389 H   0  0  0  0  0  0  0  0  0  0  0  0
   14.8143    5.9657  -15.7941 H   0  0  0  0  0  0  0  0  0  0  0  0
  2  1  1  0
  3  2  1  0
  4  3  1  0
  5  4  1  0
  6  5  1  0
  7  6  1  0
  8  7  2  0
  9  8  1  0
 10  9  1  0
 11 10  2  0
 12 11  1  0
 13  9  2  0
 13 12  1  0
 14  8  1  0
 15 14  2  0
 16 15  1  0
 17 16  1  0
 18 17  1  0
 19 18  1  0
 20 19  1  0
 21 20  1  0
 22 17  1  0
 22 21  1  0
 23  6  2  0
 23 15  1  0
 24  5  1  0
 25  2  1  0
 25 24  1  0
 26  1  1  0
 27  1  1  0
 28  1  1  0
 29  3  1  0
 30  3  1  0
 31  4  1  0
 32  4  1  0
 33  7  1  0
 34 10  1  0
 35 11  1  0
 36 13  1  0
 37 14  1  0
 38 16  1  0
 39 16  1  0
 40 17  1  0
 41 18  1  0
 42 18  1  0
 43 19  1  0
 44 19  1  0
 45 20  1  0
 46 20  1  0
 47 21  1  0
 48 21  1  0
 49 22  1  0
 50 22  1  0
 51 24  1  0
 52 24  1  0
 53 25  1  0
 54 25  1  0
 55  2  1  0
M  CHG  1   2   1
M  END
>  <b_m_subgroup_collapsed>  (1220) 
0

>  <r_i_docking_score>  (1220) 
-6.4256765666363798

>  <s_m_subgroup_title>  (1220) 
glide-dock_SP_D22_pv

>  <s_m_subgroupid>  (1220) 
glide-dock_SP_D22_pv

>  <Molecule ChEMBL ID>  (1220) 
CHEMBL5396600

>  <Standard Type>  (1220) 
Ki

>  <Standard Value>  (1220) 
83.4

>  <label>  (1220) 
1

$$$$
CHEMBL240021
     RDKit          3D

 64 67  0  0  1  0  0  0  0  0999 V2000
   12.2856   10.0587   -6.3383 C   0  0  0  0  0  0  0  0  0  0  0  0
   11.4850    8.9344   -6.0452 O   0  0  0  0  0  0  0  0  0  0  0  0
   11.0375    8.1645   -7.0973 C   0  0  0  0  0  0  0  0  0  0  0  0
   11.2693    8.4957   -8.4535 C   0  0  0  0  0  0  0  0  0  0  0  0
   10.7470    7.7058   -9.4897 C   0  0  0  0  0  0  0  0  0  0  0  0
    9.9340    6.5915   -9.1976 C   0  0  0  0  0  0  0  0  0  0  0  0
    9.7125    6.2473   -7.8482 C   0  0  0  0  0  0  0  0  0  0  0  0
   10.2943    6.9980   -6.8013 C   0  0  0  0  0  0  0  0  0  0  0  0
   10.0822    6.5733   -5.5112 O   0  0  0  0  0  0  0  0  0  0  0  0
   11.2120    6.5094   -4.6531 C   0  0  0  0  0  0  0  0  0  0  0  0
    9.3015    5.7586  -10.3124 C   0  0  0  0  0  0  0  0  0  0  0  0
    9.6860    6.1674  -11.6836 N   0  0  0  0  0  0  0  0  0  0  0  0
    9.7107    5.3350  -12.7467 C   0  0  0  0  0  0  0  0  0  0  0  0
    9.4095    4.0230  -12.7102 N   0  0  0  0  0  0  0  0  0  0  0  0
    9.6545    3.2272  -13.8840 C   0  0  0  0  0  0  0  0  0  0  0  0
    8.7484    2.2012  -14.2469 C   0  0  0  0  0  0  0  0  0  0  0  0
    9.0304    1.3613  -15.3453 C   0  0  0  0  0  0  0  0  0  0  0  0
   10.1913    1.6140  -16.0950 C   0  0  0  0  0  0  0  0  0  0  0  0
   11.0415    2.6736  -15.7927 C   0  0  0  0  0  0  0  0  0  0  0  0
   10.8162    3.4695  -14.6490 C   0  0  0  0  0  0  0  0  0  0  0  0
   12.0799    2.7282  -16.7585 N   0  0  0  0  0  0  0  0  0  0  0  0
   12.8860    3.8177  -17.1122 C   0  0  0  0  0  0  0  0  0  0  0  0
   13.7115    3.8145  -18.0259 O   0  0  0  0  0  0  0  0  0  0  0  0
   12.5816    4.9047  -16.3597 O   0  0  0  0  0  0  0  0  0  0  0  0
   13.0497    6.2324  -16.6050 C   0  0  0  0  0  0  0  0  0  0  0  0
   14.5777    6.3375  -16.4561 C   0  0  0  0  0  0  0  0  0  0  0  0
   12.5687    6.7525  -17.9754 C   0  0  0  0  0  0  0  0  0  0  0  0
   12.3806    7.0612  -15.4941 C   0  0  0  0  0  0  0  0  0  0  0  0
   12.0107    1.5546  -17.6388 C   0  0  0  0  0  0  0  0  0  0  0  0
   10.6893    0.8376  -17.2814 C   0  0  0  0  0  0  0  0  0  0  0  0
   10.0360    7.5778  -11.9162 C   0  0  0  0  0  0  0  0  0  0  0  0
   11.0740    8.0781  -10.9162 C   0  0  0  0  0  0  0  0  0  0  0  0
   12.7246   10.4539   -5.4292 H   0  0  0  0  0  0  0  0  0  0  0  0
   13.1061    9.7722   -6.9939 H   0  0  0  0  0  0  0  0  0  0  0  0
   11.6865   10.8461   -6.7959 H   0  0  0  0  0  0  0  0  0  0  0  0
   11.8487    9.3616   -8.7337 H   0  0  0  0  0  0  0  0  0  0  0  0
    9.1052    5.3878   -7.6074 H   0  0  0  0  0  0  0  0  0  0  0  0
   11.0307    5.7733   -3.8715 H   0  0  0  0  0  0  0  0  0  0  0  0
   12.0932    6.1846   -5.2034 H   0  0  0  0  0  0  0  0  0  0  0  0
   11.4132    7.4591   -4.1547 H   0  0  0  0  0  0  0  0  0  0  0  0
    8.2158    5.8158  -10.2195 H   0  0  0  0  0  0  0  0  0  0  0  0
    9.5836    4.7175  -10.1511 H   0  0  0  0  0  0  0  0  0  0  0  0
    9.9828    5.7651  -13.7045 H   0  0  0  0  0  0  0  0  0  0  0  0
    7.8465    2.0360  -13.6805 H   0  0  0  0  0  0  0  0  0  0  0  0
    8.3682    0.5480  -15.6059 H   0  0  0  0  0  0  0  0  0  0  0  0
   11.5072    4.2409  -14.3473 H   0  0  0  0  0  0  0  0  0  0  0  0
   14.9049    6.0039  -15.4722 H   0  0  0  0  0  0  0  0  0  0  0  0
   15.1156    5.7545  -17.2022 H   0  0  0  0  0  0  0  0  0  0  0  0
   14.8871    7.3724  -16.5799 H   0  0  0  0  0  0  0  0  0  0  0  0
   11.4895    6.6390  -18.0824 H   0  0  0  0  0  0  0  0  0  0  0  0
   12.7995    7.8113  -18.0971 H   0  0  0  0  0  0  0  0  0  0  0  0
   13.0403    6.2255  -18.8048 H   0  0  0  0  0  0  0  0  0  0  0  0
   12.6967    6.7290  -14.5051 H   0  0  0  0  0  0  0  0  0  0  0  0
   12.6324    8.1187  -15.5803 H   0  0  0  0  0  0  0  0  0  0  0  0
   11.2954    6.9725  -15.5412 H   0  0  0  0  0  0  0  0  0  0  0  0
   12.0281    1.8330  -18.6941 H   0  0  0  0  0  0  0  0  0  0  0  0
   12.8730    0.9145  -17.4498 H   0  0  0  0  0  0  0  0  0  0  0  0
   10.8518   -0.2082  -17.0221 H   0  0  0  0  0  0  0  0  0  0  0  0
    9.9648    0.8930  -18.0935 H   0  0  0  0  0  0  0  0  0  0  0  0
   10.4494    7.7084  -12.9142 H   0  0  0  0  0  0  0  0  0  0  0  0
    9.1239    8.1725  -11.8468 H   0  0  0  0  0  0  0  0  0  0  0  0
   11.1563    9.1600  -10.9842 H   0  0  0  0  0  0  0  0  0  0  0  0
   12.0573    7.6747  -11.1633 H   0  0  0  0  0  0  0  0  0  0  0  0
    8.8236    3.6803  -11.9619 H   0  0  0  0  0  0  0  0  0  0  0  0
  2  1  1  0
  3  2  1  0
  4  3  2  0
  5  4  1  0
  6  5  2  0
  7  6  1  0
  8  3  1  0
  8  7  2  0
  9  8  1  0
 10  9  1  0
 11  6  1  0
 12 11  1  0
 13 12  2  3
 14 13  1  0
 15 14  1  0
 16 15  1  0
 17 16  2  0
 18 17  1  0
 19 18  2  0
 20 15  2  0
 20 19  1  0
 21 19  1  0
 22 21  1  0
 23 22  2  0
 24 22  1  0
 25 24  1  0
 26 25  1  0
 27 25  1  0
 28 25  1  0
 29 21  1  0
 30 18  1  0
 30 29  1  0
 31 12  1  0
 32  5  1  0
 32 31  1  0
 33  1  1  0
 34  1  1  0
 35  1  1  0
 36  4  1  0
 37  7  1  0
 38 10  1  0
 39 10  1  0
 40 10  1  0
 41 11  1  0
 42 11  1  0
 43 13  1  0
 44 16  1  0
 45 17  1  0
 46 20  1  0
 47 26  1  0
 48 26  1  0
 49 26  1  0
 50 27  1  0
 51 27  1  0
 52 27  1  0
 53 28  1  0
 54 28  1  0
 55 28  1  0
 56 29  1  0
 57 29  1  0
 58 30  1  0
 59 30  1  0
 60 31  1  0
 61 31  1  0
 62 32  1  0
 63 32  1  0
 64 14  1  0
M  CHG  1  12   1
M  END
>  <b_m_subgroup_collapsed>  (1221) 
0

>  <r_i_docking_score>  (1221) 
-6.4181043752593103

>  <s_m_subgroup_title>  (1221) 
glide-dock_SP_D22_pv

>  <s_m_subgroupid>  (1221) 
glide-dock_SP_D22_pv

>  <Molecule ChEMBL ID>  (1221) 
CHEMBL240021

>  <Standard Type>  (1221) 
Ki

>  <Standard Value>  (1221) 
54000.0

>  <label>  (1221) 
0

$$$$
CHEMBL4073520
     RDKit          3D

 29 30  0  0  1  0  0  0  0  0999 V2000
    9.0831    4.7006   -9.4763 C   0  0  0  0  0  0  0  0  0  0  0  0
    9.1185    6.2330   -9.4657 C   0  0  0  0  0  0  0  0  0  0  0  0
    9.7308    6.7938  -10.7633 C   0  0  0  0  0  0  0  0  0  0  0  0
    9.8461    6.6876   -8.2843 N   0  0  0  0  0  0  0  0  0  0  0  0
    9.8677    7.9432   -7.8053 C   0  0  0  0  0  0  0  0  0  0  0  0
    9.3521    8.8996   -8.3839 O   0  0  0  0  0  0  0  0  0  0  0  0
   10.5607    8.1551   -6.5157 C   0  0  0  0  0  0  0  0  0  0  0  0
   10.8374    9.3154   -5.8378 C   0  0  0  0  0  0  0  0  0  0  0  0
   11.4159    8.9418   -4.5804 C   0  0  0  0  0  0  0  0  0  0  0  0
   11.8172    9.6422   -3.4211 C   0  0  0  0  0  0  0  0  0  0  0  0
   12.3529    8.9718   -2.3044 C   0  0  0  0  0  0  0  0  0  0  0  0
   12.4857    7.5738   -2.3175 C   0  0  0  0  0  0  0  0  0  0  0  0
   12.0845    6.8463   -3.4502 C   0  0  0  0  0  0  0  0  0  0  0  0
   11.5502    7.5247   -4.5594 C   0  0  0  0  0  0  0  0  0  0  0  0
   11.0163    7.0841   -5.7532 N   0  0  0  0  0  0  0  0  0  0  0  0
    8.5190    4.3397  -10.3366 H   0  0  0  0  0  0  0  0  0  0  0  0
   10.0859    4.2755   -9.5307 H   0  0  0  0  0  0  0  0  0  0  0  0
    8.5993    4.3085   -8.5796 H   0  0  0  0  0  0  0  0  0  0  0  0
    8.0862    6.5723   -9.3867 H   0  0  0  0  0  0  0  0  0  0  0  0
    9.2377    6.3725  -11.6398 H   0  0  0  0  0  0  0  0  0  0  0  0
    9.6129    7.8756  -10.8250 H   0  0  0  0  0  0  0  0  0  0  0  0
   10.7954    6.5726  -10.8374 H   0  0  0  0  0  0  0  0  0  0  0  0
   10.3144    5.9737   -7.7502 H   0  0  0  0  0  0  0  0  0  0  0  0
   10.6030   10.3206   -6.1552 H   0  0  0  0  0  0  0  0  0  0  0  0
   11.6852   10.7092   -3.3723 H   0  0  0  0  0  0  0  0  0  0  0  0
   12.6456    9.5343   -1.4304 H   0  0  0  0  0  0  0  0  0  0  0  0
   12.8858    7.0581   -1.4568 H   0  0  0  0  0  0  0  0  0  0  0  0
   12.1579    5.7724   -3.4547 H   0  0  0  0  0  0  0  0  0  0  0  0
   10.8978    6.1157   -6.0113 H   0  0  0  0  0  0  0  0  0  0  0  0
  2  1  1  0
  3  2  1  0
  4  2  1  0
  5  4  1  0
  6  5  2  0
  7  5  1  0
  8  7  2  0
  9  8  1  0
 10  9  2  0
 11 10  1  0
 12 11  2  0
 13 12  1  0
 14  9  1  0
 14 13  2  0
 15  7  1  0
 15 14  1  0
 16  1  1  0
 17  1  1  0
 18  1  1  0
 19  2  1  0
 20  3  1  0
 21  3  1  0
 22  3  1  0
 23  4  1  0
 24  8  1  0
 25 10  1  0
 26 11  1  0
 27 12  1  0
 28 13  1  0
 29 15  1  0
M  END
>  <b_m_subgroup_collapsed>  (1222) 
0

>  <r_i_docking_score>  (1222) 
-6.4180650504969101

>  <s_m_subgroup_title>  (1222) 
glide-dock_SP_D22_pv

>  <s_m_subgroupid>  (1222) 
glide-dock_SP_D22_pv

>  <Molecule ChEMBL ID>  (1222) 
CHEMBL4073520

>  <Standard Type>  (1222) 
Ki

>  <Standard Value>  (1222) 
100000.0

>  <label>  (1222) 
0

$$$$
CHEMBL4209888
     RDKit          3D

 56 58  0  0  1  0  0  0  0  0999 V2000
   11.8747   10.6829   -6.2467 C   0  0  0  0  0  0  0  0  0  0  0  0
   10.9259   10.3176   -5.2625 O   0  0  0  0  0  0  0  0  0  0  0  0
   11.2863    9.1825   -4.5859 C   0  0  0  0  0  0  0  0  0  0  0  0
   11.7424    9.3383   -3.2627 C   0  0  0  0  0  0  0  0  0  0  0  0
   12.1388    8.2203   -2.5087 C   0  0  0  0  0  0  0  0  0  0  0  0
   12.0889    6.9402   -3.0853 C   0  0  0  0  0  0  0  0  0  0  0  0
   11.6448    6.7767   -4.4115 C   0  0  0  0  0  0  0  0  0  0  0  0
   11.2189    7.8882   -5.1755 C   0  0  0  0  0  0  0  0  0  0  0  0
   10.7216    7.7122   -6.4839 N   0  0  0  0  0  0  0  0  0  0  0  0
   11.1227    6.5912   -7.3195 C   0  0  0  0  0  0  0  0  0  0  0  0
   11.0450    7.0154   -8.8083 C   0  0  0  0  0  0  0  0  0  0  0  0
    9.7066    7.4964   -9.1726 N   0  0  0  0  0  0  0  0  0  0  0  0
    9.6938    7.9600  -10.5654 C   0  0  0  0  0  0  0  0  0  0  0  0
    8.9556    6.9900  -11.5038 C   0  0  0  0  0  0  0  0  0  0  0  0
    9.7674    5.8240  -12.0706 C   0  0  0  0  0  0  0  0  0  0  0  0
   10.8862    6.3110  -12.8092 O   0  0  0  0  0  0  0  0  0  0  0  0
   11.3888    5.5369  -13.8378 C   0  0  0  0  0  0  0  0  0  0  0  0
   10.9871    4.1989  -14.0850 C   0  0  0  0  0  0  0  0  0  0  0  0
   11.5054    3.4833  -15.1784 C   0  0  0  0  0  0  0  0  0  0  0  0
   12.4462    4.0865  -16.0332 C   0  0  0  0  0  0  0  0  0  0  0  0
   13.0168    3.3262  -17.2078 C   0  0  0  0  0  0  0  0  0  0  0  0
   12.8806    5.3992  -15.7762 C   0  0  0  0  0  0  0  0  0  0  0  0
   12.3616    6.1209  -14.6827 C   0  0  0  0  0  0  0  0  0  0  0  0
   12.8641    7.5273  -14.4210 C   0  0  0  0  0  0  0  0  0  0  0  0
    9.3357    8.6048   -8.2872 C   0  0  0  0  0  0  0  0  0  0  0  0
    9.3752    8.1646   -6.8130 C   0  0  0  0  0  0  0  0  0  0  0  0
   11.6920   11.6997   -6.5919 H   0  0  0  0  0  0  0  0  0  0  0  0
   12.8864   10.6316   -5.8478 H   0  0  0  0  0  0  0  0  0  0  0  0
   11.8166   10.0226   -7.1073 H   0  0  0  0  0  0  0  0  0  0  0  0
   11.7879   10.3244   -2.8223 H   0  0  0  0  0  0  0  0  0  0  0  0
   12.4798    8.3470   -1.4913 H   0  0  0  0  0  0  0  0  0  0  0  0
   12.3859    6.0773   -2.5077 H   0  0  0  0  0  0  0  0  0  0  0  0
   11.6006    5.7768   -4.8195 H   0  0  0  0  0  0  0  0  0  0  0  0
   12.1310    6.2670   -7.0580 H   0  0  0  0  0  0  0  0  0  0  0  0
   10.4523    5.7532   -7.1353 H   0  0  0  0  0  0  0  0  0  0  0  0
   11.7871    7.7914   -9.0023 H   0  0  0  0  0  0  0  0  0  0  0  0
   11.2856    6.1724   -9.4496 H   0  0  0  0  0  0  0  0  0  0  0  0
    9.1396    8.8986  -10.6199 H   0  0  0  0  0  0  0  0  0  0  0  0
   10.6934    8.1934  -10.9350 H   0  0  0  0  0  0  0  0  0  0  0  0
    8.0860    6.5757  -11.0050 H   0  0  0  0  0  0  0  0  0  0  0  0
    8.5659    7.5658  -12.3437 H   0  0  0  0  0  0  0  0  0  0  0  0
   10.0867    5.1529  -11.2742 H   0  0  0  0  0  0  0  0  0  0  0  0
    9.0758    5.2741  -12.7081 H   0  0  0  0  0  0  0  0  0  0  0  0
   10.2803    3.6874  -13.4509 H   0  0  0  0  0  0  0  0  0  0  0  0
   11.1816    2.4683  -15.3503 H   0  0  0  0  0  0  0  0  0  0  0  0
   12.8745    3.8879  -18.1324 H   0  0  0  0  0  0  0  0  0  0  0  0
   14.0858    3.1793  -17.0506 H   0  0  0  0  0  0  0  0  0  0  0  0
   12.5462    2.3486  -17.3239 H   0  0  0  0  0  0  0  0  0  0  0  0
   13.6191    5.8512  -16.4220 H   0  0  0  0  0  0  0  0  0  0  0  0
   13.6859    7.7764  -15.0915 H   0  0  0  0  0  0  0  0  0  0  0  0
   12.0755    8.2584  -14.5823 H   0  0  0  0  0  0  0  0  0  0  0  0
   13.2225    7.6224  -13.3950 H   0  0  0  0  0  0  0  0  0  0  0  0
   10.0156    9.4413   -8.4442 H   0  0  0  0  0  0  0  0  0  0  0  0
    8.3341    8.9580   -8.5328 H   0  0  0  0  0  0  0  0  0  0  0  0
    8.6629    7.3549   -6.6491 H   0  0  0  0  0  0  0  0  0  0  0  0
    9.0549    8.9798   -6.1764 H   0  0  0  0  0  0  0  0  0  0  0  0
  2  1  1  0
  3  2  1  0
  4  3  2  0
  5  4  1  0
  6  5  2  0
  7  6  1  0
  8  3  1  0
  8  7  2  0
  9  8  1  0
 10  9  1  0
 11 10  1  0
 12 11  1  0
 13 12  1  0
 14 13  1  0
 15 14  1  0
 16 15  1  0
 17 16  1  0
 18 17  1  0
 19 18  2  0
 20 19  1  0
 21 20  1  0
 22 20  2  0
 23 17  2  0
 23 22  1  0
 24 23  1  0
 25 12  1  0
 26  9  1  0
 26 25  1  0
 27  1  1  0
 28  1  1  0
 29  1  1  0
 30  4  1  0
 31  5  1  0
 32  6  1  0
 33  7  1  0
 34 10  1  0
 35 10  1  0
 36 11  1  0
 37 11  1  0
 38 13  1  0
 39 13  1  0
 40 14  1  0
 41 14  1  0
 42 15  1  0
 43 15  1  0
 44 18  1  0
 45 19  1  0
 46 21  1  0
 47 21  1  0
 48 21  1  0
 49 22  1  0
 50 24  1  0
 51 24  1  0
 52 24  1  0
 53 25  1  0
 54 25  1  0
 55 26  1  0
 56 26  1  0
M  END
>  <b_m_subgroup_collapsed>  (1223) 
0

>  <r_i_docking_score>  (1223) 
-6.4144791469794704

>  <s_m_subgroup_title>  (1223) 
glide-dock_SP_D22_pv

>  <s_m_subgroupid>  (1223) 
glide-dock_SP_D22_pv

>  <Molecule ChEMBL ID>  (1223) 
CHEMBL4209888

>  <Standard Type>  (1223) 
Ki

>  <Standard Value>  (1223) 
97.0

>  <label>  (1223) 
1

$$$$
CHEMBL4555115
     RDKit          3D

 29 31  0  0  1  0  0  0  0  0999 V2000
   11.5406    6.6508   -2.4542 C   0  0  0  0  0  0  0  0  0  0  0  0
   11.3909    6.5174   -3.9829 C   0  0  0  0  0  0  0  0  0  0  0  0
   11.6531    7.7623   -4.6818 N   0  0  0  0  0  0  0  0  0  0  0  0
   12.4105    8.7643   -4.2147 C   0  0  0  0  0  0  0  0  0  0  0  0
   12.5589    9.7723   -5.0469 N   0  0  0  0  0  0  0  0  0  0  0  0
   11.8209    9.4186   -6.1601 C   0  0  0  0  0  0  0  0  0  0  0  0
   11.2860    8.1674   -5.9750 C   0  0  0  0  0  0  0  0  0  0  0  0
   10.5070    7.4000   -6.9387 C   0  0  0  0  0  0  0  0  0  0  0  0
    9.3942    6.6342   -6.7163 C   0  0  0  0  0  0  0  0  0  0  0  0
    8.8816    6.1858   -7.9159 N   0  0  0  0  0  0  0  0  0  0  0  0
    9.6449    6.6318   -8.9656 C   0  0  0  0  0  0  0  0  0  0  0  0
    9.5136    6.4822  -10.3568 C   0  0  0  0  0  0  0  0  0  0  0  0
   10.4860    7.0397  -11.2039 C   0  0  0  0  0  0  0  0  0  0  0  0
   11.5866    7.7174  -10.6469 C   0  0  0  0  0  0  0  0  0  0  0  0
   12.5688    8.1723  -11.4565 F   0  0  0  0  0  0  0  0  0  0  0  0
   11.6925    7.8858   -9.2513 C   0  0  0  0  0  0  0  0  0  0  0  0
   12.7729    8.5251   -8.7451 F   0  0  0  0  0  0  0  0  0  0  0  0
   10.7134    7.3635   -8.3705 C   0  0  0  0  0  0  0  0  0  0  0  0
   11.1772    5.7723   -1.9356 H   0  0  0  0  0  0  0  0  0  0  0  0
   12.5835    6.7779   -2.1648 H   0  0  0  0  0  0  0  0  0  0  0  0
   10.9751    7.4972   -2.0642 H   0  0  0  0  0  0  0  0  0  0  0  0
   10.3890    6.1723   -4.2215 H   0  0  0  0  0  0  0  0  0  0  0  0
   12.0856    5.7723   -4.3654 H   0  0  0  0  0  0  0  0  0  0  0  0
   12.8860    8.7635   -3.2457 H   0  0  0  0  0  0  0  0  0  0  0  0
   11.7567   10.0729   -7.0167 H   0  0  0  0  0  0  0  0  0  0  0  0
    8.8860    6.4099   -5.7961 H   0  0  0  0  0  0  0  0  0  0  0  0
    7.9923    5.7102   -7.9959 H   0  0  0  0  0  0  0  0  0  0  0  0
    8.6667    5.9497  -10.7660 H   0  0  0  0  0  0  0  0  0  0  0  0
   10.4065    6.9230  -12.2747 H   0  0  0  0  0  0  0  0  0  0  0  0
  2  1  1  0
  3  2  1  0
  4  3  1  0
  5  4  2  0
  6  5  1  0
  7  3  1  0
  7  6  2  0
  8  7  1  0
  9  8  2  0
 10  9  1  0
 11 10  1  0
 12 11  2  0
 13 12  1  0
 14 13  2  0
 15 14  1  0
 16 14  1  0
 17 16  1  0
 18  8  1  0
 18 11  1  0
 18 16  2  0
 19  1  1  0
 20  1  1  0
 21  1  1  0
 22  2  1  0
 23  2  1  0
 24  4  1  0
 25  6  1  0
 26  9  1  0
 27 10  1  0
 28 12  1  0
 29 13  1  0
M  END
>  <b_m_subgroup_collapsed>  (1224) 
0

>  <r_i_docking_score>  (1224) 
-6.4136925739659896

>  <s_m_subgroup_title>  (1224) 
glide-dock_SP_D22_pv

>  <s_m_subgroupid>  (1224) 
glide-dock_SP_D22_pv

>  <Molecule ChEMBL ID>  (1224) 
CHEMBL4555115

>  <Standard Type>  (1224) 
Ki

>  <Standard Value>  (1224) 
10000.0

>  <label>  (1224) 
0

$$$$
CHEMBL482977
     RDKit          3D

 41 43  0  0  1  0  0  0  0  0999 V2000
    9.8830    4.3039  -12.8813 C   0  0  0  0  0  0  0  0  0  0  0  0
    8.7027    5.2698  -12.7086 C   0  0  0  0  0  0  0  0  0  0  0  0
    8.9795    6.4216  -11.7198 C   0  0  0  0  0  0  0  0  0  0  0  0
    9.4229    5.9675  -10.3680 N   0  0  2  0  0  0  0  0  0  0  0  0
    8.3811    5.1524   -9.7036 C   0  0  0  0  0  0  0  0  0  0  0  0
    8.8488    4.6611   -8.3331 C   0  0  0  0  0  0  0  0  0  0  0  0
    9.2038    5.7722   -7.5183 O   0  0  0  0  0  0  0  0  0  0  0  0
   10.2975    6.4802   -8.0700 C   0  0  2  0  0  0  0  0  0  0  0  0
   10.8639    7.5165   -7.0985 C   0  0  0  0  0  0  0  0  0  0  0  0
   11.1181    7.1757   -5.7449 C   0  0  0  0  0  0  0  0  0  0  0  0
   11.6855    8.1213   -4.8504 C   0  0  0  0  0  0  0  0  0  0  0  0
   12.0726    7.7561   -3.4415 C   0  0  0  0  0  0  0  0  0  0  0  0
   11.9637    6.5709   -3.0751 O   0  0  0  0  0  0  0  0  0  0  0  0
   12.4860    8.6525   -2.6733 O   0  0  0  0  0  0  0  0  0  0  0  0
   11.9203    9.4307   -5.3082 C   0  0  0  0  0  0  0  0  0  0  0  0
   11.6825    9.7709   -6.6481 C   0  0  0  0  0  0  0  0  0  0  0  0
   11.2106    8.8077   -7.5610 C   0  0  0  0  0  0  0  0  0  0  0  0
   11.0718    9.1767   -9.0318 C   0  0  0  0  0  0  0  0  0  0  0  0
   10.9405    7.9834   -9.9725 C   0  0  0  0  0  0  0  0  0  0  0  0
    9.8357    7.0633   -9.4381 C   0  0  1  0  0  0  0  0  0  0  0  0
    9.6671    3.5709  -13.6575 H   0  0  0  0  0  0  0  0  0  0  0  0
   10.0852    3.7494  -11.9656 H   0  0  0  0  0  0  0  0  0  0  0  0
   10.7900    4.8311  -13.1689 H   0  0  0  0  0  0  0  0  0  0  0  0
    8.4701    5.7064  -13.6806 H   0  0  0  0  0  0  0  0  0  0  0  0
    7.8089    4.7120  -12.4298 H   0  0  0  0  0  0  0  0  0  0  0  0
    9.7418    7.0372  -12.1892 H   0  0  0  0  0  0  0  0  0  0  0  0
    8.0874    7.0466  -11.6248 H   0  0  0  0  0  0  0  0  0  0  0  0
    7.4987    5.7788   -9.5921 H   0  0  0  0  0  0  0  0  0  0  0  0
    8.0935    4.2912  -10.3038 H   0  0  0  0  0  0  0  0  0  0  0  0
    8.0647    4.0893   -7.8472 H   0  0  0  0  0  0  0  0  0  0  0  0
    9.6861    3.9763   -8.4624 H   0  0  0  0  0  0  0  0  0  0  0  0
   11.1120    5.7758   -8.2350 H   0  0  0  0  0  0  0  0  0  0  0  0
   10.9047    6.1737   -5.3976 H   0  0  0  0  0  0  0  0  0  0  0  0
   12.3229   10.1722   -4.6361 H   0  0  0  0  0  0  0  0  0  0  0  0
   11.8758   10.7800   -6.9683 H   0  0  0  0  0  0  0  0  0  0  0  0
   10.1692    9.7726   -9.1343 H   0  0  0  0  0  0  0  0  0  0  0  0
   11.9185    9.7721   -9.3625 H   0  0  0  0  0  0  0  0  0  0  0  0
   10.7283    8.3880  -10.9595 H   0  0  0  0  0  0  0  0  0  0  0  0
   11.8863    7.4449  -10.0445 H   0  0  0  0  0  0  0  0  0  0  0  0
    8.9480    7.6803   -9.2682 H   0  0  0  0  0  0  0  0  0  0  0  0
   10.2264    5.3723  -10.5065 H   0  0  0  0  0  0  0  0  0  0  0  0
  2  1  1  0
  3  2  1  0
  4  3  1  0
  5  4  1  0
  6  5  1  0
  7  6  1  0
  8  7  1  0
  9  8  1  0
 10  9  1  0
 11 10  2  0
 12 11  1  0
 13 12  2  0
 14 12  1  0
 15 11  1  0
 16 15  2  0
 17  9  2  0
 17 16  1  0
 18 17  1  0
 19 18  1  0
 20  4  1  0
 20  8  1  0
 20 19  1  0
 21  1  1  0
 22  1  1  0
 23  1  1  0
 24  2  1  0
 25  2  1  0
 26  3  1  0
 27  3  1  0
 28  5  1  0
 29  5  1  0
 30  6  1  0
 31  6  1  0
  8 32  1  6
 33 10  1  0
 34 15  1  0
 35 16  1  0
 36 18  1  0
 37 18  1  0
 38 19  1  0
 39 19  1  0
 20 40  1  1
  4 41  1  6
M  CHG  2   4   1  14  -1
M  END
>  <b_m_subgroup_collapsed>  (1225) 
0

>  <r_i_docking_score>  (1225) 
-6.4117229486415601

>  <s_m_subgroup_title>  (1225) 
glide-dock_SP_D22_pv

>  <s_m_subgroupid>  (1225) 
glide-dock_SP_D22_pv

>  <Molecule ChEMBL ID>  (1225) 
CHEMBL482977

>  <Standard Type>  (1225) 
Ki

>  <Standard Value>  (1225) 
10000.0

>  <label>  (1225) 
0

$$$$
CHEMBL2443002
     RDKit          3D

 59 62  0  0  1  0  0  0  0  0999 V2000
   11.7880   11.0594   -6.1472 C   0  0  0  0  0  0  0  0  0  0  0  0
   11.2083    9.7869   -6.2873 O   0  0  0  0  0  0  0  0  0  0  0  0
   11.4434    8.8747   -5.2836 C   0  0  0  0  0  0  0  0  0  0  0  0
   12.1752    9.1806   -4.1007 C   0  0  0  0  0  0  0  0  0  0  0  0
   12.4624    8.1909   -3.1445 C   0  0  0  0  0  0  0  0  0  0  0  0
   12.0277    6.8767   -3.3617 C   0  0  0  0  0  0  0  0  0  0  0  0
   11.2860    6.5727   -4.5189 C   0  0  0  0  0  0  0  0  0  0  0  0
   10.9604    7.5607   -5.4687 C   0  0  0  0  0  0  0  0  0  0  0  0
   10.1539    7.2158   -6.5695 N   0  0  0  0  0  0  0  0  0  0  0  0
   10.5175    6.1152   -7.4483 C   0  0  0  0  0  0  0  0  0  0  0  0
   10.7179    6.6244   -8.8883 C   0  0  0  0  0  0  0  0  0  0  0  0
    9.5241    7.3348   -9.3532 N   0  0  0  0  0  0  0  0  0  0  0  0
    9.6740    7.7443  -10.7466 C   0  0  0  0  0  0  0  0  0  0  0  0
    9.7704    6.6960  -11.8195 C   0  0  0  0  0  0  0  0  0  0  0  0
    8.8607    5.7409  -12.1708 C   0  0  0  0  0  0  0  0  0  0  0  0
    9.4738    5.0617  -13.2090 N   0  0  0  0  0  0  0  0  0  0  0  0
    8.9437    3.9765  -14.0370 C   0  0  2  0  0  0  0  0  0  0  0  0
    7.7791    3.5246  -13.4148 O   0  0  0  0  0  0  0  0  0  0  0  0
    7.0044    2.5644  -14.1291 C   0  0  2  0  0  0  0  0  0  0  0  0
    5.7828    2.2755  -13.2392 C   0  0  0  0  0  0  0  0  0  0  0  0
    5.0293    3.4539  -13.0471 O   0  0  0  0  0  0  0  0  0  0  0  0
    7.8541    1.2945  -14.3750 C   0  0  1  0  0  0  0  0  0  0  0  0
    7.1683    0.4555  -15.2841 O   0  0  0  0  0  0  0  0  0  0  0  0
    9.2207    1.6592  -14.9814 C   0  0  2  0  0  0  0  0  0  0  0  0
   10.0377    0.5026  -14.9446 O   0  0  0  0  0  0  0  0  0  0  0  0
    9.9074    2.7758  -14.1709 C   0  0  1  0  0  0  0  0  0  0  0  0
   11.0033    3.1596  -14.8282 F   0  0  0  0  0  0  0  0  0  0  0  0
   10.6911    5.5975  -13.4775 N   0  0  0  0  0  0  0  0  0  0  0  0
   10.8858    6.5730  -12.6461 N   0  0  0  0  0  0  0  0  0  0  0  0
    9.3144    8.5059   -8.4947 C   0  0  0  0  0  0  0  0  0  0  0  0
    9.0529    8.0501   -7.0442 C   0  0  0  0  0  0  0  0  0  0  0  0
   11.6827   11.6582   -7.0466 H   0  0  0  0  0  0  0  0  0  0  0  0
   11.2863   11.5697   -5.3233 H   0  0  0  0  0  0  0  0  0  0  0  0
   12.8582   10.9692   -5.9656 H   0  0  0  0  0  0  0  0  0  0  0  0
   12.5459   10.1704   -3.9002 H   0  0  0  0  0  0  0  0  0  0  0  0
   13.0174    8.4395   -2.2511 H   0  0  0  0  0  0  0  0  0  0  0  0
   12.2384    6.1041   -2.6379 H   0  0  0  0  0  0  0  0  0  0  0  0
   10.9110    5.5775   -4.6480 H   0  0  0  0  0  0  0  0  0  0  0  0
    9.7196    5.3731   -7.4318 H   0  0  0  0  0  0  0  0  0  0  0  0
   11.4276    5.6258   -7.0992 H   0  0  0  0  0  0  0  0  0  0  0  0
   10.8851    5.7713   -9.5406 H   0  0  0  0  0  0  0  0  0  0  0  0
   11.5961    7.2714   -8.9522 H   0  0  0  0  0  0  0  0  0  0  0  0
   10.5357    8.4103  -10.8146 H   0  0  0  0  0  0  0  0  0  0  0  0
    8.8140    8.3725  -10.9840 H   0  0  0  0  0  0  0  0  0  0  0  0
    7.8766    5.5181  -11.7829 H   0  0  0  0  0  0  0  0  0  0  0  0
    8.6911    4.4032  -15.0093 H   0  0  0  0  0  0  0  0  0  0  0  0
    6.6772    2.9763  -15.0843 H   0  0  0  0  0  0  0  0  0  0  0  0
    6.0847    1.8789  -12.2711 H   0  0  0  0  0  0  0  0  0  0  0  0
    5.1434    1.5275  -13.7087 H   0  0  0  0  0  0  0  0  0  0  0  0
    5.5866    4.0882  -12.6178 H   0  0  0  0  0  0  0  0  0  0  0  0
    7.9999    0.7478  -13.4470 H   0  0  0  0  0  0  0  0  0  0  0  0
    7.6965   -0.3162  -15.4455 H   0  0  0  0  0  0  0  0  0  0  0  0
    9.0974    1.9848  -16.0179 H   0  0  0  0  0  0  0  0  0  0  0  0
   10.2213    0.3042  -14.0379 H   0  0  0  0  0  0  0  0  0  0  0  0
   10.2034    2.4586  -13.1722 H   0  0  0  0  0  0  0  0  0  0  0  0
   10.1788    9.1698   -8.5411 H   0  0  0  0  0  0  0  0  0  0  0  0
    8.4574    9.0758   -8.8538 H   0  0  0  0  0  0  0  0  0  0  0  0
    8.1307    7.4684   -7.0018 H   0  0  0  0  0  0  0  0  0  0  0  0
    8.8978    8.9091   -6.3917 H   0  0  0  0  0  0  0  0  0  0  0  0
  2  1  1  0
  3  2  1  0
  4  3  2  0
  5  4  1  0
  6  5  2  0
  7  6  1  0
  8  3  1  0
  8  7  2  0
  9  8  1  0
 10  9  1  0
 11 10  1  0
 12 11  1  0
 13 12  1  0
 14 13  1  0
 15 14  2  0
 16 15  1  0
 17 16  1  0
 18 17  1  0
 19 18  1  0
 20 19  1  0
 21 20  1  0
 22 19  1  0
 23 22  1  0
 24 22  1  0
 25 24  1  0
 26 17  1  0
 26 24  1  0
 27 26  1  0
 28 16  1  0
 29 14  1  0
 29 28  2  0
 30 12  1  0
 31  9  1  0
 31 30  1  0
 32  1  1  0
 33  1  1  0
 34  1  1  0
 35  4  1  0
 36  5  1  0
 37  6  1  0
 38  7  1  0
 39 10  1  0
 40 10  1  0
 41 11  1  0
 42 11  1  0
 43 13  1  0
 44 13  1  0
 45 15  1  0
 17 46  1  6
 19 47  1  6
 48 20  1  0
 49 20  1  0
 50 21  1  0
 22 51  1  1
 52 23  1  0
 24 53  1  6
 54 25  1  0
 26 55  1  1
 56 30  1  0
 57 30  1  0
 58 31  1  0
 59 31  1  0
M  END
>  <b_m_subgroup_collapsed>  (1226) 
0

>  <r_i_docking_score>  (1226) 
-6.4109380476200801

>  <s_m_subgroup_title>  (1226) 
glide-dock_SP_D22_pv

>  <s_m_subgroupid>  (1226) 
glide-dock_SP_D22_pv

>  <Molecule ChEMBL ID>  (1226) 
CHEMBL2443002

>  <Standard Type>  (1226) 
Ki

>  <Standard Value>  (1226) 
23000.0

>  <label>  (1226) 
0

$$$$
CHEMBL3265329
     RDKit          3D

 48 49  0  0  1  0  0  0  0  0999 V2000
    6.2457    3.9003  -13.5006 C   0  0  0  0  0  0  0  0  0  0  0  0
    6.3847    4.4541  -12.2867 C   0  0  0  0  0  0  0  0  0  0  0  0
    7.6916    4.5290  -11.5223 C   0  0  0  0  0  0  0  0  0  0  0  0
    8.0861    5.9354  -11.2879 N   0  0  2  0  0  0  0  0  0  0  0  0
    8.3672    6.7221  -12.5133 C   0  0  0  0  0  0  0  0  0  0  0  0
    9.6107    7.5666  -12.2178 C   0  0  0  0  0  0  0  0  0  0  0  0
    9.7017    7.5538  -10.6994 C   0  0  0  0  0  0  0  0  0  0  0  0
    9.1997    6.1503  -10.3397 C   0  0  1  0  0  0  0  0  0  0  0  0
    8.7704    5.8924   -8.8712 C   0  0  0  0  0  0  0  0  0  0  0  0
    9.6684    6.4843   -7.8807 N   0  0  0  0  0  0  0  0  0  0  0  0
    9.5774    7.7526   -7.4451 C   0  0  0  0  0  0  0  0  0  0  0  0
    8.7558    8.5699   -7.8472 O   0  0  0  0  0  0  0  0  0  0  0  0
   10.6276    8.2100   -6.4948 C   0  0  0  0  0  0  0  0  0  0  0  0
   11.1368    9.5131   -6.6446 C   0  0  0  0  0  0  0  0  0  0  0  0
   12.0861   10.0155   -5.7557 C   0  0  0  0  0  0  0  0  0  0  0  0
   12.5362    9.2127   -4.7024 C   0  0  0  0  0  0  0  0  0  0  0  0
   12.0410    7.9040   -4.5346 C   0  0  0  0  0  0  0  0  0  0  0  0
   12.6127    7.0157   -3.4517 C   0  0  0  0  0  0  0  0  0  0  0  0
   11.9638    7.2032   -2.0858 C   0  0  0  0  0  0  0  0  0  0  0  0
   12.3228    8.5010   -1.3460 C   0  0  0  0  0  0  0  0  0  0  0  0
   12.0859    9.6039   -2.0387 F   0  0  0  0  0  0  0  0  0  0  0  0
   11.0778    7.3985   -5.4327 C   0  0  0  0  0  0  0  0  0  0  0  0
    7.0845    3.4585  -14.0192 H   0  0  0  0  0  0  0  0  0  0  0  0
    5.2857    3.8811  -13.9945 H   0  0  0  0  0  0  0  0  0  0  0  0
    5.5206    4.8842  -11.7995 H   0  0  0  0  0  0  0  0  0  0  0  0
    7.5414    4.0253  -10.5706 H   0  0  0  0  0  0  0  0  0  0  0  0
    8.4840    3.9978  -12.0521 H   0  0  0  0  0  0  0  0  0  0  0  0
    8.5302    6.0885  -13.3869 H   0  0  0  0  0  0  0  0  0  0  0  0
    7.5046    7.3573  -12.7201 H   0  0  0  0  0  0  0  0  0  0  0  0
   10.4939    7.0904  -12.6456 H   0  0  0  0  0  0  0  0  0  0  0  0
    9.5396    8.5755  -12.6246 H   0  0  0  0  0  0  0  0  0  0  0  0
   10.7070    7.7618  -10.3317 H   0  0  0  0  0  0  0  0  0  0  0  0
    9.0259    8.3164  -10.3119 H   0  0  0  0  0  0  0  0  0  0  0  0
    9.9990    5.4496  -10.5887 H   0  0  0  0  0  0  0  0  0  0  0  0
    7.7379    6.1861   -8.6951 H   0  0  0  0  0  0  0  0  0  0  0  0
    8.7694    4.8171   -8.6907 H   0  0  0  0  0  0  0  0  0  0  0  0
   10.4033    5.9054   -7.5035 H   0  0  0  0  0  0  0  0  0  0  0  0
   10.8107   10.1457   -7.4468 H   0  0  0  0  0  0  0  0  0  0  0  0
   12.4845   11.0062   -5.8951 H   0  0  0  0  0  0  0  0  0  0  0  0
   13.2862    9.6072   -4.0388 H   0  0  0  0  0  0  0  0  0  0  0  0
   12.4839    5.9764   -3.7545 H   0  0  0  0  0  0  0  0  0  0  0  0
   13.6859    7.1850   -3.3931 H   0  0  0  0  0  0  0  0  0  0  0  0
   10.8859    7.1094   -2.1786 H   0  0  0  0  0  0  0  0  0  0  0  0
   12.2855    6.3627   -1.4687 H   0  0  0  0  0  0  0  0  0  0  0  0
   11.6862    8.5786   -0.4681 H   0  0  0  0  0  0  0  0  0  0  0  0
   13.3676    8.5416   -1.0433 H   0  0  0  0  0  0  0  0  0  0  0  0
   10.6912    6.3975   -5.3024 H   0  0  0  0  0  0  0  0  0  0  0  0
    7.2991    6.4193  -10.8516 H   0  0  0  0  0  0  0  0  0  0  0  0
  2  1  2  0
  3  2  1  0
  4  3  1  0
  5  4  1  0
  6  5  1  0
  7  6  1  0
  8  4  1  0
  8  7  1  0
  9  8  1  0
 10  9  1  0
 11 10  1  0
 12 11  2  0
 13 11  1  0
 14 13  1  0
 15 14  2  0
 16 15  1  0
 17 16  2  0
 18 17  1  0
 19 18  1  0
 20 19  1  0
 21 20  1  0
 22 13  2  0
 22 17  1  0
 23  1  1  0
 24  1  1  0
 25  2  1  0
 26  3  1  0
 27  3  1  0
 28  5  1  0
 29  5  1  0
 30  6  1  0
 31  6  1  0
 32  7  1  0
 33  7  1  0
  8 34  1  6
 35  9  1  0
 36  9  1  0
 37 10  1  0
 38 14  1  0
 39 15  1  0
 40 16  1  0
 41 18  1  0
 42 18  1  0
 43 19  1  0
 44 19  1  0
 45 20  1  0
 46 20  1  0
 47 22  1  0
  4 48  1  1
M  CHG  1   4   1
M  END
>  <b_m_subgroup_collapsed>  (1227) 
0

>  <r_i_docking_score>  (1227) 
-6.4102906684299903

>  <s_m_subgroup_title>  (1227) 
glide-dock_SP_D22_pv

>  <s_m_subgroupid>  (1227) 
glide-dock_SP_D22_pv

>  <Molecule ChEMBL ID>  (1227) 
CHEMBL3265329

>  <Standard Type>  (1227) 
Ki

>  <Standard Value>  (1227) 
0.63

>  <label>  (1227) 
1

$$$$
CHEMBL4162575
     RDKit          3D

 54 56  0  0  1  0  0  0  0  0999 V2000
    5.3609    0.2066  -14.0083 C   0  0  0  0  0  0  0  0  0  0  0  0
    5.6841    1.5968  -13.4598 C   0  0  0  0  0  0  0  0  0  0  0  0
    4.8985    2.0826  -12.6471 O   0  0  0  0  0  0  0  0  0  0  0  0
    6.7867    2.2361  -13.9316 N   0  0  0  0  0  0  0  0  0  0  0  0
    7.7805    1.5951  -14.8102 C   0  0  0  0  0  0  0  0  0  0  0  0
    9.0542    2.4712  -14.7318 C   0  0  0  0  0  0  0  0  0  0  0  0
    8.6326    3.6069  -13.8445 C   0  0  0  0  0  0  0  0  0  0  0  0
    9.4391    4.6582  -13.3692 C   0  0  0  0  0  0  0  0  0  0  0  0
    8.8811    5.5920  -12.4593 C   0  0  0  0  0  0  0  0  0  0  0  0
    9.7524    6.6627  -11.8507 C   0  0  0  0  0  0  0  0  0  0  0  0
   10.8598    6.9268  -12.3207 O   0  0  0  0  0  0  0  0  0  0  0  0
    9.2857    7.2479  -10.7367 N   0  0  0  0  0  0  0  0  0  0  0  0
    9.9925    8.2127   -9.9075 C   0  0  0  0  0  0  0  0  0  0  0  0
   11.0873    7.5382   -9.0614 C   0  0  0  0  0  0  0  0  0  0  0  0
   11.6077    8.4226   -7.9131 C   0  0  0  0  0  0  0  0  0  0  0  0
   10.5939    8.6750   -6.8839 N   0  0  0  0  0  0  0  0  0  0  0  0
   10.1650    7.4972   -6.1218 C   0  0  0  0  0  0  0  0  0  0  0  0
   11.2509    6.9929   -5.1544 C   0  0  0  0  0  0  0  0  0  0  0  0
   11.6860    8.0804   -4.2416 N   0  0  0  0  0  0  0  0  0  0  0  0
   12.6894    7.6410   -3.2498 C   0  0  0  0  0  0  0  0  0  0  0  0
   12.0873    9.3009   -4.9836 C   0  0  0  0  0  0  0  0  0  0  0  0
   10.9745    9.7424   -5.9544 C   0  0  0  0  0  0  0  0  0  0  0  0
    7.5037    5.4789  -12.1231 C   0  0  0  0  0  0  0  0  0  0  0  0
    6.7101    4.4219  -12.6077 C   0  0  0  0  0  0  0  0  0  0  0  0
    7.3075    3.4626  -13.4478 C   0  0  0  0  0  0  0  0  0  0  0  0
    5.3362    0.2096  -15.0990 H   0  0  0  0  0  0  0  0  0  0  0  0
    6.0987   -0.5248  -13.6734 H   0  0  0  0  0  0  0  0  0  0  0  0
    4.3804   -0.1228  -13.6580 H   0  0  0  0  0  0  0  0  0  0  0  0
    7.3960    1.5596  -15.8296 H   0  0  0  0  0  0  0  0  0  0  0  0
    8.0084    0.5758  -14.4960 H   0  0  0  0  0  0  0  0  0  0  0  0
    9.3637    2.8354  -15.7115 H   0  0  0  0  0  0  0  0  0  0  0  0
    9.8862    1.9296  -14.2779 H   0  0  0  0  0  0  0  0  0  0  0  0
   10.4787    4.7160  -13.6601 H   0  0  0  0  0  0  0  0  0  0  0  0
    8.3321    7.0372  -10.4571 H   0  0  0  0  0  0  0  0  0  0  0  0
   10.4228    8.9978  -10.5280 H   0  0  0  0  0  0  0  0  0  0  0  0
    9.2499    8.6866   -9.2649 H   0  0  0  0  0  0  0  0  0  0  0  0
   10.7433    6.5746   -8.6885 H   0  0  0  0  0  0  0  0  0  0  0  0
   11.9241    7.3039   -9.7191 H   0  0  0  0  0  0  0  0  0  0  0  0
   12.4860    7.9606   -7.4703 H   0  0  0  0  0  0  0  0  0  0  0  0
   11.9375    9.3717   -8.3352 H   0  0  0  0  0  0  0  0  0  0  0  0
    9.2858    7.7714   -5.5469 H   0  0  0  0  0  0  0  0  0  0  0  0
    9.8367    6.6949   -6.7810 H   0  0  0  0  0  0  0  0  0  0  0  0
   10.8438    6.1733   -4.5617 H   0  0  0  0  0  0  0  0  0  0  0  0
   12.0860    6.5732   -5.7097 H   0  0  0  0  0  0  0  0  0  0  0  0
   13.6280    7.3723   -3.7321 H   0  0  0  0  0  0  0  0  0  0  0  0
   12.8889    8.4364   -2.5310 H   0  0  0  0  0  0  0  0  0  0  0  0
   12.3296    6.7747   -2.6950 H   0  0  0  0  0  0  0  0  0  0  0  0
   12.2653   10.1017   -4.2655 H   0  0  0  0  0  0  0  0  0  0  0  0
   13.0255    9.1503   -5.5129 H   0  0  0  0  0  0  0  0  0  0  0  0
   11.2854   10.6259   -6.5142 H   0  0  0  0  0  0  0  0  0  0  0  0
   10.0909   10.0402   -5.3863 H   0  0  0  0  0  0  0  0  0  0  0  0
    7.0329    6.1727  -11.4470 H   0  0  0  0  0  0  0  0  0  0  0  0
    5.6820    4.3492  -12.2882 H   0  0  0  0  0  0  0  0  0  0  0  0
   10.8678    8.3408   -3.7117 H   0  0  0  0  0  0  0  0  0  0  0  0
  2  1  1  0
  3  2  2  0
  4  2  1  0
  5  4  1  0
  6  5  1  0
  7  6  1  0
  8  7  1  0
  9  8  2  0
 10  9  1  0
 11 10  2  0
 12 10  1  0
 13 12  1  0
 14 13  1  0
 15 14  1  0
 16 15  1  0
 17 16  1  0
 18 17  1  0
 19 18  1  0
 20 19  1  0
 21 19  1  0
 22 16  1  0
 22 21  1  0
 23  9  1  0
 24 23  2  0
 25  4  1  0
 25  7  2  0
 25 24  1  0
 26  1  1  0
 27  1  1  0
 28  1  1  0
 29  5  1  0
 30  5  1  0
 31  6  1  0
 32  6  1  0
 33  8  1  0
 34 12  1  0
 35 13  1  0
 36 13  1  0
 37 14  1  0
 38 14  1  0
 39 15  1  0
 40 15  1  0
 41 17  1  0
 42 17  1  0
 43 18  1  0
 44 18  1  0
 45 20  1  0
 46 20  1  0
 47 20  1  0
 48 21  1  0
 49 21  1  0
 50 22  1  0
 51 22  1  0
 52 23  1  0
 53 24  1  0
 54 19  1  0
M  CHG  1  19   1
M  END
>  <b_m_subgroup_collapsed>  (1228) 
0

>  <r_i_docking_score>  (1228) 
-6.41003460156639

>  <s_m_subgroup_title>  (1228) 
glide-dock_SP_D22_pv

>  <s_m_subgroupid>  (1228) 
glide-dock_SP_D22_pv

>  <Molecule ChEMBL ID>  (1228) 
CHEMBL4162575

>  <Standard Type>  (1228) 
Ki

>  <Standard Value>  (1228) 
10000.0

>  <label>  (1228) 
0

$$$$
CHEMBL5075990
     RDKit          3D

 97100  0  0  1  0  0  0  0  0999 V2000
   10.5975    7.6932   -9.3805 C   0  0  0  0  0  0  0  0  0  0  0  0
   10.6423    8.1571  -10.8433 C   0  0  0  0  0  0  0  0  0  0  0  0
   10.2976    7.0466  -11.8285 C   0  0  0  0  0  0  0  0  0  0  0  0
    9.0047    6.4888  -11.7794 C   0  0  0  0  0  0  0  0  0  0  0  0
    8.6363    5.4472  -12.6433 C   0  0  0  0  0  0  0  0  0  0  0  0
    7.0498    4.7686  -12.5414 Cl  0  0  0  0  0  0  0  0  0  0  0  0
    9.5582    4.9568  -13.5884 C   0  0  0  0  0  0  0  0  0  0  0  0
    9.1649    3.9355  -14.4234 O   0  0  0  0  0  0  0  0  0  0  0  0
    9.6610    2.6545  -14.0541 C   0  0  0  0  0  0  0  0  0  0  0  0
   10.8531    5.5391  -13.6855 C   0  0  0  0  0  0  0  0  0  0  0  0
   11.7868    5.0592  -14.7563 C   0  0  0  0  0  0  0  0  0  0  0  0
   12.8851    4.5789  -14.4805 O   0  0  0  0  0  0  0  0  0  0  0  0
   11.2876    5.1530  -15.9965 N   0  0  0  0  0  0  0  0  0  0  0  0
   11.7476    4.4055  -17.1577 C   0  0  0  0  0  0  0  0  0  0  0  0
   13.1536    4.7927  -17.6598 C   0  0  2  0  0  0  0  0  0  0  0  0
   13.3240    6.2811  -17.9668 C   0  0  0  0  0  0  0  0  0  0  0  0
   14.4730    6.3332  -18.9771 C   0  0  0  0  0  0  0  0  0  0  0  0
   14.6214    4.9009  -19.5070 C   0  0  0  0  0  0  0  0  0  0  0  0
   13.5050    4.1173  -18.9325 N   0  0  1  0  0  0  0  0  0  0  0  0
   13.7534    2.6523  -18.8514 C   0  0  0  0  0  0  0  0  0  0  0  0
   12.5150    1.8239  -19.2546 C   0  0  0  0  0  0  0  0  0  0  0  0
   12.6543    0.3311  -18.8982 C   0  0  0  0  0  0  0  0  0  0  0  0
   11.3846   -0.4995  -19.1588 C   0  0  0  0  0  0  0  0  0  0  0  0
   10.3312   -0.1890  -18.1763 N   0  0  0  0  0  0  0  0  0  0  0  0
    9.0136   -0.8189  -18.4201 C   0  0  0  0  0  0  0  0  0  0  0  0
    8.0376   -0.3350  -17.3350 C   0  0  0  0  0  0  0  0  0  0  0  0
    6.4741   -0.6088  -17.4333 C   0  0  0  0  0  0  0  0  0  0  0  0
    5.8908    0.3782  -18.5091 C   0  0  0  0  0  0  0  0  0  0  0  0
    6.5706    1.3734  -18.7677 O   0  0  0  0  0  0  0  0  0  0  0  0
    4.7241    0.1967  -19.1938 N   0  0  0  0  0  0  0  0  0  0  0  0
    4.3949    1.1516  -20.2540 C   0  0  0  0  0  0  0  0  0  0  0  0
    3.7738   -0.9175  -19.1413 C   0  0  0  0  0  0  0  0  0  0  0  0
    6.2364   -2.0866  -17.8936 C   0  0  0  0  0  0  0  0  0  0  0  0
    6.5369   -2.4794  -19.2287 C   0  0  0  0  0  0  0  0  0  0  0  0
    6.2726   -3.7801  -19.7001 C   0  0  0  0  0  0  0  0  0  0  0  0
    5.6790   -4.7275  -18.8496 C   0  0  0  0  0  0  0  0  0  0  0  0
    5.3804   -4.3755  -17.5227 C   0  0  0  0  0  0  0  0  0  0  0  0
    5.6859   -3.0848  -17.0459 C   0  0  0  0  0  0  0  0  0  0  0  0
    5.8511   -0.1918  -16.0493 C   0  0  0  0  0  0  0  0  0  0  0  0
    4.5788   -0.6276  -15.5838 C   0  0  0  0  0  0  0  0  0  0  0  0
    4.0930   -0.2714  -14.3072 C   0  0  0  0  0  0  0  0  0  0  0  0
    4.8489    0.5621  -13.4641 C   0  0  0  0  0  0  0  0  0  0  0  0
    6.0670    1.0718  -13.9208 C   0  0  0  0  0  0  0  0  0  0  0  0
    6.5499    0.7059  -15.1854 C   0  0  0  0  0  0  0  0  0  0  0  0
   11.2318    6.5724  -12.7857 C   0  0  0  0  0  0  0  0  0  0  0  0
   12.4856    7.1229  -12.8422 O   0  0  0  0  0  0  0  0  0  0  0  0
   10.8704    8.5082   -8.7092 H   0  0  0  0  0  0  0  0  0  0  0  0
    9.5966    7.3643   -9.0970 H   0  0  0  0  0  0  0  0  0  0  0  0
   11.2860    6.8647   -9.2069 H   0  0  0  0  0  0  0  0  0  0  0  0
   11.6276    8.5755  -11.0469 H   0  0  0  0  0  0  0  0  0  0  0  0
    9.9312    8.9710  -10.9865 H   0  0  0  0  0  0  0  0  0  0  0  0
    8.2809    6.8581  -11.0664 H   0  0  0  0  0  0  0  0  0  0  0  0
    9.8370    2.0602  -14.9506 H   0  0  0  0  0  0  0  0  0  0  0  0
   10.5942    2.6925  -13.4914 H   0  0  0  0  0  0  0  0  0  0  0  0
    8.9279    2.1282  -13.4472 H   0  0  0  0  0  0  0  0  0  0  0  0
   10.3866    5.6017  -16.0818 H   0  0  0  0  0  0  0  0  0  0  0  0
   11.7243    3.3526  -16.8795 H   0  0  0  0  0  0  0  0  0  0  0  0
   11.0105    4.5433  -17.9480 H   0  0  0  0  0  0  0  0  0  0  0  0
   13.9012    4.5118  -16.9147 H   0  0  0  0  0  0  0  0  0  0  0  0
   12.4185    6.6786  -18.4245 H   0  0  0  0  0  0  0  0  0  0  0  0
   13.5270    6.8712  -17.0706 H   0  0  0  0  0  0  0  0  0  0  0  0
   14.2552    7.0429  -19.7783 H   0  0  0  0  0  0  0  0  0  0  0  0
   15.3977    6.6562  -18.4936 H   0  0  0  0  0  0  0  0  0  0  0  0
   14.6070    4.8582  -20.5978 H   0  0  0  0  0  0  0  0  0  0  0  0
   15.5793    4.4933  -19.1764 H   0  0  0  0  0  0  0  0  0  0  0  0
   14.5770    2.3745  -19.5130 H   0  0  0  0  0  0  0  0  0  0  0  0
   14.0814    2.3954  -17.8462 H   0  0  0  0  0  0  0  0  0  0  0  0
   11.6219    2.2188  -18.7756 H   0  0  0  0  0  0  0  0  0  0  0  0
   12.3449    1.9296  -20.3264 H   0  0  0  0  0  0  0  0  0  0  0  0
   13.4816   -0.0931  -19.4697 H   0  0  0  0  0  0  0  0  0  0  0  0
   12.9271    0.2302  -17.8472 H   0  0  0  0  0  0  0  0  0  0  0  0
   11.0262   -0.3430  -20.1768 H   0  0  0  0  0  0  0  0  0  0  0  0
   11.6266   -1.5524  -19.0474 H   0  0  0  0  0  0  0  0  0  0  0  0
   10.6552   -0.4675  -17.2599 H   0  0  0  0  0  0  0  0  0  0  0  0
    8.6717   -0.5141  -19.4100 H   0  0  0  0  0  0  0  0  0  0  0  0
    9.1124   -1.9053  -18.4055 H   0  0  0  0  0  0  0  0  0  0  0  0
    8.4185   -0.6732  -16.3757 H   0  0  0  0  0  0  0  0  0  0  0  0
    8.2322    0.7335  -17.2715 H   0  0  0  0  0  0  0  0  0  0  0  0
    4.4849    2.1722  -19.8814 H   0  0  0  0  0  0  0  0  0  0  0  0
    5.0815    1.0378  -21.0935 H   0  0  0  0  0  0  0  0  0  0  0  0
    3.3864    1.0297  -20.6464 H   0  0  0  0  0  0  0  0  0  0  0  0
    3.7173   -1.4183  -18.1847 H   0  0  0  0  0  0  0  0  0  0  0  0
    2.7611   -0.5810  -19.3587 H   0  0  0  0  0  0  0  0  0  0  0  0
    4.0222   -1.6590  -19.9001 H   0  0  0  0  0  0  0  0  0  0  0  0
    6.9384   -1.7731  -19.9379 H   0  0  0  0  0  0  0  0  0  0  0  0
    6.4957   -4.0407  -20.7253 H   0  0  0  0  0  0  0  0  0  0  0  0
    5.4394   -5.7166  -19.2128 H   0  0  0  0  0  0  0  0  0  0  0  0
    4.8955   -5.0878  -16.8679 H   0  0  0  0  0  0  0  0  0  0  0  0
    5.4827   -2.8956  -16.0052 H   0  0  0  0  0  0  0  0  0  0  0  0
    3.9560   -1.2841  -16.1644 H   0  0  0  0  0  0  0  0  0  0  0  0
    3.1306   -0.6386  -13.9797 H   0  0  0  0  0  0  0  0  0  0  0  0
    4.4951    0.8659  -12.4970 H   0  0  0  0  0  0  0  0  0  0  0  0
    6.6163    1.7748  -13.3177 H   0  0  0  0  0  0  0  0  0  0  0  0
    7.4842    1.1698  -15.4413 H   0  0  0  0  0  0  0  0  0  0  0  0
   13.1353    6.5737  -13.2646 H   0  0  0  0  0  0  0  0  0  0  0  0
   10.1895    0.8107  -18.1747 H   0  0  0  0  0  0  0  0  0  0  0  0
   12.7286    4.2613  -19.5614 H   0  0  0  0  0  0  0  0  0  0  0  0
  2  1  1  0
  3  2  1  0
  4  3  1  0
  5  4  2  0
  6  5  1  0
  7  5  1  0
  8  7  1  0
  9  8  1  0
 10  7  2  0
 11 10  1  0
 12 11  2  0
 13 11  1  0
 14 13  1  0
 15 14  1  0
 16 15  1  0
 17 16  1  0
 18 17  1  0
 19 15  1  0
 19 18  1  0
 20 19  1  0
 21 20  1  0
 22 21  1  0
 23 22  1  0
 24 23  1  0
 25 24  1  0
 26 25  1  0
 27 26  1  0
 28 27  1  0
 29 28  2  0
 30 28  1  0
 31 30  1  0
 32 30  1  0
 33 27  1  0
 34 33  2  0
 35 34  1  0
 36 35  2  0
 37 36  1  0
 38 33  1  0
 38 37  2  0
 39 27  1  0
 40 39  2  0
 41 40  1  0
 42 41  2  0
 43 42  1  0
 44 39  1  0
 44 43  2  0
 45  3  2  0
 45 10  1  0
 46 45  1  0
 47  1  1  0
 48  1  1  0
 49  1  1  0
 50  2  1  0
 51  2  1  0
 52  4  1  0
 53  9  1  0
 54  9  1  0
 55  9  1  0
 56 13  1  0
 57 14  1  0
 58 14  1  0
 15 59  1  1
 60 16  1  0
 61 16  1  0
 62 17  1  0
 63 17  1  0
 64 18  1  0
 65 18  1  0
 66 20  1  0
 67 20  1  0
 68 21  1  0
 69 21  1  0
 70 22  1  0
 71 22  1  0
 72 23  1  0
 73 23  1  0
 74 24  1  0
 75 25  1  0
 76 25  1  0
 77 26  1  0
 78 26  1  0
 79 31  1  0
 80 31  1  0
 81 31  1  0
 82 32  1  0
 83 32  1  0
 84 32  1  0
 85 34  1  0
 86 35  1  0
 87 36  1  0
 88 37  1  0
 89 38  1  0
 90 40  1  0
 91 41  1  0
 92 42  1  0
 93 43  1  0
 94 44  1  0
 95 46  1  0
 96 24  1  0
 19 97  1  6
M  CHG  2  19   1  24   1
M  END
>  <b_m_subgroup_collapsed>  (1229) 
0

>  <r_i_docking_score>  (1229) 
-6.4091425031411404

>  <s_m_subgroup_title>  (1229) 
glide-dock_SP_D22_pv

>  <s_m_subgroupid>  (1229) 
glide-dock_SP_D22_pv

>  <Molecule ChEMBL ID>  (1229) 
CHEMBL5075990

>  <Standard Type>  (1229) 
Ki

>  <Standard Value>  (1229) 
93.7

>  <label>  (1229) 
1

$$$$
CHEMBL4435235
     RDKit          3D

 33 35  0  0  1  0  0  0  0  0999 V2000
   11.7573    6.7068   -3.2720 C   0  0  0  0  0  0  0  0  0  0  0  0
   11.1549    6.6277   -4.6882 C   0  0  0  0  0  0  0  0  0  0  0  0
   11.2859    7.8636   -5.4496 N   0  0  0  0  0  0  0  0  0  0  0  0
   11.8650    9.0094   -5.0460 C   0  0  0  0  0  0  0  0  0  0  0  0
   11.9340    9.9565   -5.9677 N   0  0  0  0  0  0  0  0  0  0  0  0
   11.3344    9.3728   -7.0761 C   0  0  0  0  0  0  0  0  0  0  0  0
   10.8758    8.1167   -6.7629 C   0  0  0  0  0  0  0  0  0  0  0  0
   10.0904    7.2034   -7.5906 C   0  0  0  0  0  0  0  0  0  0  0  0
    9.0097    6.4572   -7.1949 C   0  0  0  0  0  0  0  0  0  0  0  0
    8.4861    5.7722   -8.2714 N   0  0  0  0  0  0  0  0  0  0  0  0
    9.1470    6.1128   -9.4238 C   0  0  0  0  0  0  0  0  0  0  0  0
    8.9258    5.7693  -10.7655 C   0  0  0  0  0  0  0  0  0  0  0  0
    9.8020    6.2457  -11.7529 C   0  0  0  0  0  0  0  0  0  0  0  0
   10.9279    7.0256  -11.3904 C   0  0  0  0  0  0  0  0  0  0  0  0
   11.9857    7.3723  -12.4127 C   0  0  0  0  0  0  0  0  0  0  0  0
   11.9591    6.7008  -13.5652 N   0  0  0  0  0  0  0  0  0  0  0  0
   12.8862    8.1723  -12.1788 O   0  0  0  0  0  0  0  0  0  0  0  0
   11.0950    7.4089  -10.0299 C   0  0  0  0  0  0  0  0  0  0  0  0
   12.1515    8.1701   -9.6546 F   0  0  0  0  0  0  0  0  0  0  0  0
   10.2049    6.9746   -9.0172 C   0  0  0  0  0  0  0  0  0  0  0  0
   11.6272    5.7725   -2.7314 H   0  0  0  0  0  0  0  0  0  0  0  0
   12.8279    6.9108   -3.3079 H   0  0  0  0  0  0  0  0  0  0  0  0
   11.2858    7.4869   -2.6737 H   0  0  0  0  0  0  0  0  0  0  0  0
   10.1014    6.3609   -4.6351 H   0  0  0  0  0  0  0  0  0  0  0  0
   11.6505    5.8366   -5.2513 H   0  0  0  0  0  0  0  0  0  0  0  0
   12.2820    9.1581   -4.0610 H   0  0  0  0  0  0  0  0  0  0  0  0
   11.2507    9.9105   -8.0066 H   0  0  0  0  0  0  0  0  0  0  0  0
    8.5343    6.3742   -6.2318 H   0  0  0  0  0  0  0  0  0  0  0  0
    7.6442    5.2159   -8.2217 H   0  0  0  0  0  0  0  0  0  0  0  0
    8.0823    5.1484  -11.0307 H   0  0  0  0  0  0  0  0  0  0  0  0
    9.6180    5.9590  -12.7771 H   0  0  0  0  0  0  0  0  0  0  0  0
   11.2518    6.0044  -13.7384 H   0  0  0  0  0  0  0  0  0  0  0  0
   12.6959    6.8655  -14.2352 H   0  0  0  0  0  0  0  0  0  0  0  0
  2  1  1  0
  3  2  1  0
  4  3  1  0
  5  4  2  0
  6  5  1  0
  7  3  1  0
  7  6  2  0
  8  7  1  0
  9  8  2  0
 10  9  1  0
 11 10  1  0
 12 11  2  0
 13 12  1  0
 14 13  2  0
 15 14  1  0
 16 15  1  0
 17 15  2  0
 18 14  1  0
 19 18  1  0
 20  8  1  0
 20 11  1  0
 20 18  2  0
 21  1  1  0
 22  1  1  0
 23  1  1  0
 24  2  1  0
 25  2  1  0
 26  4  1  0
 27  6  1  0
 28  9  1  0
 29 10  1  0
 30 12  1  0
 31 13  1  0
 32 16  1  0
 33 16  1  0
M  END
>  <b_m_subgroup_collapsed>  (1230) 
0

>  <r_i_docking_score>  (1230) 
-6.4080651583170498

>  <s_m_subgroup_title>  (1230) 
glide-dock_SP_D22_pv

>  <s_m_subgroupid>  (1230) 
glide-dock_SP_D22_pv

>  <Molecule ChEMBL ID>  (1230) 
CHEMBL4435235

>  <Standard Type>  (1230) 
Ki

>  <Standard Value>  (1230) 
10000.0

>  <label>  (1230) 
0

$$$$
CHEMBL432762
     RDKit          3D

 48 51  0  0  1  0  0  0  0  0999 V2000
   11.0199    2.7986  -14.1968 C   0  0  0  0  0  0  0  0  0  0  0  0
   10.8056    4.2206  -13.6343 C   0  0  1  0  0  0  0  0  0  0  0  0
   11.5074    5.3192  -14.4312 C   0  0  0  0  0  0  0  0  0  0  0  0
   11.9741    5.0857  -15.7495 C   0  0  0  0  0  0  0  0  0  0  0  0
   12.6845    6.0756  -16.4510 C   0  0  0  0  0  0  0  0  0  0  0  0
   12.9473    7.3134  -15.8423 C   0  0  0  0  0  0  0  0  0  0  0  0
   12.4860    7.5590  -14.5374 C   0  0  0  0  0  0  0  0  0  0  0  0
   11.7495    6.5815  -13.8306 C   0  0  0  0  0  0  0  0  0  0  0  0
   11.2294    6.9572  -12.5009 C   0  0  0  0  0  0  0  0  0  0  0  0
   10.0659    6.5774  -11.9163 C   0  0  0  0  0  0  0  0  0  0  0  0
    9.7741    6.9247  -10.5892 N   0  0  0  0  0  0  0  0  0  0  0  0
    9.0194    6.0714   -9.6665 C   0  0  0  0  0  0  0  0  0  0  0  0
    9.8199    5.7831   -8.3909 C   0  0  0  0  0  0  0  0  0  0  0  0
   10.2448    7.0453   -7.7437 N   0  0  0  0  0  0  0  0  0  0  0  0
   10.9750    6.8100   -6.4789 C   0  0  0  0  0  0  0  0  0  0  0  0
   10.9893    7.9253   -8.6822 C   0  0  0  0  0  0  0  0  0  0  0  0
   10.1698    8.1828   -9.9599 C   0  0  0  0  0  0  0  0  0  0  0  0
    9.0362    5.7245  -12.5792 C   0  0  0  0  0  0  0  0  0  0  0  0
    7.6739    6.0617  -12.3960 C   0  0  0  0  0  0  0  0  0  0  0  0
    6.6390    5.2309  -12.8497 C   0  0  0  0  0  0  0  0  0  0  0  0
    6.9515    4.0686  -13.5709 C   0  0  0  0  0  0  0  0  0  0  0  0
    8.2954    3.7643  -13.8481 C   0  0  0  0  0  0  0  0  0  0  0  0
    9.3467    4.5771  -13.3616 C   0  0  0  0  0  0  0  0  0  0  0  0
   10.5584    2.6580  -15.1735 H   0  0  0  0  0  0  0  0  0  0  0  0
   12.0806    2.5868  -14.3082 H   0  0  0  0  0  0  0  0  0  0  0  0
   10.6094    2.0537  -13.5162 H   0  0  0  0  0  0  0  0  0  0  0  0
   11.2862    4.2011  -12.6583 H   0  0  0  0  0  0  0  0  0  0  0  0
   11.8029    4.1443  -16.2484 H   0  0  0  0  0  0  0  0  0  0  0  0
   13.0303    5.8829  -17.4563 H   0  0  0  0  0  0  0  0  0  0  0  0
   13.4911    8.0782  -16.3777 H   0  0  0  0  0  0  0  0  0  0  0  0
   12.6807    8.5218  -14.0917 H   0  0  0  0  0  0  0  0  0  0  0  0
   11.9254    7.5442  -11.9229 H   0  0  0  0  0  0  0  0  0  0  0  0
    8.0862    6.5714   -9.4148 H   0  0  0  0  0  0  0  0  0  0  0  0
    8.7497    5.1185  -10.1222 H   0  0  0  0  0  0  0  0  0  0  0  0
    9.2087    5.2015   -7.7032 H   0  0  0  0  0  0  0  0  0  0  0  0
   10.6908    5.1749   -8.6379 H   0  0  0  0  0  0  0  0  0  0  0  0
   11.9121    6.2758   -6.6556 H   0  0  0  0  0  0  0  0  0  0  0  0
   11.2052    7.7559   -5.9881 H   0  0  0  0  0  0  0  0  0  0  0  0
   10.3737    6.2191   -5.7886 H   0  0  0  0  0  0  0  0  0  0  0  0
   11.2249    8.8719   -8.1951 H   0  0  0  0  0  0  0  0  0  0  0  0
   11.9405    7.4576   -8.9469 H   0  0  0  0  0  0  0  0  0  0  0  0
   10.7308    8.8149  -10.6469 H   0  0  0  0  0  0  0  0  0  0  0  0
    9.2625    8.7402   -9.7171 H   0  0  0  0  0  0  0  0  0  0  0  0
    7.4108    6.9576  -11.8524 H   0  0  0  0  0  0  0  0  0  0  0  0
    5.6101    5.4920  -12.6527 H   0  0  0  0  0  0  0  0  0  0  0  0
    6.1622    3.4294  -13.9352 H   0  0  0  0  0  0  0  0  0  0  0  0
    8.4870    2.8803  -14.4321 H   0  0  0  0  0  0  0  0  0  0  0  0
    9.3910    7.5327   -7.5084 H   0  0  0  0  0  0  0  0  0  0  0  0
  2  1  1  0
  3  2  1  0
  4  3  2  0
  5  4  1  0
  6  5  2  0
  7  6  1  0
  8  3  1  0
  8  7  2  0
  9  8  1  0
 10  9  2  0
 11 10  1  0
 12 11  1  0
 13 12  1  0
 14 13  1  0
 15 14  1  0
 16 14  1  0
 17 11  1  0
 17 16  1  0
 18 10  1  0
 19 18  2  0
 20 19  1  0
 21 20  2  0
 22 21  1  0
 23  2  1  0
 23 18  1  0
 23 22  2  0
 24  1  1  0
 25  1  1  0
 26  1  1  0
  2 27  1  1
 28  4  1  0
 29  5  1  0
 30  6  1  0
 31  7  1  0
 32  9  1  0
 33 12  1  0
 34 12  1  0
 35 13  1  0
 36 13  1  0
 37 15  1  0
 38 15  1  0
 39 15  1  0
 40 16  1  0
 41 16  1  0
 42 17  1  0
 43 17  1  0
 44 19  1  0
 45 20  1  0
 46 21  1  0
 47 22  1  0
 48 14  1  0
M  CHG  1  14   1
M  END
>  <b_m_subgroup_collapsed>  (1231) 
0

>  <r_i_docking_score>  (1231) 
-6.4071963827490102

>  <s_m_subgroup_title>  (1231) 
glide-dock_SP_D22_pv

>  <s_m_subgroupid>  (1231) 
glide-dock_SP_D22_pv

>  <Molecule ChEMBL ID>  (1231) 
CHEMBL432762

>  <Standard Type>  (1231) 
Ki

>  <Standard Value>  (1231) 
94.0

>  <label>  (1231) 
1

$$$$
CHEMBL24110
     RDKit          3D

 47 49  0  0  1  0  0  0  0  0999 V2000
    9.3517    6.5727   -6.5963 C   0  0  0  0  0  0  0  0  0  0  0  0
    9.0768    7.3796   -7.8598 C   0  0  0  0  0  0  0  0  0  0  0  0
    9.2114    6.5166   -9.1341 C   0  0  0  0  0  0  0  0  0  0  0  0
    8.8870    7.2467  -10.3933 N   0  0  0  0  0  0  0  0  0  0  0  0
    9.6397    8.5309  -10.5784 C   0  0  0  0  0  0  0  0  0  0  0  0
   11.2001    8.4673  -10.5757 C   0  0  0  0  0  0  0  0  0  0  0  0
   11.9358    8.4570   -9.2263 C   0  0  0  0  0  0  0  0  0  0  0  0
    8.7813    6.3967  -11.6288 C   0  0  2  0  0  0  0  0  0  0  0  0
    7.4626    5.6161  -11.6510 C   0  0  0  0  0  0  0  0  0  0  0  0
    7.3338    4.4714  -12.6462 C   0  0  0  0  0  0  0  0  0  0  0  0
    6.1321    3.7676  -12.8554 C   0  0  0  0  0  0  0  0  0  0  0  0
    6.0857    2.6685  -13.7305 C   0  0  0  0  0  0  0  0  0  0  0  0
    7.2328    2.2772  -14.4437 C   0  0  0  0  0  0  0  0  0  0  0  0
    8.4454    2.9678  -14.2648 C   0  0  0  0  0  0  0  0  0  0  0  0
    8.4978    4.0461  -13.3445 C   0  0  0  0  0  0  0  0  0  0  0  0
    9.7662    4.6839  -13.1064 N   0  0  0  0  0  0  0  0  0  0  0  0
    9.9449    5.4300  -11.8580 C   0  0  0  0  0  0  0  0  0  0  0  0
   10.7720    4.6851  -14.0231 C   0  0  0  0  0  0  0  0  0  0  0  0
   11.6986    5.4932  -14.0318 O   0  0  0  0  0  0  0  0  0  0  0  0
   10.6934    3.7386  -14.9646 N   0  0  0  0  0  0  0  0  0  0  0  0
    9.7673    2.6233  -14.9234 C   0  0  0  0  0  0  0  0  0  0  0  0
    9.2862    7.2019   -5.7097 H   0  0  0  0  0  0  0  0  0  0  0  0
   10.3487    6.1336   -6.6159 H   0  0  0  0  0  0  0  0  0  0  0  0
    8.6200    5.7727   -6.5013 H   0  0  0  0  0  0  0  0  0  0  0  0
    8.0861    7.8151   -7.7887 H   0  0  0  0  0  0  0  0  0  0  0  0
    9.7505    8.2304   -7.8625 H   0  0  0  0  0  0  0  0  0  0  0  0
   10.2130    6.0949   -9.1961 H   0  0  0  0  0  0  0  0  0  0  0  0
    8.5427    5.6650   -9.0226 H   0  0  0  0  0  0  0  0  0  0  0  0
    9.3166    8.9707  -11.5226 H   0  0  0  0  0  0  0  0  0  0  0  0
    9.3061    9.2501   -9.8307 H   0  0  0  0  0  0  0  0  0  0  0  0
   11.6080    7.7026  -11.2197 H   0  0  0  0  0  0  0  0  0  0  0  0
   11.5501    9.3736  -11.0466 H   0  0  0  0  0  0  0  0  0  0  0  0
   13.0085    8.5727   -9.3831 H   0  0  0  0  0  0  0  0  0  0  0  0
   11.8068    7.5274   -8.6754 H   0  0  0  0  0  0  0  0  0  0  0  0
   11.6201    9.2895   -8.5962 H   0  0  0  0  0  0  0  0  0  0  0  0
    8.7474    7.0597  -12.4949 H   0  0  0  0  0  0  0  0  0  0  0  0
    7.2855    5.1692  -10.6776 H   0  0  0  0  0  0  0  0  0  0  0  0
    6.6349    6.2994  -11.8468 H   0  0  0  0  0  0  0  0  0  0  0  0
    5.2436    4.0545  -12.3120 H   0  0  0  0  0  0  0  0  0  0  0  0
    5.1627    2.1211  -13.8466 H   0  0  0  0  0  0  0  0  0  0  0  0
    7.1846    1.4326  -15.1162 H   0  0  0  0  0  0  0  0  0  0  0  0
   10.8848    5.9659  -11.8562 H   0  0  0  0  0  0  0  0  0  0  0  0
   10.0149    4.6971  -11.0536 H   0  0  0  0  0  0  0  0  0  0  0  0
   11.4051    3.7349  -15.6799 H   0  0  0  0  0  0  0  0  0  0  0  0
   10.2279    1.7972  -14.3797 H   0  0  0  0  0  0  0  0  0  0  0  0
    9.5835    2.2781  -15.9415 H   0  0  0  0  0  0  0  0  0  0  0  0
    7.9099    7.5475  -10.2486 H   0  0  0  0  0  0  0  0  0  0  0  0
  2  1  1  0
  3  2  1  0
  4  3  1  0
  5  4  1  0
  6  5  1  0
  7  6  1  0
  8  4  1  0
  9  8  1  0
 10  9  1  0
 11 10  2  0
 12 11  1  0
 13 12  2  0
 14 13  1  0
 15 10  1  0
 15 14  2  0
 16 15  1  0
 17  8  1  0
 17 16  1  0
 18 16  1  0
 19 18  2  0
 20 18  1  0
 21 14  1  0
 21 20  1  0
 22  1  1  0
 23  1  1  0
 24  1  1  0
 25  2  1  0
 26  2  1  0
 27  3  1  0
 28  3  1  0
 29  5  1  0
 30  5  1  0
 31  6  1  0
 32  6  1  0
 33  7  1  0
 34  7  1  0
 35  7  1  0
  8 36  1  6
 37  9  1  0
 38  9  1  0
 39 11  1  0
 40 12  1  0
 41 13  1  0
 42 17  1  0
 43 17  1  0
 44 20  1  0
 45 21  1  0
 46 21  1  0
 47  4  1  0
M  CHG  1   4   1
M  END
>  <b_m_subgroup_collapsed>  (1232) 
0

>  <r_i_docking_score>  (1232) 
-6.4052896433204198

>  <s_m_subgroup_title>  (1232) 
glide-dock_SP_D22_pv

>  <s_m_subgroupid>  (1232) 
glide-dock_SP_D22_pv

>  <Molecule ChEMBL ID>  (1232) 
CHEMBL24110

>  <Standard Type>  (1232) 
Ki

>  <Standard Value>  (1232) 
58.0

>  <label>  (1232) 
1

$$$$
CHEMBL390473
     RDKit          3D

 77 80  0  0  1  0  0  0  0  0999 V2000
    8.1361    0.1529  -15.1182 C   0  0  0  0  0  0  0  0  0  0  0  0
    8.1047    0.7222  -16.4166 O   0  0  0  0  0  0  0  0  0  0  0  0
    9.2308    1.3773  -16.8689 C   0  0  0  0  0  0  0  0  0  0  0  0
   10.4494    1.4283  -16.1433 C   0  0  0  0  0  0  0  0  0  0  0  0
   11.5502    2.1432  -16.6473 C   0  0  0  0  0  0  0  0  0  0  0  0
   11.4320    2.8297  -17.8673 C   0  0  0  0  0  0  0  0  0  0  0  0
   12.7730    3.8657  -18.4365 S   0  0  0  0  0  0  0  0  0  0  0  0
   12.6513    4.0551  -19.8896 O   0  0  0  0  0  0  0  0  0  0  0  0
   14.0301    3.3820  -17.8478 O   0  0  0  0  0  0  0  0  0  0  0  0
   12.3927    5.3732  -17.6887 N   0  0  0  0  0  0  0  0  0  0  0  0
   12.3403    5.4801  -16.2278 C   0  0  1  0  0  0  0  0  0  0  0  0
   13.1438    6.6961  -15.7591 C   0  0  0  0  0  0  0  0  0  0  0  0
   12.9957    6.8626  -14.2422 C   0  0  0  0  0  0  0  0  0  0  0  0
   11.5488    7.1036  -13.7747 C   0  0  2  0  0  0  0  0  0  0  0  0
   11.3479    7.3723  -12.3020 N   0  0  2  0  0  0  0  0  0  0  0  0
   10.0393    8.0071  -11.9295 C   0  0  0  0  0  0  0  0  0  0  0  0
    9.8466    8.1514  -10.4004 C   0  0  0  0  0  0  0  0  0  0  0  0
   11.0764    8.6785   -9.5964 C   0  0  1  0  0  0  0  0  0  0  0  0
   11.0028    8.4648   -8.0692 C   0  0  0  0  0  0  0  0  0  0  0  0
   11.1783    9.5407   -7.1675 C   0  0  0  0  0  0  0  0  0  0  0  0
   11.1958    9.3504   -5.7766 C   0  0  0  0  0  0  0  0  0  0  0  0
   11.2859   10.4143   -4.9462 F   0  0  0  0  0  0  0  0  0  0  0  0
   11.1142    8.0565   -5.2520 C   0  0  0  0  0  0  0  0  0  0  0  0
   10.9264    6.9724   -6.1210 C   0  0  0  0  0  0  0  0  0  0  0  0
   10.8335    7.1729   -7.5204 C   0  0  0  0  0  0  0  0  0  0  0  0
   10.5997    6.1310   -8.3802 O   0  0  0  0  0  0  0  0  0  0  0  0
    9.5050    5.2956   -8.0598 C   0  0  0  0  0  0  0  0  0  0  0  0
    9.5224    4.0860   -8.9869 C   0  0  0  0  0  0  0  0  0  0  0  0
    8.1529    5.9933   -8.1106 C   0  0  0  0  0  0  0  0  0  0  0  0
   12.3607    8.0217  -10.1173 C   0  0  0  0  0  0  0  0  0  0  0  0
   12.4936    8.0392  -11.6314 C   0  0  0  0  0  0  0  0  0  0  0  0
   10.7600    5.8439  -14.2419 C   0  0  0  0  0  0  0  0  0  0  0  0
   10.8845    5.6265  -15.7665 C   0  0  0  0  0  0  0  0  0  0  0  0
   10.2433    2.7602  -18.6156 C   0  0  0  0  0  0  0  0  0  0  0  0
    9.1386    2.0202  -18.1276 C   0  0  0  0  0  0  0  0  0  0  0  0
    7.9464    1.9117  -18.8133 O   0  0  0  0  0  0  0  0  0  0  0  0
    7.9510    2.2180  -20.2011 C   0  0  0  0  0  0  0  0  0  0  0  0
    7.1749   -0.3119  -14.9034 H   0  0  0  0  0  0  0  0  0  0  0  0
    8.9002   -0.6215  -15.0475 H   0  0  0  0  0  0  0  0  0  0  0  0
    8.3169    0.9078  -14.3524 H   0  0  0  0  0  0  0  0  0  0  0  0
   10.5620    0.9376  -15.1885 H   0  0  0  0  0  0  0  0  0  0  0  0
   12.4701    2.1912  -16.0824 H   0  0  0  0  0  0  0  0  0  0  0  0
   12.9257    6.1325  -18.1117 H   0  0  0  0  0  0  0  0  0  0  0  0
   12.7782    4.5852  -15.7846 H   0  0  0  0  0  0  0  0  0  0  0  0
   12.8082    7.6028  -16.2660 H   0  0  0  0  0  0  0  0  0  0  0  0
   14.1962    6.5664  -16.0132 H   0  0  0  0  0  0  0  0  0  0  0  0
   13.6809    7.6505  -13.9306 H   0  0  0  0  0  0  0  0  0  0  0  0
   13.2860    5.9188  -13.7969 H   0  0  0  0  0  0  0  0  0  0  0  0
   11.2861    8.0155  -14.3005 H   0  0  0  0  0  0  0  0  0  0  0  0
    9.2325    7.3792  -12.3059 H   0  0  0  0  0  0  0  0  0  0  0  0
    9.8577    8.9718  -12.3938 H   0  0  0  0  0  0  0  0  0  0  0  0
    9.5661    7.1586  -10.0931 H   0  0  0  0  0  0  0  0  0  0  0  0
    8.9696    8.7636  -10.1855 H   0  0  0  0  0  0  0  0  0  0  0  0
   11.1597    9.7505   -9.7855 H   0  0  0  0  0  0  0  0  0  0  0  0
   11.2881   10.5486   -7.5098 H   0  0  0  0  0  0  0  0  0  0  0  0
   11.1753    7.8977   -4.1858 H   0  0  0  0  0  0  0  0  0  0  0  0
   10.8681    5.9868   -5.6882 H   0  0  0  0  0  0  0  0  0  0  0  0
    9.6322    4.9759   -7.0469 H   0  0  0  0  0  0  0  0  0  0  0  0
    8.7720    3.3727   -8.6469 H   0  0  0  0  0  0  0  0  0  0  0  0
    9.2982    4.3684  -10.0151 H   0  0  0  0  0  0  0  0  0  0  0  0
   10.4874    3.5829   -8.9852 H   0  0  0  0  0  0  0  0  0  0  0  0
    7.3972    5.3721   -7.6385 H   0  0  0  0  0  0  0  0  0  0  0  0
    8.1571    6.9404   -7.5717 H   0  0  0  0  0  0  0  0  0  0  0  0
    7.8272    6.1726   -9.1332 H   0  0  0  0  0  0  0  0  0  0  0  0
   13.2367    8.4772   -9.6528 H   0  0  0  0  0  0  0  0  0  0  0  0
   12.3755    6.9723   -9.8429 H   0  0  0  0  0  0  0  0  0  0  0  0
   13.2861    7.3725  -11.8470 H   0  0  0  0  0  0  0  0  0  0  0  0
   12.8860    8.9800  -12.0208 H   0  0  0  0  0  0  0  0  0  0  0  0
   11.1397    4.9608  -13.7270 H   0  0  0  0  0  0  0  0  0  0  0  0
    9.7076    5.8935  -13.9685 H   0  0  0  0  0  0  0  0  0  0  0  0
   10.4859    6.4871  -16.2991 H   0  0  0  0  0  0  0  0  0  0  0  0
   10.2898    4.7628  -16.0649 H   0  0  0  0  0  0  0  0  0  0  0  0
   10.1921    3.3021  -19.5470 H   0  0  0  0  0  0  0  0  0  0  0  0
    6.9900    1.9348  -20.6308 H   0  0  0  0  0  0  0  0  0  0  0  0
    8.0845    3.2863  -20.3729 H   0  0  0  0  0  0  0  0  0  0  0  0
    8.7274    1.6640  -20.7310 H   0  0  0  0  0  0  0  0  0  0  0  0
   11.3139    6.4565  -11.8793 H   0  0  0  0  0  0  0  0  0  0  0  0
  2  1  1  0
  3  2  1  0
  4  3  1  0
  5  4  2  0
  6  5  1  0
  7  6  1  0
  8  7  2  0
  9  7  2  0
 10  7  1  0
 11 10  1  0
 12 11  1  0
 13 12  1  0
 14 13  1  0
 15 14  1  0
 16 15  1  0
 17 16  1  0
 18 17  1  0
 19 18  1  0
 20 19  1  0
 21 20  2  0
 22 21  1  0
 23 21  1  0
 24 23  2  0
 25 19  2  0
 25 24  1  0
 26 25  1  0
 27 26  1  0
 28 27  1  0
 29 27  1  0
 30 18  1  0
 31 15  1  0
 31 30  1  0
 32 14  1  0
 33 11  1  0
 33 32  1  0
 34  6  2  0
 35  3  2  0
 35 34  1  0
 36 35  1  0
 37 36  1  0
 38  1  1  0
 39  1  1  0
 40  1  1  0
 41  4  1  0
 42  5  1  0
 43 10  1  0
 11 44  1  1
 45 12  1  0
 46 12  1  0
 47 13  1  0
 48 13  1  0
 14 49  1  6
 50 16  1  0
 51 16  1  0
 52 17  1  0
 53 17  1  0
 18 54  1  1
 55 20  1  0
 56 23  1  0
 57 24  1  0
 58 27  1  0
 59 28  1  0
 60 28  1  0
 61 28  1  0
 62 29  1  0
 63 29  1  0
 64 29  1  0
 65 30  1  0
 66 30  1  0
 67 31  1  0
 68 31  1  0
 69 32  1  0
 70 32  1  0
 71 33  1  0
 72 33  1  0
 73 34  1  0
 74 37  1  0
 75 37  1  0
 76 37  1  0
 15 77  1  1
M  CHG  1  15   1
M  END
>  <b_m_subgroup_collapsed>  (1233) 
0

>  <r_i_docking_score>  (1233) 
-6.4031800629576496

>  <s_m_subgroup_title>  (1233) 
glide-dock_SP_D22_pv

>  <s_m_subgroupid>  (1233) 
glide-dock_SP_D22_pv

>  <Molecule ChEMBL ID>  (1233) 
CHEMBL390473

>  <Standard Type>  (1233) 
Ki

>  <Standard Value>  (1233) 
94.0

>  <label>  (1233) 
1

$$$$
CHEMBL5723009
     RDKit          3D

 38 40  0  0  1  0  0  0  0  0999 V2000
   10.9687    4.3949  -13.8455 O   0  0  0  0  0  0  0  0  0  0  0  0
   10.1035    5.0453  -13.2590 C   0  0  0  0  0  0  0  0  0  0  0  0
   10.4311    6.3060  -12.5582 C   0  0  0  0  0  0  0  0  0  0  0  0
    9.4831    7.0017  -11.8936 C   0  0  0  0  0  0  0  0  0  0  0  0
    9.7765    8.3315  -11.2142 C   0  0  0  0  0  0  0  0  0  0  0  0
    9.2859    8.4083   -9.8482 N   0  0  0  0  0  0  0  0  0  0  0  0
   10.0398    7.5731   -8.9242 C   0  0  0  0  0  0  0  0  0  0  0  0
    9.2344    7.3917   -7.6270 C   0  0  0  0  0  0  0  0  0  0  0  0
   10.0737    6.8890   -6.4334 C   0  0  0  0  0  0  0  0  0  0  0  0
   10.8855    7.8969   -5.7584 N   0  0  0  0  0  0  0  0  0  0  0  0
   11.6859    7.7182   -4.6463 C   0  0  0  0  0  0  0  0  0  0  0  0
   12.1549    8.9728   -4.3805 C   0  0  0  0  0  0  0  0  0  0  0  0
   11.6441    9.8486   -5.3343 N   0  0  0  0  0  0  0  0  0  0  0  0
   10.8883    9.1937   -6.1570 N   0  0  0  0  0  0  0  0  0  0  0  0
    8.1608    6.5719  -11.8469 N   0  0  0  0  0  0  0  0  0  0  0  0
    7.7340    5.4075  -12.4953 C   0  0  0  0  0  0  0  0  0  0  0  0
    6.3826    5.0140  -12.4411 C   0  0  0  0  0  0  0  0  0  0  0  0
    5.9585    3.8523  -13.1177 C   0  0  0  0  0  0  0  0  0  0  0  0
    6.8873    3.0830  -13.8465 C   0  0  0  0  0  0  0  0  0  0  0  0
    6.4866    1.9597  -14.4856 F   0  0  0  0  0  0  0  0  0  0  0  0
    8.2414    3.4659  -13.8918 C   0  0  0  0  0  0  0  0  0  0  0  0
    8.6730    4.6276  -13.2165 C   0  0  0  0  0  0  0  0  0  0  0  0
   11.4500    6.6615  -12.6064 H   0  0  0  0  0  0  0  0  0  0  0  0
    9.2893    9.1136  -11.7979 H   0  0  0  0  0  0  0  0  0  0  0  0
   10.8468    8.5409  -11.2255 H   0  0  0  0  0  0  0  0  0  0  0  0
    8.2940    8.1721   -9.8449 H   0  0  0  0  0  0  0  0  0  0  0  0
   11.0002    8.0496   -8.7301 H   0  0  0  0  0  0  0  0  0  0  0  0
   10.2433    6.5938   -9.3585 H   0  0  0  0  0  0  0  0  0  0  0  0
    8.4510    6.6592   -7.8269 H   0  0  0  0  0  0  0  0  0  0  0  0
    8.7032    8.3062   -7.3544 H   0  0  0  0  0  0  0  0  0  0  0  0
   10.7298    6.0769   -6.7501 H   0  0  0  0  0  0  0  0  0  0  0  0
    9.4006    6.4663   -5.6864 H   0  0  0  0  0  0  0  0  0  0  0  0
   11.8233    6.7632   -4.1587 H   0  0  0  0  0  0  0  0  0  0  0  0
   12.8100    9.3181   -3.5933 H   0  0  0  0  0  0  0  0  0  0  0  0
    7.4771    7.0945  -11.2900 H   0  0  0  0  0  0  0  0  0  0  0  0
    5.6731    5.6049  -11.8806 H   0  0  0  0  0  0  0  0  0  0  0  0
    4.9233    3.5492  -13.0787 H   0  0  0  0  0  0  0  0  0  0  0  0
    8.9445    2.8601  -14.4461 H   0  0  0  0  0  0  0  0  0  0  0  0
  2  1  2  0
  3  2  1  0
  4  3  2  0
  5  4  1  0
  6  5  1  0
  7  6  1  0
  8  7  1  0
  9  8  1  0
 10  9  1  0
 11 10  1  0
 12 11  2  0
 13 12  1  0
 14 10  1  0
 14 13  2  0
 15  4  1  0
 16 15  1  0
 17 16  2  0
 18 17  1  0
 19 18  2  0
 20 19  1  0
 21 19  1  0
 22  2  1  0
 22 16  1  0
 22 21  2  0
 23  3  1  0
 24  5  1  0
 25  5  1  0
 26  6  1  0
 27  7  1  0
 28  7  1  0
 29  8  1  0
 30  8  1  0
 31  9  1  0
 32  9  1  0
 33 11  1  0
 34 12  1  0
 35 15  1  0
 36 17  1  0
 37 18  1  0
 38 21  1  0
M  END
>  <b_m_subgroup_collapsed>  (1234) 
0

>  <r_i_docking_score>  (1234) 
-6.3998974575697503

>  <s_m_subgroup_title>  (1234) 
glide-dock_SP_D22_pv

>  <s_m_subgroupid>  (1234) 
glide-dock_SP_D22_pv

>  <Molecule ChEMBL ID>  (1234) 
CHEMBL5723009

>  <Standard Type>  (1234) 
Ki

>  <Standard Value>  (1234) 
10000.0

>  <label>  (1234) 
0

$$$$
CHEMBL544532
     RDKit          3D

 40 43  0  0  1  0  0  0  0  0999 V2000
    8.4887    8.9670   -7.6895 O   0  0  0  0  0  0  0  0  0  0  0  0
    9.4148    8.6007   -8.4015 C   0  0  0  0  0  0  0  0  0  0  0  0
    9.2854    8.6185   -9.9059 C   0  0  0  0  0  0  0  0  0  0  0  0
    9.8033    7.2875  -10.4865 C   0  0  1  0  0  0  0  0  0  0  0  0
    9.1114    5.9786   -9.9447 C   0  0  0  0  0  0  0  0  0  0  0  0
    8.6129    5.1008  -11.0523 N   0  0  2  0  0  0  0  0  0  0  0  0
    9.7065    4.7358  -11.9839 C   0  0  0  0  0  0  0  0  0  0  0  0
   10.3077    6.0215  -12.6284 C   0  0  0  0  0  0  0  0  0  0  0  0
    9.6253    7.2688  -12.0331 C   0  0  1  0  0  0  0  0  0  0  0  0
    8.1195    7.1208  -12.3792 C   0  0  0  0  0  0  0  0  0  0  0  0
    7.5597    5.7744  -11.8457 C   0  0  0  0  0  0  0  0  0  0  0  0
   11.2059    7.2915  -10.1329 O   0  0  0  0  0  0  0  0  0  0  0  0
   11.5445    7.6401   -8.8273 C   0  0  0  0  0  0  0  0  0  0  0  0
   10.7201    8.1892   -7.9083 C   0  0  0  0  0  0  0  0  0  0  0  0
   11.0686    8.2889   -6.4825 C   0  0  0  0  0  0  0  0  0  0  0  0
   11.2862    7.1085   -5.7411 C   0  0  0  0  0  0  0  0  0  0  0  0
   11.6539    7.1865   -4.3813 C   0  0  0  0  0  0  0  0  0  0  0  0
   11.7272    8.4411   -3.7459 C   0  0  0  0  0  0  0  0  0  0  0  0
   11.4503    9.6156   -4.4716 C   0  0  0  0  0  0  0  0  0  0  0  0
   11.1355    9.5455   -5.8419 C   0  0  0  0  0  0  0  0  0  0  0  0
    8.2685    8.8744  -10.1888 H   0  0  0  0  0  0  0  0  0  0  0  0
    9.9127    9.4333  -10.2492 H   0  0  0  0  0  0  0  0  0  0  0  0
    9.8022    5.4096   -9.3225 H   0  0  0  0  0  0  0  0  0  0  0  0
    8.2642    6.2206   -9.3041 H   0  0  0  0  0  0  0  0  0  0  0  0
   10.4679    4.1721  -11.4495 H   0  0  0  0  0  0  0  0  0  0  0  0
    9.3297    4.0621  -12.7551 H   0  0  0  0  0  0  0  0  0  0  0  0
   10.1608    5.9897  -13.7086 H   0  0  0  0  0  0  0  0  0  0  0  0
   11.3833    6.1093  -12.4878 H   0  0  0  0  0  0  0  0  0  0  0  0
   10.0394    8.1703  -12.4798 H   0  0  0  0  0  0  0  0  0  0  0  0
    7.9710    7.1367  -13.4471 H   0  0  0  0  0  0  0  0  0  0  0  0
    7.5619    7.9782  -12.0174 H   0  0  0  0  0  0  0  0  0  0  0  0
    7.2507    5.1336  -12.6729 H   0  0  0  0  0  0  0  0  0  0  0  0
    6.6653    5.9082  -11.2389 H   0  0  0  0  0  0  0  0  0  0  0  0
   12.5587    7.3727   -8.5846 H   0  0  0  0  0  0  0  0  0  0  0  0
   11.2117    6.1426   -6.2184 H   0  0  0  0  0  0  0  0  0  0  0  0
   11.8461    6.2832   -3.8214 H   0  0  0  0  0  0  0  0  0  0  0  0
   11.9784    8.5005   -2.6959 H   0  0  0  0  0  0  0  0  0  0  0  0
   11.4789   10.5721   -3.9725 H   0  0  0  0  0  0  0  0  0  0  0  0
   10.9353   10.4512   -6.3942 H   0  0  0  0  0  0  0  0  0  0  0  0
    8.2180    4.2632  -10.6491 H   0  0  0  0  0  0  0  0  0  0  0  0
  2  1  2  0
  3  2  1  0
  4  3  1  0
  5  4  1  0
  6  5  1  0
  7  6  1  0
  8  7  1  0
  9  4  1  0
  9  8  1  0
 10  9  1  0
 11  6  1  0
 11 10  1  0
  4 12  1  6
 13 12  1  0
 14  2  1  0
 14 13  2  0
 15 14  1  0
 16 15  2  0
 17 16  1  0
 18 17  2  0
 19 18  1  0
 20 15  1  0
 20 19  2  0
 21  3  1  0
 22  3  1  0
 23  5  1  0
 24  5  1  0
 25  7  1  0
 26  7  1  0
 27  8  1  0
 28  8  1  0
  9 29  1  6
 30 10  1  0
 31 10  1  0
 32 11  1  0
 33 11  1  0
 34 13  1  0
 35 16  1  0
 36 17  1  0
 37 18  1  0
 38 19  1  0
 39 20  1  0
  6 40  1  1
M  CHG  1   6   1
M  END
>  <b_m_subgroup_collapsed>  (1235) 
0

>  <r_i_docking_score>  (1235) 
-6.3960155123314602

>  <s_m_subgroup_title>  (1235) 
glide-dock_SP_D22_pv

>  <s_m_subgroupid>  (1235) 
glide-dock_SP_D22_pv

>  <Molecule ChEMBL ID>  (1235) 
CHEMBL544532

>  <Standard Type>  (1235) 
Ki

>  <Standard Value>  (1235) 
10000.0

>  <label>  (1235) 
0

$$$$
CHEMBL5290570
     RDKit          3D

 46 48  0  0  1  0  0  0  0  0999 V2000
   12.2908    8.0312   -3.2946 C   0  0  0  0  0  0  0  0  0  0  0  0
   11.5443    9.1069   -4.1014 C   0  0  0  0  0  0  0  0  0  0  0  0
   11.5726    8.8761   -5.5053 O   0  0  0  0  0  0  0  0  0  0  0  0
   10.8882    7.8516   -6.0689 C   0  0  0  0  0  0  0  0  0  0  0  0
   10.2746    6.9886   -5.4468 O   0  0  0  0  0  0  0  0  0  0  0  0
   10.9573    7.8349   -7.5260 C   0  0  0  0  0  0  0  0  0  0  0  0
   12.3478    8.5711   -8.2660 S   0  0  0  0  0  0  0  0  0  0  0  0
   11.8452    8.0044   -9.8383 C   0  0  0  0  0  0  0  0  0  0  0  0
   12.6094    8.1723  -10.9524 N   0  0  0  0  0  0  0  0  0  0  0  0
   12.0794    7.5823  -12.0205 C   0  0  0  0  0  0  0  0  0  0  0  0
   10.8975    6.9816  -12.1302 N   0  0  0  0  0  0  0  0  0  0  0  0
   10.1177    6.8683  -11.0317 C   0  0  0  0  0  0  0  0  0  0  0  0
    8.8855    6.2303  -11.1532 N   0  0  0  0  0  0  0  0  0  0  0  0
    8.2939    5.9732  -12.4546 C   0  0  1  0  0  0  0  0  0  0  0  0
    8.9749    4.8068  -13.2027 C   0  0  0  0  0  0  0  0  0  0  0  0
    7.8432    3.8469  -13.5627 C   0  0  0  0  0  0  0  0  0  0  0  0
    6.8191    4.0991  -12.5347 N   0  0  2  0  0  0  0  0  0  0  0  0
    5.4695    3.5758  -12.8047 C   0  0  0  0  0  0  0  0  0  0  0  0
    5.3912    2.0447  -12.8502 C   0  0  0  0  0  0  0  0  0  0  0  0
    6.8363    5.5468  -12.2756 C   0  0  0  0  0  0  0  0  0  0  0  0
   10.5870    7.3323   -9.7748 C   0  0  0  0  0  0  0  0  0  0  0  0
   10.0826    7.2375   -8.4113 C   0  0  0  0  0  0  0  0  0  0  0  0
    8.8197    6.5358   -7.9867 C   0  0  0  0  0  0  0  0  0  0  0  0
   12.3943    8.3301   -2.2504 H   0  0  0  0  0  0  0  0  0  0  0  0
   11.7594    7.0792   -3.3037 H   0  0  0  0  0  0  0  0  0  0  0  0
   13.2859    7.8548   -3.7013 H   0  0  0  0  0  0  0  0  0  0  0  0
   12.0168   10.0724   -3.9199 H   0  0  0  0  0  0  0  0  0  0  0  0
   10.5143    9.2081   -3.7601 H   0  0  0  0  0  0  0  0  0  0  0  0
   12.6574    7.6573  -12.9289 H   0  0  0  0  0  0  0  0  0  0  0  0
    8.3277    6.8890  -13.0460 H   0  0  0  0  0  0  0  0  0  0  0  0
    9.5175    5.1469  -14.0870 H   0  0  0  0  0  0  0  0  0  0  0  0
    9.6931    4.2949  -12.5584 H   0  0  0  0  0  0  0  0  0  0  0  0
    7.4437    4.0849  -14.5474 H   0  0  0  0  0  0  0  0  0  0  0  0
    8.1785    2.8092  -13.5718 H   0  0  0  0  0  0  0  0  0  0  0  0
    4.8857    3.9292  -11.9611 H   0  0  0  0  0  0  0  0  0  0  0  0
    5.0586    4.0177  -13.7141 H   0  0  0  0  0  0  0  0  0  0  0  0
    4.3684    1.7236  -13.0481 H   0  0  0  0  0  0  0  0  0  0  0  0
    6.0212    1.6264  -13.6364 H   0  0  0  0  0  0  0  0  0  0  0  0
    5.6858    1.6011  -11.8998 H   0  0  0  0  0  0  0  0  0  0  0  0
    6.4258    5.7720  -11.2911 H   0  0  0  0  0  0  0  0  0  0  0  0
    6.2151    6.0588  -13.0109 H   0  0  0  0  0  0  0  0  0  0  0  0
    8.3253    7.0475   -7.1605 H   0  0  0  0  0  0  0  0  0  0  0  0
    8.0865    6.4892   -8.7819 H   0  0  0  0  0  0  0  0  0  0  0  0
    9.0233    5.5135   -7.6714 H   0  0  0  0  0  0  0  0  0  0  0  0
    8.2260    6.4594  -10.4164 H   0  0  0  0  0  0  0  0  0  0  0  0
    7.1526    3.6734  -11.6801 H   0  0  0  0  0  0  0  0  0  0  0  0
  2  1  1  0
  3  2  1  0
  4  3  1  0
  5  4  2  0
  6  4  1  0
  7  6  1  0
  8  7  1  0
  9  8  2  0
 10  9  1  0
 11 10  2  0
 12 11  1  0
 13 12  1  0
 14 13  1  0
 15 14  1  0
 16 15  1  0
 17 16  1  0
 18 17  1  0
 19 18  1  0
 20 14  1  0
 20 17  1  0
 21  8  1  0
 21 12  2  0
 22  6  2  0
 22 21  1  0
 23 22  1  0
 24  1  1  0
 25  1  1  0
 26  1  1  0
 27  2  1  0
 28  2  1  0
 29 10  1  0
 14 30  1  6
 31 15  1  0
 32 15  1  0
 33 16  1  0
 34 16  1  0
 35 18  1  0
 36 18  1  0
 37 19  1  0
 38 19  1  0
 39 19  1  0
 40 20  1  0
 41 20  1  0
 42 23  1  0
 43 23  1  0
 44 23  1  0
 45 13  1  0
 17 46  1  1
M  CHG  1  17   1
M  END
>  <b_m_subgroup_collapsed>  (1236) 
0

>  <r_i_docking_score>  (1236) 
-6.3956591007832602

>  <s_m_subgroup_title>  (1236) 
glide-dock_SP_D22_pv

>  <s_m_subgroupid>  (1236) 
glide-dock_SP_D22_pv

>  <Molecule ChEMBL ID>  (1236) 
CHEMBL5290570

>  <Standard Type>  (1236) 
Ki

>  <Standard Value>  (1236) 
10000.0

>  <label>  (1236) 
0

$$$$
CHEMBL125459
     RDKit          3D

 64 67  0  0  1  0  0  0  0  0999 V2000
   11.8157   11.1531   -6.2470 C   0  0  0  0  0  0  0  0  0  0  0  0
   11.2210    9.8939   -6.4302 O   0  0  0  0  0  0  0  0  0  0  0  0
   11.4545    8.9634   -5.4428 C   0  0  0  0  0  0  0  0  0  0  0  0
   12.2437    9.2221   -4.2850 C   0  0  0  0  0  0  0  0  0  0  0  0
   12.4859    8.2347   -3.3179 C   0  0  0  0  0  0  0  0  0  0  0  0
   11.9507    6.9562   -3.5001 C   0  0  0  0  0  0  0  0  0  0  0  0
   11.1762    6.7014   -4.6417 C   0  0  0  0  0  0  0  0  0  0  0  0
   10.8999    7.6757   -5.6099 C   0  0  0  0  0  0  0  0  0  0  0  0
   10.0680    7.3153   -6.6864 N   0  0  0  0  0  0  0  0  0  0  0  0
   10.4092    6.1734   -7.5132 C   0  0  0  0  0  0  0  0  0  0  0  0
   10.7141    6.6446   -8.9399 C   0  0  0  0  0  0  0  0  0  0  0  0
    9.6579    7.5281   -9.5093 N   0  0  0  0  0  0  0  0  0  0  0  0
   10.0441    7.9952  -10.8662 C   0  0  0  0  0  0  0  0  0  0  0  0
    8.8631    8.0768  -11.8439 C   0  0  0  0  0  0  0  0  0  0  0  0
    8.2352    6.7233  -12.2482 C   0  0  0  0  0  0  0  0  0  0  0  0
    9.2147    5.6376  -12.7292 C   0  0  0  0  0  0  0  0  0  0  0  0
    8.4768    4.4405  -13.1157 N   0  0  0  0  0  0  0  0  0  0  0  0
    8.6616    3.7425  -14.2469 C   0  0  0  0  0  0  0  0  0  0  0  0
    9.5178    4.0321  -15.0841 O   0  0  0  0  0  0  0  0  0  0  0  0
    7.7207    2.6393  -14.3494 C   0  0  0  0  0  0  0  0  0  0  0  0
    7.5627    1.9703  -15.5095 C   0  0  0  0  0  0  0  0  0  0  0  0
    6.6571    0.8279  -15.7139 C   0  0  0  0  0  0  0  0  0  0  0  0
    6.2134    0.0014  -14.6495 C   0  0  0  0  0  0  0  0  0  0  0  0
    5.2864   -1.0453  -14.8796 C   0  0  0  0  0  0  0  0  0  0  0  0
    4.7658   -1.2805  -16.1713 C   0  0  0  0  0  0  0  0  0  0  0  0
    5.2015   -0.4403  -17.2086 C   0  0  0  0  0  0  0  0  0  0  0  0
    6.1156    0.5722  -16.9897 C   0  0  0  0  0  0  0  0  0  0  0  0
    6.3289    1.2442  -18.1525 O   0  0  0  0  0  0  0  0  0  0  0  0
    5.5155    0.6203  -19.1129 C   0  0  0  0  0  0  0  0  0  0  0  0
    4.8227   -0.4405  -18.5114 O   0  0  0  0  0  0  0  0  0  0  0  0
    9.2917    8.6515   -8.6016 C   0  0  0  0  0  0  0  0  0  0  0  0
    8.9910    8.1606   -7.1720 C   0  0  0  0  0  0  0  0  0  0  0  0
   11.6859   11.8254   -7.0823 H   0  0  0  0  0  0  0  0  0  0  0  0
   11.3675   11.6215   -5.3742 H   0  0  0  0  0  0  0  0  0  0  0  0
   12.8860   11.0275   -6.1331 H   0  0  0  0  0  0  0  0  0  0  0  0
   12.7017   10.1722   -4.0963 H   0  0  0  0  0  0  0  0  0  0  0  0
   13.0788    8.4611   -2.4436 H   0  0  0  0  0  0  0  0  0  0  0  0
   12.1057    6.1815   -2.7620 H   0  0  0  0  0  0  0  0  0  0  0  0
   10.6809    5.7702   -4.7379 H   0  0  0  0  0  0  0  0  0  0  0  0
    9.5713    5.4748   -7.5132 H   0  0  0  0  0  0  0  0  0  0  0  0
   11.2730    5.6417   -7.1148 H   0  0  0  0  0  0  0  0  0  0  0  0
   10.8379    5.7725   -9.5789 H   0  0  0  0  0  0  0  0  0  0  0  0
   11.6621    7.1873   -8.9408 H   0  0  0  0  0  0  0  0  0  0  0  0
   10.8058    7.3446  -11.2957 H   0  0  0  0  0  0  0  0  0  0  0  0
   10.5305    8.9675  -10.7922 H   0  0  0  0  0  0  0  0  0  0  0  0
    9.2157    8.5921  -12.7323 H   0  0  0  0  0  0  0  0  0  0  0  0
    8.0864    8.7301  -11.4471 H   0  0  0  0  0  0  0  0  0  0  0  0
    7.5012    6.9166  -13.0315 H   0  0  0  0  0  0  0  0  0  0  0  0
    7.6644    6.3182  -11.4186 H   0  0  0  0  0  0  0  0  0  0  0  0
    9.8955    5.3486  -11.9295 H   0  0  0  0  0  0  0  0  0  0  0  0
    9.8331    6.0147  -13.5438 H   0  0  0  0  0  0  0  0  0  0  0  0
    7.7447    4.1367  -12.4909 H   0  0  0  0  0  0  0  0  0  0  0  0
    7.1347    2.3570  -13.4876 H   0  0  0  0  0  0  0  0  0  0  0  0
    8.1417    2.2648  -16.3745 H   0  0  0  0  0  0  0  0  0  0  0  0
    6.5910    0.1532  -13.6495 H   0  0  0  0  0  0  0  0  0  0  0  0
    4.9778   -1.6780  -14.0618 H   0  0  0  0  0  0  0  0  0  0  0  0
    4.0545   -2.0749  -16.3539 H   0  0  0  0  0  0  0  0  0  0  0  0
    4.7977    1.3417  -19.5067 H   0  0  0  0  0  0  0  0  0  0  0  0
    6.1321    0.2392  -19.9279 H   0  0  0  0  0  0  0  0  0  0  0  0
   10.1136    9.3660   -8.5743 H   0  0  0  0  0  0  0  0  0  0  0  0
    8.4330    9.1881   -9.0037 H   0  0  0  0  0  0  0  0  0  0  0  0
    8.0861    7.5581   -7.1720 H   0  0  0  0  0  0  0  0  0  0  0  0
    8.8034    8.9763   -6.4822 H   0  0  0  0  0  0  0  0  0  0  0  0
    8.8177    6.9716   -9.6076 H   0  0  0  0  0  0  0  0  0  0  0  0
  2  1  1  0
  3  2  1  0
  4  3  2  0
  5  4  1  0
  6  5  2  0
  7  6  1  0
  8  3  1  0
  8  7  2  0
  9  8  1  0
 10  9  1  0
 11 10  1  0
 12 11  1  0
 13 12  1  0
 14 13  1  0
 15 14  1  0
 16 15  1  0
 17 16  1  0
 18 17  1  0
 19 18  2  0
 20 18  1  0
 21 20  2  0
 22 21  1  0
 23 22  2  0
 24 23  1  0
 25 24  2  0
 26 25  1  0
 27 22  1  0
 27 26  2  0
 28 27  1  0
 29 28  1  0
 30 26  1  0
 30 29  1  0
 31 12  1  0
 32  9  1  0
 32 31  1  0
 33  1  1  0
 34  1  1  0
 35  1  1  0
 36  4  1  0
 37  5  1  0
 38  6  1  0
 39  7  1  0
 40 10  1  0
 41 10  1  0
 42 11  1  0
 43 11  1  0
 44 13  1  0
 45 13  1  0
 46 14  1  0
 47 14  1  0
 48 15  1  0
 49 15  1  0
 50 16  1  0
 51 16  1  0
 52 17  1  0
 53 20  1  0
 54 21  1  0
 55 23  1  0
 56 24  1  0
 57 25  1  0
 58 29  1  0
 59 29  1  0
 60 31  1  0
 61 31  1  0
 62 32  1  0
 63 32  1  0
 64 12  1  0
M  CHG  1  12   1
M  END
>  <b_m_subgroup_collapsed>  (1237) 
0

>  <r_i_docking_score>  (1237) 
-6.3897751531703904

>  <s_m_subgroup_title>  (1237) 
glide-dock_SP_D22_pv

>  <s_m_subgroupid>  (1237) 
glide-dock_SP_D22_pv

>  <Molecule ChEMBL ID>  (1237) 
CHEMBL125459

>  <Standard Type>  (1237) 
Ki

>  <Standard Value>  (1237) 
8.0

>  <label>  (1237) 
1

$$$$
CHEMBL45168
     RDKit          3D

 38 39  0  0  1  0  0  0  0  0999 V2000
    5.5596    4.3585  -13.3059 F   0  0  0  0  0  0  0  0  0  0  0  0
    6.0923    4.8997  -12.2118 C   0  0  0  0  0  0  0  0  0  0  0  0
    7.4974    5.4349  -12.5247 C   0  0  0  0  0  0  0  0  0  0  0  0
    8.0860    6.1722  -11.3816 N   0  0  2  0  0  0  0  0  0  0  0  0
    9.0926    7.1831  -11.7920 C   0  0  0  0  0  0  0  0  0  0  0  0
    9.5182    8.0514  -10.5944 C   0  0  0  0  0  0  0  0  0  0  0  0
   10.0302    7.1904   -9.4267 C   0  0  1  0  0  0  0  0  0  0  0  0
   10.3886    8.0470   -8.2040 C   0  0  0  0  0  0  0  0  0  0  0  0
   10.9750    7.1755   -7.2529 O   0  0  0  0  0  0  0  0  0  0  0  0
   11.2763    7.6638   -6.0048 C   0  0  0  0  0  0  0  0  0  0  0  0
   11.6859    6.7122   -5.0539 C   0  0  0  0  0  0  0  0  0  0  0  0
   12.0425    7.0883   -3.7519 C   0  0  0  0  0  0  0  0  0  0  0  0
   11.9836    8.4413   -3.3903 C   0  0  0  0  0  0  0  0  0  0  0  0
   12.4863    8.9724   -1.4469 I   0  0  0  0  0  0  0  0  0  0  0  0
   11.5713    9.4112   -4.3227 C   0  0  0  0  0  0  0  0  0  0  0  0
   11.2207    9.0290   -5.6330 C   0  0  0  0  0  0  0  0  0  0  0  0
    8.9864    6.1102   -9.0759 C   0  0  0  0  0  0  0  0  0  0  0  0
    8.6047    5.2850  -10.3112 C   0  0  0  0  0  0  0  0  0  0  0  0
    6.1029    4.1232  -11.4475 H   0  0  0  0  0  0  0  0  0  0  0  0
    5.4256    5.6957  -11.8795 H   0  0  0  0  0  0  0  0  0  0  0  0
    7.4204    6.1058  -13.3804 H   0  0  0  0  0  0  0  0  0  0  0  0
    8.1622    4.6248  -12.8313 H   0  0  0  0  0  0  0  0  0  0  0  0
    8.6700    7.8314  -12.5604 H   0  0  0  0  0  0  0  0  0  0  0  0
    9.9583    6.6862  -12.2328 H   0  0  0  0  0  0  0  0  0  0  0  0
    8.6737    8.6575  -10.2651 H   0  0  0  0  0  0  0  0  0  0  0  0
   10.2928    8.7522  -10.9081 H   0  0  0  0  0  0  0  0  0  0  0  0
   10.9409    6.6880   -9.7572 H   0  0  0  0  0  0  0  0  0  0  0  0
    9.4942    8.5227   -7.7985 H   0  0  0  0  0  0  0  0  0  0  0  0
   11.0993    8.8265   -8.4832 H   0  0  0  0  0  0  0  0  0  0  0  0
   11.7460    5.6814   -5.3460 H   0  0  0  0  0  0  0  0  0  0  0  0
   12.3555    6.3418   -3.0364 H   0  0  0  0  0  0  0  0  0  0  0  0
   11.5178   10.4495   -4.0302 H   0  0  0  0  0  0  0  0  0  0  0  0
   10.9160    9.7928   -6.3331 H   0  0  0  0  0  0  0  0  0  0  0  0
    9.3734    5.4463   -8.3030 H   0  0  0  0  0  0  0  0  0  0  0  0
    8.0884    6.5717   -8.6619 H   0  0  0  0  0  0  0  0  0  0  0  0
    7.8536    4.5490  -10.0300 H   0  0  0  0  0  0  0  0  0  0  0  0
    9.4682    4.7267  -10.6778 H   0  0  0  0  0  0  0  0  0  0  0  0
    7.3372    6.7307  -10.9560 H   0  0  0  0  0  0  0  0  0  0  0  0
  2  1  1  0
  3  2  1  0
  4  3  1  0
  5  4  1  0
  6  5  1  0
  7  6  1  0
  8  7  1  0
  9  8  1  0
 10  9  1  0
 11 10  1  0
 12 11  2  0
 13 12  1  0
 14 13  1  0
 15 13  2  0
 16 10  2  0
 16 15  1  0
 17  7  1  0
 18  4  1  0
 18 17  1  0
 19  2  1  0
 20  2  1  0
 21  3  1  0
 22  3  1  0
 23  5  1  0
 24  5  1  0
 25  6  1  0
 26  6  1  0
  7 27  1  6
 28  8  1  0
 29  8  1  0
 30 11  1  0
 31 12  1  0
 32 15  1  0
 33 16  1  0
 34 17  1  0
 35 17  1  0
 36 18  1  0
 37 18  1  0
  4 38  1  1
M  CHG  1   4   1
M  END
>  <b_m_subgroup_collapsed>  (1238) 
0

>  <r_i_docking_score>  (1238) 
-6.3807341748680697

>  <s_m_subgroup_title>  (1238) 
glide-dock_SP_D22_pv

>  <s_m_subgroupid>  (1238) 
glide-dock_SP_D22_pv

>  <Molecule ChEMBL ID>  (1238) 
CHEMBL45168

>  <Standard Type>  (1238) 
Ki

>  <Standard Value>  (1238) 
10000.0

>  <label>  (1238) 
0

$$$$
CHEMBL1398
     RDKit          3D

 22 23  0  0  1  0  0  0  0  0999 V2000
   12.4819    8.1728   -8.3843 O   0  0  0  0  0  0  0  0  0  0  0  0
   11.3254    7.9218   -8.0533 C   0  0  0  0  0  0  0  0  0  0  0  0
   10.5498    6.9585   -8.5546 O   0  0  0  0  0  0  0  0  0  0  0  0
    9.2863    6.8549   -7.9227 C   0  0  0  0  0  0  0  0  0  0  0  0
    9.1373    8.1810   -7.1739 C   0  0  0  0  0  0  0  0  0  0  0  0
   10.5643    8.6881   -6.9769 C   0  0  1  0  0  0  0  0  0  0  0  0
   11.1096    8.4534   -5.5700 C   0  0  0  0  0  0  0  0  0  0  0  0
   11.4271    9.5647   -4.7590 C   0  0  0  0  0  0  0  0  0  0  0  0
   11.9145    9.3769   -3.4498 C   0  0  0  0  0  0  0  0  0  0  0  0
   12.0869    8.0786   -2.9378 C   0  0  0  0  0  0  0  0  0  0  0  0
   11.7712    6.9668   -3.7398 C   0  0  0  0  0  0  0  0  0  0  0  0
   11.2861    7.1499   -5.0484 C   0  0  0  0  0  0  0  0  0  0  0  0
    8.4842    6.6950   -8.6440 H   0  0  0  0  0  0  0  0  0  0  0  0
    9.2974    6.0133   -7.2297 H   0  0  0  0  0  0  0  0  0  0  0  0
    8.5729    8.0811   -6.2477 H   0  0  0  0  0  0  0  0  0  0  0  0
    8.5920    8.8819   -7.8076 H   0  0  0  0  0  0  0  0  0  0  0  0
   10.6155    9.7532   -7.2024 H   0  0  0  0  0  0  0  0  0  0  0  0
   11.2924   10.5686   -5.1356 H   0  0  0  0  0  0  0  0  0  0  0  0
   12.1513   10.2315   -2.8323 H   0  0  0  0  0  0  0  0  0  0  0  0
   12.4551    7.9358   -1.9326 H   0  0  0  0  0  0  0  0  0  0  0  0
   11.8982    5.9666   -3.3497 H   0  0  0  0  0  0  0  0  0  0  0  0
   11.0473    6.2809   -5.6451 H   0  0  0  0  0  0  0  0  0  0  0  0
  2  1  2  0
  3  2  1  0
  4  3  1  0
  5  4  1  0
  6  2  1  0
  6  5  1  0
  7  6  1  0
  8  7  2  0
  9  8  1  0
 10  9  2  0
 11 10  1  0
 12  7  1  0
 12 11  2  0
 13  4  1  0
 14  4  1  0
 15  5  1  0
 16  5  1  0
  6 17  1  6
 18  8  1  0
 19  9  1  0
 20 10  1  0
 21 11  1  0
 22 12  1  0
M  END
>  <b_m_subgroup_collapsed>  (1239) 
0

>  <r_i_docking_score>  (1239) 
-6.3805204835871798

>  <s_m_subgroup_title>  (1239) 
glide-dock_SP_D22_pv

>  <s_m_subgroupid>  (1239) 
glide-dock_SP_D22_pv

>  <Molecule ChEMBL ID>  (1239) 
CHEMBL1398

>  <Standard Type>  (1239) 
Ki

>  <Standard Value>  (1239) 
10000.0

>  <label>  (1239) 
0

$$$$
CHEMBL598760
     RDKit          3D

 53 56  0  0  1  0  0  0  0  0999 V2000
    3.3036   -0.8699  -14.8933 C   0  0  0  0  0  0  0  0  0  0  0  0
    4.5243   -0.5807  -14.4142 C   0  0  0  0  0  0  0  0  0  0  0  0
    5.6943   -1.5236  -14.5901 C   0  0  0  0  0  0  0  0  0  0  0  0
    4.8143    0.7111  -13.6715 C   0  0  0  0  0  0  0  0  0  0  0  0
    6.0054    1.3333  -14.1464 O   0  0  0  0  0  0  0  0  0  0  0  0
    6.3882    2.5465  -13.6094 C   0  0  0  0  0  0  0  0  0  0  0  0
    5.5304    3.2960  -12.7651 C   0  0  0  0  0  0  0  0  0  0  0  0
    5.9241    4.5389  -12.2487 C   0  0  0  0  0  0  0  0  0  0  0  0
    7.1624    5.0783  -12.6108 C   0  0  0  0  0  0  0  0  0  0  0  0
    8.0262    4.3488  -13.4460 C   0  0  0  0  0  0  0  0  0  0  0  0
    7.6865    3.0579  -13.9143 C   0  0  0  0  0  0  0  0  0  0  0  0
    8.7209    2.3060  -14.6764 C   0  0  0  0  0  0  0  0  0  0  0  0
    8.7696    0.8889  -14.7183 C   0  0  0  0  0  0  0  0  0  0  0  0
    9.7274    0.1724  -15.4582 C   0  0  0  0  0  0  0  0  0  0  0  0
   10.7146    0.8556  -16.1831 C   0  0  0  0  0  0  0  0  0  0  0  0
   10.7680    2.2571  -16.1338 C   0  0  0  0  0  0  0  0  0  0  0  0
    9.7916    2.9481  -15.3588 C   0  0  0  0  0  0  0  0  0  0  0  0
    9.8274    4.4829  -15.2246 C   0  0  1  0  0  0  0  0  0  0  0  0
    9.3420    4.9689  -13.8403 C   0  0  0  0  0  0  0  0  0  0  0  0
   11.1023    5.1259  -15.6561 N   0  0  1  0  0  0  0  0  0  0  0  0
   12.1966    5.1706  -14.6437 C   0  0  0  0  0  0  0  0  0  0  0  0
   12.2480    6.5277  -13.9171 C   0  0  0  0  0  0  0  0  0  0  0  0
   12.7972    7.6548  -14.8010 C   0  0  0  0  0  0  0  0  0  0  0  0
   11.5295    4.5755  -16.9550 C   0  0  0  0  0  0  0  0  0  0  0  0
   11.8513    3.0881  -16.8093 C   0  0  0  0  0  0  0  0  0  0  0  0
    3.1171   -1.7912  -15.4286 H   0  0  0  0  0  0  0  0  0  0  0  0
    2.4718   -0.1951  -14.7607 H   0  0  0  0  0  0  0  0  0  0  0  0
    6.4483   -1.0687  -15.2358 H   0  0  0  0  0  0  0  0  0  0  0  0
    5.3871   -2.4651  -15.0446 H   0  0  0  0  0  0  0  0  0  0  0  0
    6.1569   -1.7457  -13.6290 H   0  0  0  0  0  0  0  0  0  0  0  0
    3.9545    1.3684  -13.7906 H   0  0  0  0  0  0  0  0  0  0  0  0
    4.9275    0.4891  -12.6090 H   0  0  0  0  0  0  0  0  0  0  0  0
    4.5526    2.9382  -12.4872 H   0  0  0  0  0  0  0  0  0  0  0  0
    5.2766    5.0957  -11.5877 H   0  0  0  0  0  0  0  0  0  0  0  0
    7.4446    6.0514  -12.2303 H   0  0  0  0  0  0  0  0  0  0  0  0
    8.0676    0.2982  -14.1503 H   0  0  0  0  0  0  0  0  0  0  0  0
    9.7040   -0.9083  -15.4599 H   0  0  0  0  0  0  0  0  0  0  0  0
   11.4508    0.2999  -16.7450 H   0  0  0  0  0  0  0  0  0  0  0  0
    9.0855    4.8281  -15.9468 H   0  0  0  0  0  0  0  0  0  0  0  0
    9.2161    6.0481  -13.8345 H   0  0  0  0  0  0  0  0  0  0  0  0
   10.0513    4.7084  -13.0554 H   0  0  0  0  0  0  0  0  0  0  0  0
   12.0927    4.3478  -13.9341 H   0  0  0  0  0  0  0  0  0  0  0  0
   13.1674    5.0095  -15.1201 H   0  0  0  0  0  0  0  0  0  0  0  0
   11.2823    6.8213  -13.5167 H   0  0  0  0  0  0  0  0  0  0  0  0
   12.8857    6.4272  -13.0394 H   0  0  0  0  0  0  0  0  0  0  0  0
   12.9393    8.5706  -14.2283 H   0  0  0  0  0  0  0  0  0  0  0  0
   12.1128    7.8836  -15.6226 H   0  0  0  0  0  0  0  0  0  0  0  0
   13.7573    7.3815  -15.2360 H   0  0  0  0  0  0  0  0  0  0  0  0
   10.7298    4.7111  -17.6851 H   0  0  0  0  0  0  0  0  0  0  0  0
   12.3908    5.1213  -17.3414 H   0  0  0  0  0  0  0  0  0  0  0  0
   12.7782    2.9478  -16.2506 H   0  0  0  0  0  0  0  0  0  0  0  0
   12.0384    2.6633  -17.8003 H   0  0  0  0  0  0  0  0  0  0  0  0
   10.8786    6.0956  -15.8349 H   0  0  0  0  0  0  0  0  0  0  0  0
  2  1  2  0
  3  2  1  0
  4  2  1  0
  5  4  1  0
  6  5  1  0
  7  6  1  0
  8  7  2  0
  9  8  1  0
 10  9  2  0
 11  6  2  0
 11 10  1  0
 12 11  1  0
 13 12  1  0
 14 13  2  0
 15 14  1  0
 16 15  2  0
 17 12  2  0
 17 16  1  0
 18 17  1  0
 19 10  1  0
 19 18  1  0
 20 18  1  0
 21 20  1  0
 22 21  1  0
 23 22  1  0
 24 20  1  0
 25 16  1  0
 25 24  1  0
 26  1  1  0
 27  1  1  0
 28  3  1  0
 29  3  1  0
 30  3  1  0
 31  4  1  0
 32  4  1  0
 33  7  1  0
 34  8  1  0
 35  9  1  0
 36 13  1  0
 37 14  1  0
 38 15  1  0
 18 39  1  6
 40 19  1  0
 41 19  1  0
 42 21  1  0
 43 21  1  0
 44 22  1  0
 45 22  1  0
 46 23  1  0
 47 23  1  0
 48 23  1  0
 49 24  1  0
 50 24  1  0
 51 25  1  0
 52 25  1  0
 20 53  1  6
M  CHG  1  20   1
M  END
>  <b_m_subgroup_collapsed>  (1240) 
0

>  <r_i_docking_score>  (1240) 
-6.3801291221615797

>  <s_m_subgroup_title>  (1240) 
glide-dock_SP_D22_pv

>  <s_m_subgroupid>  (1240) 
glide-dock_SP_D22_pv

>  <Molecule ChEMBL ID>  (1240) 
CHEMBL598760

>  <Standard Type>  (1240) 
Ki

>  <Standard Value>  (1240) 
10000.0

>  <label>  (1240) 
0

$$$$
CHEMBL193639
     RDKit          3D

 44 47  0  0  1  0  0  0  0  0999 V2000
    8.0859    8.9494  -12.1927 C   0  0  0  0  0  0  0  0  0  0  0  0
    8.4867    7.5688  -11.8462 N   0  0  0  0  0  0  0  0  0  0  0  0
    9.9562    7.4156  -11.7385 C   0  0  0  0  0  0  0  0  0  0  0  0
    7.7921    6.5083  -12.6241 C   0  0  0  0  0  0  0  0  0  0  0  0
    8.0206    5.1016  -12.0183 C   0  0  1  0  0  0  0  0  0  0  0  0
    6.9052    4.0825  -12.2741 C   0  0  0  0  0  0  0  0  0  0  0  0
    7.3316    3.3718  -13.5503 C   0  0  2  0  0  0  0  0  0  0  0  0
    6.6553    2.0134  -13.8485 C   0  0  0  0  0  0  0  0  0  0  0  0
    5.3055    1.8491  -13.4388 C   0  0  0  0  0  0  0  0  0  0  0  0
    4.5724    0.6825  -13.7343 C   0  0  0  0  0  0  0  0  0  0  0  0
    5.1668   -0.3523  -14.4647 C   0  0  0  0  0  0  0  0  0  0  0  0
    6.5017   -0.2204  -14.8649 C   0  0  0  0  0  0  0  0  0  0  0  0
    7.2630    0.9266  -14.5565 C   0  0  0  0  0  0  0  0  0  0  0  0
    8.9795    0.8083  -15.0047 S   0  0  0  0  0  0  0  0  0  0  0  0
    9.4320    2.3717  -15.6744 C   0  0  0  0  0  0  0  0  0  0  0  0
    9.8679    2.4484  -17.0103 C   0  0  0  0  0  0  0  0  0  0  0  0
   10.3514    3.6673  -17.5229 C   0  0  0  0  0  0  0  0  0  0  0  0
   10.4071    4.8047  -16.6957 C   0  0  0  0  0  0  0  0  0  0  0  0
   10.8851    5.9743  -17.1832 F   0  0  0  0  0  0  0  0  0  0  0  0
    9.9573    4.7296  -15.3631 C   0  0  0  0  0  0  0  0  0  0  0  0
    9.4604    3.5132  -14.8495 C   0  0  0  0  0  0  0  0  0  0  0  0
    8.8648    3.4281  -13.4574 C   0  0  1  0  0  0  0  0  0  0  0  0
    9.1810    4.5567  -12.6417 O   0  0  0  0  0  0  0  0  0  0  0  0
    8.5189    9.2895  -13.1295 H   0  0  0  0  0  0  0  0  0  0  0  0
    8.4120    9.6372  -11.4108 H   0  0  0  0  0  0  0  0  0  0  0  0
    6.9993    9.0184  -12.2468 H   0  0  0  0  0  0  0  0  0  0  0  0
   10.4379    7.4253  -12.7147 H   0  0  0  0  0  0  0  0  0  0  0  0
   10.2265    6.4855  -11.2380 H   0  0  0  0  0  0  0  0  0  0  0  0
   10.3828    8.2275  -11.1478 H   0  0  0  0  0  0  0  0  0  0  0  0
    6.7227    6.7318  -12.5919 H   0  0  0  0  0  0  0  0  0  0  0  0
    8.0861    6.5413  -13.6725 H   0  0  0  0  0  0  0  0  0  0  0  0
    8.1743    5.1824  -10.9409 H   0  0  0  0  0  0  0  0  0  0  0  0
    6.8776    3.3767  -11.4445 H   0  0  0  0  0  0  0  0  0  0  0  0
    5.9185    4.5400  -12.3365 H   0  0  0  0  0  0  0  0  0  0  0  0
    7.0232    4.0348  -14.3575 H   0  0  0  0  0  0  0  0  0  0  0  0
    4.7948    2.6403  -12.9113 H   0  0  0  0  0  0  0  0  0  0  0  0
    3.5352    0.6020  -13.4469 H   0  0  0  0  0  0  0  0  0  0  0  0
    4.6086   -1.2411  -14.7169 H   0  0  0  0  0  0  0  0  0  0  0  0
    6.9535   -1.0275  -15.4152 H   0  0  0  0  0  0  0  0  0  0  0  0
    9.8542    1.5692  -17.6359 H   0  0  0  0  0  0  0  0  0  0  0  0
   10.6952    3.7275  -18.5455 H   0  0  0  0  0  0  0  0  0  0  0  0
    9.9889    5.6159  -14.7493 H   0  0  0  0  0  0  0  0  0  0  0  0
    9.2856    2.5724  -12.9296 H   0  0  0  0  0  0  0  0  0  0  0  0
    8.1044    7.4629  -10.9084 H   0  0  0  0  0  0  0  0  0  0  0  0
  2  1  1  0
  3  2  1  0
  4  2  1  0
  5  4  1  0
  6  5  1  0
  7  6  1  0
  8  7  1  0
  9  8  2  0
 10  9  1  0
 11 10  2  0
 12 11  1  0
 13  8  1  0
 13 12  2  0
 14 13  1  0
 15 14  1  0
 16 15  1  0
 17 16  2  0
 18 17  1  0
 19 18  1  0
 20 18  2  0
 21 15  2  0
 21 20  1  0
 22  7  1  0
 22 21  1  0
 23  5  1  0
 23 22  1  0
 24  1  1  0
 25  1  1  0
 26  1  1  0
 27  3  1  0
 28  3  1  0
 29  3  1  0
 30  4  1  0
 31  4  1  0
  5 32  1  1
 33  6  1  0
 34  6  1  0
  7 35  1  6
 36  9  1  0
 37 10  1  0
 38 11  1  0
 39 12  1  0
 40 16  1  0
 41 17  1  0
 42 20  1  0
 22 43  1  1
 44  2  1  0
M  CHG  1   2   1
M  END
>  <b_m_subgroup_collapsed>  (1241) 
0

>  <r_i_docking_score>  (1241) 
-6.3730798046867401

>  <s_m_subgroup_title>  (1241) 
glide-dock_SP_D22_pv

>  <s_m_subgroupid>  (1241) 
glide-dock_SP_D22_pv

>  <Molecule ChEMBL ID>  (1241) 
CHEMBL193639

>  <Standard Type>  (1241) 
Ki

>  <Standard Value>  (1241) 
2.3

>  <label>  (1241) 
1

$$$$
CHEMBL201444
     RDKit          3D

 27 27  0  0  1  0  0  0  0  0999 V2000
    8.9565    4.6603   -9.1477 C   0  0  0  0  0  0  0  0  0  0  0  0
    8.6006    5.7721   -8.1628 C   0  0  0  0  0  0  0  0  0  0  0  0
    9.8068    6.2310   -7.5864 O   0  0  0  0  0  0  0  0  0  0  0  0
    9.8475    7.3905   -6.9136 C   0  0  0  0  0  0  0  0  0  0  0  0
    8.8932    8.1159   -6.6470 O   0  0  0  0  0  0  0  0  0  0  0  0
   11.2857    7.7859   -6.5771 C   0  0  1  0  0  0  0  0  0  0  0  0
   11.7378    8.9727   -7.4493 C   0  0  0  0  0  0  0  0  0  0  0  0
   11.6851    8.4823   -9.3825 Br  0  0  0  0  0  0  0  0  0  0  0  0
   11.5229    7.9832   -5.0785 C   0  0  0  0  0  0  0  0  0  0  0  0
   11.6859    6.8430   -4.2595 C   0  0  0  0  0  0  0  0  0  0  0  0
   11.9920    6.9729   -2.8925 C   0  0  0  0  0  0  0  0  0  0  0  0
   12.1372    8.2507   -2.3268 C   0  0  0  0  0  0  0  0  0  0  0  0
   11.9717    9.3935   -3.1287 C   0  0  0  0  0  0  0  0  0  0  0  0
   11.6637    9.2651   -4.4980 C   0  0  0  0  0  0  0  0  0  0  0  0
    8.0669    4.2746   -9.6422 H   0  0  0  0  0  0  0  0  0  0  0  0
    9.6268    5.0274   -9.9257 H   0  0  0  0  0  0  0  0  0  0  0  0
    9.4489    3.8261   -8.6469 H   0  0  0  0  0  0  0  0  0  0  0  0
    7.9203    5.4067   -7.3926 H   0  0  0  0  0  0  0  0  0  0  0  0
    8.0908    6.5814   -8.6860 H   0  0  0  0  0  0  0  0  0  0  0  0
   11.9143    6.9398   -6.8592 H   0  0  0  0  0  0  0  0  0  0  0  0
   11.0990    9.8456   -7.3133 H   0  0  0  0  0  0  0  0  0  0  0  0
   12.7659    9.2644   -7.2256 H   0  0  0  0  0  0  0  0  0  0  0  0
   11.5867    5.8556   -4.6885 H   0  0  0  0  0  0  0  0  0  0  0  0
   12.1170    6.0893   -2.2818 H   0  0  0  0  0  0  0  0  0  0  0  0
   12.3680    8.3590   -1.2780 H   0  0  0  0  0  0  0  0  0  0  0  0
   12.0816   10.3754   -2.6875 H   0  0  0  0  0  0  0  0  0  0  0  0
   11.5517   10.1633   -5.0898 H   0  0  0  0  0  0  0  0  0  0  0  0
  2  1  1  0
  3  2  1  0
  4  3  1  0
  5  4  2  0
  6  4  1  0
  7  6  1  0
  8  7  1  0
  9  6  1  0
 10  9  2  0
 11 10  1  0
 12 11  2  0
 13 12  1  0
 14  9  1  0
 14 13  2  0
 15  1  1  0
 16  1  1  0
 17  1  1  0
 18  2  1  0
 19  2  1  0
  6 20  1  6
 21  7  1  0
 22  7  1  0
 23 10  1  0
 24 11  1  0
 25 12  1  0
 26 13  1  0
 27 14  1  0
M  END
>  <b_m_subgroup_collapsed>  (1242) 
0

>  <r_i_docking_score>  (1242) 
-6.3725769326592498

>  <s_m_subgroup_title>  (1242) 
glide-dock_SP_D22_pv

>  <s_m_subgroupid>  (1242) 
glide-dock_SP_D22_pv

>  <Molecule ChEMBL ID>  (1242) 
CHEMBL201444

>  <Standard Type>  (1242) 
Ki

>  <Standard Value>  (1242) 
10000.0

>  <label>  (1242) 
0

$$$$
CHEMBL596678
     RDKit          3D

 51 54  0  0  1  0  0  0  0  0999 V2000
    5.0507    0.8419  -18.9157 C   0  0  0  0  0  0  0  0  0  0  0  0
    6.0615    0.8766  -17.8494 C   0  0  0  0  0  0  0  0  0  0  0  0
    6.8957    0.8774  -16.9578 C   0  0  0  0  0  0  0  0  0  0  0  0
    7.8829    0.8410  -15.8633 C   0  0  0  0  0  0  0  0  0  0  0  0
    8.0954    2.1448  -15.3227 O   0  0  0  0  0  0  0  0  0  0  0  0
    7.3472    2.5866  -14.2486 C   0  0  0  0  0  0  0  0  0  0  0  0
    6.0938    1.9948  -13.9441 C   0  0  0  0  0  0  0  0  0  0  0  0
    5.2630    2.5210  -12.9510 C   0  0  0  0  0  0  0  0  0  0  0  0
    5.6871    3.6342  -12.2254 C   0  0  0  0  0  0  0  0  0  0  0  0
    6.9649    4.1717  -12.4407 C   0  0  0  0  0  0  0  0  0  0  0  0
    7.8289    3.6724  -13.4474 C   0  0  0  0  0  0  0  0  0  0  0  0
    9.1941    4.2741  -13.5579 C   0  0  0  0  0  0  0  0  0  0  0  0
   10.2659    3.6587  -14.2639 C   0  0  0  0  0  0  0  0  0  0  0  0
   11.5356    4.2398  -14.4171 C   0  0  0  0  0  0  0  0  0  0  0  0
   11.8207    5.4680  -13.8144 C   0  0  0  0  0  0  0  0  0  0  0  0
   10.8414    6.0980  -13.0313 C   0  0  0  0  0  0  0  0  0  0  0  0
    9.5578    5.4939  -12.9113 C   0  0  0  0  0  0  0  0  0  0  0  0
    8.4453    6.1982  -12.0977 C   0  0  1  0  0  0  0  0  0  0  0  0
    7.4355    5.2271  -11.4795 C   0  0  0  0  0  0  0  0  0  0  0  0
    8.8862    7.2421  -11.1236 N   0  0  1  0  0  0  0  0  0  0  0  0
    9.2850    6.7654   -9.7621 C   0  0  0  0  0  0  0  0  0  0  0  0
    9.5635    7.9016   -8.7516 C   0  0  0  0  0  0  0  0  0  0  0  0
   11.0526    8.2128   -8.5299 C   0  0  0  0  0  0  0  0  0  0  0  0
    9.8670    8.1320  -11.7739 C   0  0  0  0  0  0  0  0  0  0  0  0
   11.1101    7.3231  -12.1746 C   0  0  0  0  0  0  0  0  0  0  0  0
    4.4867    1.7719  -18.9186 H   0  0  0  0  0  0  0  0  0  0  0  0
    4.3642    0.0122  -18.7466 H   0  0  0  0  0  0  0  0  0  0  0  0
    5.5341    0.7133  -19.8837 H   0  0  0  0  0  0  0  0  0  0  0  0
    7.5973    0.1043  -15.1111 H   0  0  0  0  0  0  0  0  0  0  0  0
    8.8236    0.4947  -16.2909 H   0  0  0  0  0  0  0  0  0  0  0  0
    5.7100    1.1569  -14.5039 H   0  0  0  0  0  0  0  0  0  0  0  0
    4.2944    2.0842  -12.7594 H   0  0  0  0  0  0  0  0  0  0  0  0
    5.0585    4.0416  -11.4486 H   0  0  0  0  0  0  0  0  0  0  0  0
   10.1588    2.6891  -14.7153 H   0  0  0  0  0  0  0  0  0  0  0  0
   12.2989    3.7237  -14.9808 H   0  0  0  0  0  0  0  0  0  0  0  0
   12.8102    5.8940  -13.9024 H   0  0  0  0  0  0  0  0  0  0  0  0
    7.8866    6.7491  -12.8567 H   0  0  0  0  0  0  0  0  0  0  0  0
    6.5862    5.7722  -11.0657 H   0  0  0  0  0  0  0  0  0  0  0  0
    7.8846    4.6606  -10.6646 H   0  0  0  0  0  0  0  0  0  0  0  0
    8.4461    6.2206   -9.3312 H   0  0  0  0  0  0  0  0  0  0  0  0
   10.1118    6.0558   -9.8100 H   0  0  0  0  0  0  0  0  0  0  0  0
    9.0136    8.8049   -9.0190 H   0  0  0  0  0  0  0  0  0  0  0  0
    9.1516    7.6013   -7.7866 H   0  0  0  0  0  0  0  0  0  0  0  0
   11.1717    8.9769   -7.7617 H   0  0  0  0  0  0  0  0  0  0  0  0
   11.5451    8.5817   -9.4285 H   0  0  0  0  0  0  0  0  0  0  0  0
   11.5928    7.3267   -8.1952 H   0  0  0  0  0  0  0  0  0  0  0  0
    9.4003    8.5811  -12.6471 H   0  0  0  0  0  0  0  0  0  0  0  0
   10.1306    8.9715  -11.1329 H   0  0  0  0  0  0  0  0  0  0  0  0
   11.6400    6.9897  -11.2839 H   0  0  0  0  0  0  0  0  0  0  0  0
   11.8369    7.9230  -12.7156 H   0  0  0  0  0  0  0  0  0  0  0  0
    8.0290    7.7703  -10.9345 H   0  0  0  0  0  0  0  0  0  0  0  0
  2  1  1  0
  3  2  3  0
  4  3  1  0
  5  4  1  0
  6  5  1  0
  7  6  1  0
  8  7  2  0
  9  8  1  0
 10  9  2  0
 11  6  2  0
 11 10  1  0
 12 11  1  0
 13 12  1  0
 14 13  2  0
 15 14  1  0
 16 15  2  0
 17 12  2  0
 17 16  1  0
 18 17  1  0
 19 10  1  0
 19 18  1  0
 20 18  1  0
 21 20  1  0
 22 21  1  0
 23 22  1  0
 24 20  1  0
 25 16  1  0
 25 24  1  0
 26  1  1  0
 27  1  1  0
 28  1  1  0
 29  4  1  0
 30  4  1  0
 31  7  1  0
 32  8  1  0
 33  9  1  0
 34 13  1  0
 35 14  1  0
 36 15  1  0
 18 37  1  6
 38 19  1  0
 39 19  1  0
 40 21  1  0
 41 21  1  0
 42 22  1  0
 43 22  1  0
 44 23  1  0
 45 23  1  0
 46 23  1  0
 47 24  1  0
 48 24  1  0
 49 25  1  0
 50 25  1  0
 20 51  1  1
M  CHG  1  20   1
M  END
>  <b_m_subgroup_collapsed>  (1243) 
0

>  <r_i_docking_score>  (1243) 
-6.36868137009

>  <s_m_subgroup_title>  (1243) 
glide-dock_SP_D22_pv

>  <s_m_subgroupid>  (1243) 
glide-dock_SP_D22_pv

>  <Molecule ChEMBL ID>  (1243) 
CHEMBL596678

>  <Standard Type>  (1243) 
Ki

>  <Standard Value>  (1243) 
10000.0

>  <label>  (1243) 
0

$$$$
CHEMBL145584
     RDKit          3D

 22 22  0  0  1  0  0  0  0  0999 V2000
    8.4860    7.6338   -7.3622 N   0  0  0  0  0  0  0  0  0  0  0  0
    9.2949    6.4865   -6.9194 C   0  0  0  0  0  0  0  0  0  0  0  0
   10.7997    6.8128   -6.8496 C   0  0  0  0  0  0  0  0  0  0  0  0
   11.1381    7.8493   -5.7907 C   0  0  0  0  0  0  0  0  0  0  0  0
   10.9076    9.2176   -6.0442 C   0  0  0  0  0  0  0  0  0  0  0  0
   11.1691   10.1723   -5.0469 C   0  0  0  0  0  0  0  0  0  0  0  0
   11.6860    9.7722   -3.8009 C   0  0  0  0  0  0  0  0  0  0  0  0
   11.9651    8.4147   -3.5571 C   0  0  0  0  0  0  0  0  0  0  0  0
   12.4860    8.0350   -2.3551 O   0  0  0  0  0  0  0  0  0  0  0  0
   11.6860    7.4522   -4.5488 C   0  0  0  0  0  0  0  0  0  0  0  0
    7.4964    7.3723   -7.4772 H   0  0  0  0  0  0  0  0  0  0  0  0
    8.5423    8.3791   -6.6849 H   0  0  0  0  0  0  0  0  0  0  0  0
    9.1248    5.6605   -7.6108 H   0  0  0  0  0  0  0  0  0  0  0  0
    8.9333    6.1723   -5.9411 H   0  0  0  0  0  0  0  0  0  0  0  0
   11.1568    7.1625   -7.8194 H   0  0  0  0  0  0  0  0  0  0  0  0
   11.3593    5.8998   -6.6408 H   0  0  0  0  0  0  0  0  0  0  0  0
   10.5219    9.5439   -6.9988 H   0  0  0  0  0  0  0  0  0  0  0  0
   10.9769   11.2175   -5.2367 H   0  0  0  0  0  0  0  0  0  0  0  0
   11.8811   10.5154   -3.0408 H   0  0  0  0  0  0  0  0  0  0  0  0
   12.6151    8.7638   -1.7665 H   0  0  0  0  0  0  0  0  0  0  0  0
   11.8794    6.4079   -4.3475 H   0  0  0  0  0  0  0  0  0  0  0  0
    8.8059    7.9577   -8.2629 H   0  0  0  0  0  0  0  0  0  0  0  0
  2  1  1  0
  3  2  1  0
  4  3  1  0
  5  4  2  0
  6  5  1  0
  7  6  2  0
  8  7  1  0
  9  8  1  0
 10  4  1  0
 10  8  2  0
 11  1  1  0
 12  1  1  0
 13  2  1  0
 14  2  1  0
 15  3  1  0
 16  3  1  0
 17  5  1  0
 18  6  1  0
 19  7  1  0
 20  9  1  0
 21 10  1  0
 22  1  1  0
M  CHG  1   1   1
M  END
>  <b_m_subgroup_collapsed>  (1244) 
0

>  <r_i_docking_score>  (1244) 
-6.36545958309177

>  <s_m_subgroup_title>  (1244) 
glide-dock_SP_D22_pv

>  <s_m_subgroupid>  (1244) 
glide-dock_SP_D22_pv

>  <Molecule ChEMBL ID>  (1244) 
CHEMBL145584

>  <Standard Type>  (1244) 
Ki

>  <Standard Value>  (1244) 
20000.0

>  <label>  (1244) 
0

$$$$
CHEMBL22022
     RDKit          3D

 58 60  0  0  1  0  0  0  0  0999 V2000
   12.8103    7.9709  -16.5853 C   0  0  0  0  0  0  0  0  0  0  0  0
   13.0663    6.8866  -17.6448 C   0  0  0  0  0  0  0  0  0  0  0  0
   13.8139    5.3589  -16.9257 S   0  0  0  0  0  0  0  0  0  0  0  0
   14.7208    5.7754  -15.8482 O   0  0  0  0  0  0  0  0  0  0  0  0
   14.3309    4.5497  -18.0404 O   0  0  0  0  0  0  0  0  0  0  0  0
   12.4620    4.4535  -16.1641 C   0  0  0  0  0  0  0  0  0  0  0  0
   12.0862    3.1935  -16.6608 C   0  0  0  0  0  0  0  0  0  0  0  0
   11.0375    2.4869  -16.0435 C   0  0  0  0  0  0  0  0  0  0  0  0
   10.3225    3.0484  -14.9532 C   0  0  0  0  0  0  0  0  0  0  0  0
    9.2894    2.3872  -14.3206 O   0  0  0  0  0  0  0  0  0  0  0  0
    9.0903    1.0089  -14.6024 C   0  0  0  0  0  0  0  0  0  0  0  0
   10.6736    4.3432  -14.4858 C   0  0  0  0  0  0  0  0  0  0  0  0
    9.9001    5.0245  -13.4427 C   0  0  0  0  0  0  0  0  0  0  0  0
    8.5944    4.9490  -13.0365 C   0  0  0  0  0  0  0  0  0  0  0  0
    8.3785    5.9486  -12.0419 C   0  0  0  0  0  0  0  0  0  0  0  0
    9.5607    6.6053  -11.8247 C   0  0  0  0  0  0  0  0  0  0  0  0
    9.9281    7.7696  -10.9429 C   0  0  2  0  0  0  0  0  0  0  0  0
   11.4595    8.0019  -10.8636 C   0  0  0  0  0  0  0  0  0  0  0  0
    9.2860    7.6969   -9.5912 N   0  0  0  0  0  0  0  0  0  0  0  0
    9.4820    6.4004   -8.8779 C   0  0  0  0  0  0  0  0  0  0  0  0
    8.9806    6.3881   -7.4228 C   0  0  0  0  0  0  0  0  0  0  0  0
   10.0400    6.8128   -6.3969 C   0  0  0  0  0  0  0  0  0  0  0  0
   10.3021    8.3204   -6.3984 C   0  0  0  0  0  0  0  0  0  0  0  0
   10.6860    8.8642   -7.7777 C   0  0  0  0  0  0  0  0  0  0  0  0
    9.4939    8.9254   -8.7685 C   0  0  0  0  0  0  0  0  0  0  0  0
   10.4721    6.0233  -12.6828 N   0  0  0  0  0  0  0  0  0  0  0  0
   11.7775    5.0088  -15.0699 C   0  0  0  0  0  0  0  0  0  0  0  0
   12.5599    8.9230  -17.0474 H   0  0  0  0  0  0  0  0  0  0  0  0
   11.9825    7.7141  -15.9303 H   0  0  0  0  0  0  0  0  0  0  0  0
   13.6862    8.1440  -15.9629 H   0  0  0  0  0  0  0  0  0  0  0  0
   13.7775    7.2658  -18.3782 H   0  0  0  0  0  0  0  0  0  0  0  0
   12.1579    6.6170  -18.1824 H   0  0  0  0  0  0  0  0  0  0  0  0
   12.6131    2.7541  -17.4951 H   0  0  0  0  0  0  0  0  0  0  0  0
   10.7918    1.5125  -16.4366 H   0  0  0  0  0  0  0  0  0  0  0  0
    8.3284    0.6127  -13.9312 H   0  0  0  0  0  0  0  0  0  0  0  0
    8.7411    0.8566  -15.6246 H   0  0  0  0  0  0  0  0  0  0  0  0
   10.0004    0.4296  -14.4392 H   0  0  0  0  0  0  0  0  0  0  0  0
    7.8530    4.2739  -13.4374 H   0  0  0  0  0  0  0  0  0  0  0  0
    7.4442    6.1682  -11.5427 H   0  0  0  0  0  0  0  0  0  0  0  0
    9.5054    8.6517  -11.4264 H   0  0  0  0  0  0  0  0  0  0  0  0
   11.9059    8.0914  -11.8521 H   0  0  0  0  0  0  0  0  0  0  0  0
   11.7116    8.9303  -10.3525 H   0  0  0  0  0  0  0  0  0  0  0  0
   11.9715    7.1859  -10.3545 H   0  0  0  0  0  0  0  0  0  0  0  0
    8.9291    5.6309   -9.4158 H   0  0  0  0  0  0  0  0  0  0  0  0
   10.5268    6.0918   -8.9120 H   0  0  0  0  0  0  0  0  0  0  0  0
    8.0861    6.9911   -7.3022 H   0  0  0  0  0  0  0  0  0  0  0  0
    8.6739    5.3724   -7.1947 H   0  0  0  0  0  0  0  0  0  0  0  0
    9.7029    6.5295   -5.3998 H   0  0  0  0  0  0  0  0  0  0  0  0
   10.9684    6.2652   -6.5657 H   0  0  0  0  0  0  0  0  0  0  0  0
    9.4239    8.8506   -6.0317 H   0  0  0  0  0  0  0  0  0  0  0  0
   11.1023    8.5363   -5.6894 H   0  0  0  0  0  0  0  0  0  0  0  0
   11.0673    9.8713   -7.6249 H   0  0  0  0  0  0  0  0  0  0  0  0
   11.5295    8.3016   -8.1754 H   0  0  0  0  0  0  0  0  0  0  0  0
    9.6259    9.7722   -9.4406 H   0  0  0  0  0  0  0  0  0  0  0  0
    8.5711    9.1434   -8.2283 H   0  0  0  0  0  0  0  0  0  0  0  0
   11.4354    6.3126  -12.7721 H   0  0  0  0  0  0  0  0  0  0  0  0
   12.0927    5.9702  -14.7010 H   0  0  0  0  0  0  0  0  0  0  0  0
    8.2879    7.7175   -9.8043 H   0  0  0  0  0  0  0  0  0  0  0  0
  2  1  1  0
  3  2  1  0
  4  3  2  0
  5  3  2  0
  6  3  1  0
  7  6  1  0
  8  7  2  0
  9  8  1  0
 10  9  1  0
 11 10  1  0
 12  9  2  0
 13 12  1  0
 14 13  2  0
 15 14  1  0
 16 15  2  0
 17 16  1  0
 18 17  1  0
 19 17  1  0
 20 19  1  0
 21 20  1  0
 22 21  1  0
 23 22  1  0
 24 23  1  0
 25 19  1  0
 25 24  1  0
 26 13  1  0
 26 16  1  0
 27  6  2  0
 27 12  1  0
 28  1  1  0
 29  1  1  0
 30  1  1  0
 31  2  1  0
 32  2  1  0
 33  7  1  0
 34  8  1  0
 35 11  1  0
 36 11  1  0
 37 11  1  0
 38 14  1  0
 39 15  1  0
 17 40  1  6
 41 18  1  0
 42 18  1  0
 43 18  1  0
 44 20  1  0
 45 20  1  0
 46 21  1  0
 47 21  1  0
 48 22  1  0
 49 22  1  0
 50 23  1  0
 51 23  1  0
 52 24  1  0
 53 24  1  0
 54 25  1  0
 55 25  1  0
 56 26  1  0
 57 27  1  0
 58 19  1  0
M  CHG  1  19   1
M  END
>  <b_m_subgroup_collapsed>  (1245) 
0

>  <r_i_docking_score>  (1245) 
-6.3634126825735304

>  <s_m_subgroup_title>  (1245) 
glide-dock_SP_D22_pv

>  <s_m_subgroupid>  (1245) 
glide-dock_SP_D22_pv

>  <Molecule ChEMBL ID>  (1245) 
CHEMBL22022

>  <Standard Type>  (1245) 
Ki

>  <Standard Value>  (1245) 
79.43

>  <label>  (1245) 
1

$$$$
CHEMBL201010
     RDKit          3D

 49 53  0  0  1  0  0  0  0  0999 V2000
   13.0155    5.2309  -14.4088 C   0  0  0  0  0  0  0  0  0  0  0  0
   11.6463    5.6702  -13.9764 N   0  0  2  0  0  0  0  0  0  0  0  0
   11.8449    6.8186  -13.0217 C   0  0  0  0  0  0  0  0  0  0  0  0
   10.6503    7.2066  -12.1176 C   0  0  0  0  0  0  0  0  0  0  0  0
   10.0766    6.0220  -11.3528 C   0  0  0  0  0  0  0  0  0  0  0  0
    9.7597    4.8425  -12.3209 C   0  0  1  0  0  0  0  0  0  0  0  0
    8.3004    4.8368  -12.8266 C   0  0  0  0  0  0  0  0  0  0  0  0
    7.4034    5.8819  -12.4929 C   0  0  0  0  0  0  0  0  0  0  0  0
    6.0196    5.7255  -12.6531 C   0  0  0  0  0  0  0  0  0  0  0  0
    5.5037    4.5726  -13.2750 C   0  0  0  0  0  0  0  0  0  0  0  0
    6.3755    3.5599  -13.6892 C   0  0  0  0  0  0  0  0  0  0  0  0
    7.7509    3.6894  -13.4467 C   0  0  0  0  0  0  0  0  0  0  0  0
   10.9430    4.5079  -13.3230 C   0  0  1  0  0  0  0  0  0  0  0  0
   10.6901    3.4484  -14.3811 C   0  0  0  0  0  0  0  0  0  0  0  0
   10.5612    2.0869  -14.1665 N   0  0  0  0  0  0  0  0  0  0  0  0
   10.3236    1.4226  -15.3555 C   0  0  0  0  0  0  0  0  0  0  0  0
   10.0876    0.0709  -15.6530 C   0  0  0  0  0  0  0  0  0  0  0  0
    9.9052   -0.3222  -16.9916 C   0  0  0  0  0  0  0  0  0  0  0  0
    9.9514    0.6406  -18.0176 C   0  0  0  0  0  0  0  0  0  0  0  0
   10.1733    1.9979  -17.7086 C   0  0  0  0  0  0  0  0  0  0  0  0
   10.3566    2.4203  -16.3711 C   0  0  0  0  0  0  0  0  0  0  0  0
   10.5925    3.6792  -15.7286 C   0  0  0  0  0  0  0  0  0  0  0  0
   10.7965    5.0328  -16.3220 C   0  0  0  0  0  0  0  0  0  0  0  0
   10.8859    6.0859  -15.1941 C   0  0  0  0  0  0  0  0  0  0  0  0
   13.0429    4.5701  -15.2715 H   0  0  0  0  0  0  0  0  0  0  0  0
   13.5126    4.6424  -13.6370 H   0  0  0  0  0  0  0  0  0  0  0  0
   13.6459    6.0852  -14.6606 H   0  0  0  0  0  0  0  0  0  0  0  0
   12.6676    6.5717  -12.3507 H   0  0  0  0  0  0  0  0  0  0  0  0
   12.1843    7.6994  -13.5692 H   0  0  0  0  0  0  0  0  0  0  0  0
   10.9879    7.9540  -11.3984 H   0  0  0  0  0  0  0  0  0  0  0  0
    9.8428    7.6972  -12.6469 H   0  0  0  0  0  0  0  0  0  0  0  0
   10.7319    5.7724  -10.5268 H   0  0  0  0  0  0  0  0  0  0  0  0
    9.2140    6.3188  -10.7600 H   0  0  0  0  0  0  0  0  0  0  0  0
    9.7261    3.9708  -11.6645 H   0  0  0  0  0  0  0  0  0  0  0  0
    7.7143    6.8067  -12.0347 H   0  0  0  0  0  0  0  0  0  0  0  0
    5.3571    6.5170  -12.3328 H   0  0  0  0  0  0  0  0  0  0  0  0
    4.4447    4.4631  -13.4468 H   0  0  0  0  0  0  0  0  0  0  0  0
    5.9876    2.6637  -14.1506 H   0  0  0  0  0  0  0  0  0  0  0  0
    8.3404    2.8256  -13.6720 H   0  0  0  0  0  0  0  0  0  0  0  0
   11.7087    4.1723  -12.6469 H   0  0  0  0  0  0  0  0  0  0  0  0
   10.5349    1.6590  -13.2424 H   0  0  0  0  0  0  0  0  0  0  0  0
   10.0554   -0.6580  -14.8595 H   0  0  0  0  0  0  0  0  0  0  0  0
    9.7295   -1.3604  -17.2329 H   0  0  0  0  0  0  0  0  0  0  0  0
    9.8118    0.3377  -19.0452 H   0  0  0  0  0  0  0  0  0  0  0  0
   10.2017    2.7278  -18.5039 H   0  0  0  0  0  0  0  0  0  0  0  0
   11.6923    5.0475  -16.9434 H   0  0  0  0  0  0  0  0  0  0  0  0
    9.9720    5.2828  -16.9909 H   0  0  0  0  0  0  0  0  0  0  0  0
    9.8596    6.1723  -14.8610 H   0  0  0  0  0  0  0  0  0  0  0  0
   11.2593    7.0314  -15.5908 H   0  0  0  0  0  0  0  0  0  0  0  0
  2  1  1  6
  3  2  1  0
  4  3  1  0
  5  4  1  0
  6  5  1  0
  7  6  1  0
  8  7  2  0
  9  8  1  0
 10  9  2  0
 11 10  1  0
 12  7  1  0
 12 11  2  0
 13  2  1  0
 13  6  1  0
 14 13  1  0
 15 14  1  0
 16 15  1  0
 17 16  2  0
 18 17  1  0
 19 18  2  0
 20 19  1  0
 21 16  1  0
 21 20  2  0
 22 14  2  0
 22 21  1  0
 23 22  1  0
 24  2  1  0
 24 23  1  0
 25  1  1  0
 26  1  1  0
 27  1  1  0
 28  3  1  0
 29  3  1  0
 30  4  1  0
 31  4  1  0
 32  5  1  0
 33  5  1  0
  6 34  1  1
 35  8  1  0
 36  9  1  0
 37 10  1  0
 38 11  1  0
 39 12  1  0
 13 40  1  1
 41 15  1  0
 42 17  1  0
 43 18  1  0
 44 19  1  0
 45 20  1  0
 46 23  1  0
 47 23  1  0
 48 24  1  0
 49 24  1  0
M  CHG  1   2   1
M  END
>  <b_m_subgroup_collapsed>  (1246) 
0

>  <r_i_docking_score>  (1246) 
-6.3580945640249702

>  <s_m_subgroup_title>  (1246) 
glide-dock_SP_D22_pv

>  <s_m_subgroupid>  (1246) 
glide-dock_SP_D22_pv

>  <Molecule ChEMBL ID>  (1246) 
CHEMBL201010

>  <Standard Type>  (1246) 
Ki

>  <Standard Value>  (1246) 
10000.0

>  <label>  (1246) 
0

$$$$
CHEMBL1080907
     RDKit          3D

 60 64  0  0  1  0  0  0  0  0999 V2000
    8.5842    5.8096  -12.4182 C   0  0  0  0  0  0  0  0  0  0  0  0
    9.7875    6.6125  -11.9560 C   0  0  0  0  0  0  0  0  0  0  0  0
    9.6567    7.4107  -10.7990 C   0  0  0  0  0  0  0  0  0  0  0  0
   10.7385    8.1712  -10.3235 C   0  0  0  0  0  0  0  0  0  0  0  0
   11.9582    8.1520  -11.0192 C   0  0  0  0  0  0  0  0  0  0  0  0
   12.0861    7.3723  -12.1845 C   0  0  0  0  0  0  0  0  0  0  0  0
   11.0225    6.5724  -12.6561 C   0  0  0  0  0  0  0  0  0  0  0  0
   11.2766    5.6713  -13.7964 C   0  0  0  0  0  0  0  0  0  0  0  0
   11.1878    4.2800  -13.6106 C   0  0  0  0  0  0  0  0  0  0  0  0
   11.5468    3.3815  -14.6287 C   0  0  0  0  0  0  0  0  0  0  0  0
   11.8940    3.8420  -15.9196 C   0  0  0  0  0  0  0  0  0  0  0  0
   12.2875    2.9300  -17.0689 C   0  0  0  0  0  0  0  0  0  0  0  0
   13.1325    3.3581  -17.8575 O   0  0  0  0  0  0  0  0  0  0  0  0
   11.6416    1.7507  -17.3082 N   0  0  0  0  0  0  0  0  0  0  0  0
   10.8652    0.9593  -16.3379 C   0  0  0  0  0  0  0  0  0  0  0  0
   10.0335   -0.1607  -16.9868 C   0  0  0  0  0  0  0  0  0  0  0  0
    9.3432    0.3738  -18.1702 N   0  0  0  0  0  0  0  0  0  0  0  0
    8.0004    0.2554  -18.3536 C   0  0  0  0  0  0  0  0  0  0  0  0
    7.4728    0.2635  -19.4658 O   0  0  0  0  0  0  0  0  0  0  0  0
    7.1162    0.1814  -17.1361 C   0  0  0  0  0  0  0  0  0  0  0  0
    7.3113    1.0680  -16.0530 C   0  0  0  0  0  0  0  0  0  0  0  0
    6.4859    1.0178  -14.9165 C   0  0  0  0  0  0  0  0  0  0  0  0
    5.3685    0.1552  -14.8754 C   0  0  0  0  0  0  0  0  0  0  0  0
    4.2887   -0.0337  -13.9544 C   0  0  0  0  0  0  0  0  0  0  0  0
    3.4744   -0.9958  -14.4857 C   0  0  0  0  0  0  0  0  0  0  0  0
    4.0151   -1.4277  -15.6859 N   0  0  0  0  0  0  0  0  0  0  0  0
    5.1621   -0.7148  -15.9858 C   0  0  0  0  0  0  0  0  0  0  0  0
    6.0248   -0.7135  -17.0985 C   0  0  0  0  0  0  0  0  0  0  0  0
   10.2721    0.8974  -19.2064 C   0  0  1  0  0  0  0  0  0  0  0  0
    9.7829    2.2347  -19.8132 C   0  0  0  0  0  0  0  0  0  0  0  0
   11.7058    1.1034  -18.6343 C   0  0  0  0  0  0  0  0  0  0  0  0
   11.9642    5.2440  -16.1116 C   0  0  0  0  0  0  0  0  0  0  0  0
   11.6858    6.1446  -15.0608 C   0  0  0  0  0  0  0  0  0  0  0  0
    8.6368    4.7907  -12.0362 H   0  0  0  0  0  0  0  0  0  0  0  0
    7.6577    6.2579  -12.0534 H   0  0  0  0  0  0  0  0  0  0  0  0
    8.5276    5.7711  -13.5063 H   0  0  0  0  0  0  0  0  0  0  0  0
    8.7173    7.4351  -10.2647 H   0  0  0  0  0  0  0  0  0  0  0  0
   10.6291    8.7720   -9.4327 H   0  0  0  0  0  0  0  0  0  0  0  0
   12.7938    8.7368  -10.6661 H   0  0  0  0  0  0  0  0  0  0  0  0
   13.0327    7.3639  -12.7042 H   0  0  0  0  0  0  0  0  0  0  0  0
   10.8860    3.8943  -12.6469 H   0  0  0  0  0  0  0  0  0  0  0  0
   11.5608    2.3389  -14.3646 H   0  0  0  0  0  0  0  0  0  0  0  0
   11.5335    0.5189  -15.6024 H   0  0  0  0  0  0  0  0  0  0  0  0
   10.1698    1.6082  -15.8164 H   0  0  0  0  0  0  0  0  0  0  0  0
   10.6763   -0.9828  -17.3038 H   0  0  0  0  0  0  0  0  0  0  0  0
    9.3746   -0.6146  -16.2464 H   0  0  0  0  0  0  0  0  0  0  0  0
    8.0919    1.8103  -16.0886 H   0  0  0  0  0  0  0  0  0  0  0  0
    6.6574    1.7029  -14.0981 H   0  0  0  0  0  0  0  0  0  0  0  0
    4.1390    0.5218  -13.0470 H   0  0  0  0  0  0  0  0  0  0  0  0
    2.5495   -1.3951  -14.0970 H   0  0  0  0  0  0  0  0  0  0  0  0
    3.5987   -2.1641  -16.2460 H   0  0  0  0  0  0  0  0  0  0  0  0
    5.8328   -1.3786  -17.9275 H   0  0  0  0  0  0  0  0  0  0  0  0
   10.3278    0.1627  -20.0114 H   0  0  0  0  0  0  0  0  0  0  0  0
   10.5214    2.6437  -20.5035 H   0  0  0  0  0  0  0  0  0  0  0  0
    8.8619    2.1273  -20.3848 H   0  0  0  0  0  0  0  0  0  0  0  0
    9.6133    2.9827  -19.0390 H   0  0  0  0  0  0  0  0  0  0  0  0
   12.3074    1.6542  -19.3588 H   0  0  0  0  0  0  0  0  0  0  0  0
   12.2191    0.1466  -18.5270 H   0  0  0  0  0  0  0  0  0  0  0  0
   12.2589    5.6459  -17.0708 H   0  0  0  0  0  0  0  0  0  0  0  0
   11.7755    7.2077  -15.2325 H   0  0  0  0  0  0  0  0  0  0  0  0
  2  1  1  0
  3  2  2  0
  4  3  1  0
  5  4  2  0
  6  5  1  0
  7  2  1  0
  7  6  2  0
  8  7  1  0
  9  8  1  0
 10  9  2  0
 11 10  1  0
 12 11  1  0
 13 12  2  0
 14 12  1  0
 15 14  1  0
 16 15  1  0
 17 16  1  0
 18 17  1  0
 19 18  2  0
 20 18  1  0
 21 20  2  0
 22 21  1  0
 23 22  2  0
 24 23  1  0
 25 24  2  0
 26 25  1  0
 27 23  1  0
 27 26  1  0
 28 20  1  0
 28 27  2  0
 29 17  1  0
 30 29  1  0
 31 14  1  0
 31 29  1  0
 32 11  2  0
 33  8  2  0
 33 32  1  0
 34  1  1  0
 35  1  1  0
 36  1  1  0
 37  3  1  0
 38  4  1  0
 39  5  1  0
 40  6  1  0
 41  9  1  0
 42 10  1  0
 43 15  1  0
 44 15  1  0
 45 16  1  0
 46 16  1  0
 47 21  1  0
 48 22  1  0
 49 24  1  0
 50 25  1  0
 51 26  1  0
 52 28  1  0
 29 53  1  6
 54 30  1  0
 55 30  1  0
 56 30  1  0
 57 31  1  0
 58 31  1  0
 59 32  1  0
 60 33  1  0
M  END
>  <b_m_subgroup_collapsed>  (1247) 
0

>  <r_i_docking_score>  (1247) 
-6.3573770328324297

>  <s_m_subgroup_title>  (1247) 
glide-dock_SP_D22_pv

>  <s_m_subgroupid>  (1247) 
glide-dock_SP_D22_pv

>  <Molecule ChEMBL ID>  (1247) 
CHEMBL1080907

>  <Standard Type>  (1247) 
Ki

>  <Standard Value>  (1247) 
10000.0

>  <label>  (1247) 
0

$$$$
CHEMBL93868
     RDKit          3D

 44 46  0  0  1  0  0  0  0  0999 V2000
    8.7364    6.5473   -7.4253 C   0  0  0  0  0  0  0  0  0  0  0  0
    8.8861    7.1939   -8.7477 N   0  0  0  0  0  0  0  0  0  0  0  0
    9.7712    8.3779   -8.6907 C   0  0  0  0  0  0  0  0  0  0  0  0
    9.2147    6.2237   -9.8199 C   0  0  0  0  0  0  0  0  0  0  0  0
    9.2303    6.8421  -11.2328 C   0  0  0  0  0  0  0  0  0  0  0  0
    9.3123    5.7871  -12.2880 C   0  0  0  0  0  0  0  0  0  0  0  0
   10.3985    5.4733  -13.0545 C   0  0  0  0  0  0  0  0  0  0  0  0
   10.0901    4.4225  -13.9058 N   0  0  0  0  0  0  0  0  0  0  0  0
   11.2130    3.7786  -15.0403 S   0  0  0  0  0  0  0  0  0  0  0  0
   10.8601    2.3629  -15.2220 O   0  0  0  0  0  0  0  0  0  0  0  0
   12.5370    4.1723  -14.5334 O   0  0  0  0  0  0  0  0  0  0  0  0
   10.8622    4.6858  -16.5453 C   0  0  0  0  0  0  0  0  0  0  0  0
    9.7574    4.3242  -17.3413 C   0  0  0  0  0  0  0  0  0  0  0  0
    9.4785    5.0508  -18.5177 C   0  0  0  0  0  0  0  0  0  0  0  0
   10.3072    6.1276  -18.8955 C   0  0  0  0  0  0  0  0  0  0  0  0
   11.4157    6.4800  -18.0989 C   0  0  0  0  0  0  0  0  0  0  0  0
   11.6918    5.7640  -16.9200 C   0  0  0  0  0  0  0  0  0  0  0  0
    8.7748    4.0230  -13.6958 C   0  0  0  0  0  0  0  0  0  0  0  0
    7.9692    3.0093  -14.2581 C   0  0  0  0  0  0  0  0  0  0  0  0
    6.6317    2.8706  -13.8475 C   0  0  0  0  0  0  0  0  0  0  0  0
    6.0963    3.7486  -12.8858 C   0  0  0  0  0  0  0  0  0  0  0  0
    6.9040    4.7527  -12.3178 C   0  0  0  0  0  0  0  0  0  0  0  0
    8.2597    4.9039  -12.6989 C   0  0  0  0  0  0  0  0  0  0  0  0
    9.6856    6.1523   -7.0618 H   0  0  0  0  0  0  0  0  0  0  0  0
    8.3570    7.2626   -6.6906 H   0  0  0  0  0  0  0  0  0  0  0  0
    8.0148    5.7307   -7.4773 H   0  0  0  0  0  0  0  0  0  0  0  0
   10.8152    8.0887   -8.5654 H   0  0  0  0  0  0  0  0  0  0  0  0
    9.6806    8.9804   -9.5966 H   0  0  0  0  0  0  0  0  0  0  0  0
    9.4908    9.0228   -7.8579 H   0  0  0  0  0  0  0  0  0  0  0  0
    8.4600    5.4350   -9.7914 H   0  0  0  0  0  0  0  0  0  0  0  0
   10.1723    5.7412   -9.6111 H   0  0  0  0  0  0  0  0  0  0  0  0
   10.0689    7.5284  -11.3351 H   0  0  0  0  0  0  0  0  0  0  0  0
    8.3331    7.4362  -11.4036 H   0  0  0  0  0  0  0  0  0  0  0  0
   11.3835    5.9171  -13.0643 H   0  0  0  0  0  0  0  0  0  0  0  0
    9.1249    3.4988  -17.0530 H   0  0  0  0  0  0  0  0  0  0  0  0
    8.6282    4.7865  -19.1295 H   0  0  0  0  0  0  0  0  0  0  0  0
   10.0924    6.6831  -19.7980 H   0  0  0  0  0  0  0  0  0  0  0  0
   12.0478    7.3072  -18.3913 H   0  0  0  0  0  0  0  0  0  0  0  0
   12.5378    6.0409  -16.3076 H   0  0  0  0  0  0  0  0  0  0  0  0
    8.3721    2.3264  -14.9903 H   0  0  0  0  0  0  0  0  0  0  0  0
    6.0156    2.0835  -14.2598 H   0  0  0  0  0  0  0  0  0  0  0  0
    5.0690    3.6417  -12.5679 H   0  0  0  0  0  0  0  0  0  0  0  0
    6.4859    5.4160  -11.5732 H   0  0  0  0  0  0  0  0  0  0  0  0
    7.9542    7.5254   -8.9808 H   0  0  0  0  0  0  0  0  0  0  0  0
  2  1  1  0
  3  2  1  0
  4  2  1  0
  5  4  1  0
  6  5  1  0
  7  6  2  0
  8  7  1  0
  9  8  1  0
 10  9  2  0
 11  9  2  0
 12  9  1  0
 13 12  2  0
 14 13  1  0
 15 14  2  0
 16 15  1  0
 17 12  1  0
 17 16  2  0
 18  8  1  0
 19 18  2  0
 20 19  1  0
 21 20  2  0
 22 21  1  0
 23  6  1  0
 23 18  1  0
 23 22  2  0
 24  1  1  0
 25  1  1  0
 26  1  1  0
 27  3  1  0
 28  3  1  0
 29  3  1  0
 30  4  1  0
 31  4  1  0
 32  5  1  0
 33  5  1  0
 34  7  1  0
 35 13  1  0
 36 14  1  0
 37 15  1  0
 38 16  1  0
 39 17  1  0
 40 19  1  0
 41 20  1  0
 42 21  1  0
 43 22  1  0
 44  2  1  0
M  CHG  1   2   1
M  END
>  <b_m_subgroup_collapsed>  (1248) 
0

>  <r_i_docking_score>  (1248) 
-6.3566609602408004

>  <s_m_subgroup_title>  (1248) 
glide-dock_SP_D22_pv

>  <s_m_subgroupid>  (1248) 
glide-dock_SP_D22_pv

>  <Molecule ChEMBL ID>  (1248) 
CHEMBL93868

>  <Standard Type>  (1248) 
Ki

>  <Standard Value>  (1248) 
62.0

>  <label>  (1248) 
1

$$$$
CHEMBL4541869
     RDKit          3D

 81 85  0  0  1  0  0  0  0  0999 V2000
   11.8407   11.2784   -6.2656 C   0  0  0  0  0  0  0  0  0  0  0  0
   10.8867   10.2412   -6.2444 O   0  0  0  0  0  0  0  0  0  0  0  0
   11.2142    9.1827   -5.4406 C   0  0  0  0  0  0  0  0  0  0  0  0
   11.5156    9.3781   -4.0721 C   0  0  0  0  0  0  0  0  0  0  0  0
   11.7566    8.2739   -3.2358 C   0  0  0  0  0  0  0  0  0  0  0  0
   11.6861    6.9723   -3.7632 C   0  0  0  0  0  0  0  0  0  0  0  0
   11.3916    6.7781   -5.1272 C   0  0  0  0  0  0  0  0  0  0  0  0
   11.1830    7.8789   -5.9883 C   0  0  0  0  0  0  0  0  0  0  0  0
   10.9623    7.6852   -7.3667 N   0  0  0  0  0  0  0  0  0  0  0  0
   11.6899    8.4679   -8.3640 C   0  0  0  0  0  0  0  0  0  0  0  0
   10.7202    8.9702   -9.4555 C   0  0  0  0  0  0  0  0  0  0  0  0
    9.9315    7.8156  -10.1176 C   0  0  0  0  0  0  0  0  0  0  0  0
   10.9011    6.9693  -10.9562 C   0  0  0  0  0  0  0  0  0  0  0  0
   10.1831    5.8409  -11.7255 C   0  0  0  0  0  0  0  0  0  0  0  0
    9.1654    6.3871  -12.6352 N   0  0  0  0  0  0  0  0  0  0  0  0
    8.5660    5.3399  -13.4967 C   0  0  0  0  0  0  0  0  0  0  0  0
    9.4647    5.0228  -14.7173 C   0  0  0  0  0  0  0  0  0  0  0  0
   10.1244    3.6357  -14.6819 C   0  0  0  0  0  0  0  0  0  0  0  0
    8.9208    2.2816  -14.7925 S   0  0  0  0  0  0  0  0  0  0  0  0
    8.6983    2.1444  -16.5413 C   0  0  0  0  0  0  0  0  0  0  0  0
    8.9206    3.1060  -17.4359 N   0  0  0  0  0  0  0  0  0  0  0  0
    8.5877    2.5587  -18.6529 N   0  0  0  0  0  0  0  0  0  0  0  0
    8.2183    1.2988  -18.4061 C   0  0  0  0  0  0  0  0  0  0  0  0
    7.8284    0.3870  -19.4766 C   0  0  0  0  0  0  0  0  0  0  0  0
    6.8832    0.7897  -20.4424 C   0  0  0  0  0  0  0  0  0  0  0  0
    6.5127   -0.0808  -21.4855 C   0  0  0  0  0  0  0  0  0  0  0  0
    7.0767   -1.3797  -21.5882 C   0  0  0  0  0  0  0  0  0  0  0  0
    6.7184   -2.2569  -22.6390 N   0  0  0  0  0  0  0  0  0  0  0  0
    5.8431   -1.7968  -23.7103 C   0  0  0  0  0  0  0  0  0  0  0  0
    7.1719   -3.6428  -22.6298 C   0  0  0  0  0  0  0  0  0  0  0  0
    8.0240   -1.7699  -20.6107 C   0  0  0  0  0  0  0  0  0  0  0  0
    8.4014   -0.8979  -19.5711 C   0  0  0  0  0  0  0  0  0  0  0  0
    8.2533    1.0008  -17.0888 N   0  0  0  0  0  0  0  0  0  0  0  0
    7.9314   -0.2271  -16.3919 C   0  0  0  0  0  0  0  0  0  0  0  0
    8.1861    7.2057  -11.8956 C   0  0  0  0  0  0  0  0  0  0  0  0
    8.8893    8.3530  -11.1282 C   0  0  0  0  0  0  0  0  0  0  0  0
    9.2398    7.0156   -8.9665 C   0  0  0  0  0  0  0  0  0  0  0  0
   10.1955    6.5489   -7.8544 C   0  0  0  0  0  0  0  0  0  0  0  0
   11.6861   11.8934   -7.1455 H   0  0  0  0  0  0  0  0  0  0  0  0
   11.6860   11.9447   -5.4470 H   0  0  0  0  0  0  0  0  0  0  0  0
   12.8698   10.9150   -6.2471 H   0  0  0  0  0  0  0  0  0  0  0  0
   11.5266   10.3713   -3.6488 H   0  0  0  0  0  0  0  0  0  0  0  0
   11.9768    8.4241   -2.1890 H   0  0  0  0  0  0  0  0  0  0  0  0
   11.8569    6.1190   -3.1210 H   0  0  0  0  0  0  0  0  0  0  0  0
   11.3676    5.7725   -5.5162 H   0  0  0  0  0  0  0  0  0  0  0  0
   12.2362    9.2982   -7.9253 H   0  0  0  0  0  0  0  0  0  0  0  0
   12.4695    7.8408   -8.7936 H   0  0  0  0  0  0  0  0  0  0  0  0
   10.0063    9.6558   -9.0023 H   0  0  0  0  0  0  0  0  0  0  0  0
   11.2750    9.5420  -10.2024 H   0  0  0  0  0  0  0  0  0  0  0  0
   11.4263    7.6052  -11.6708 H   0  0  0  0  0  0  0  0  0  0  0  0
   11.6705    6.5724  -10.3034 H   0  0  0  0  0  0  0  0  0  0  0  0
   10.8862    5.2862  -12.3364 H   0  0  0  0  0  0  0  0  0  0  0  0
    9.7358    5.1201  -11.0403 H   0  0  0  0  0  0  0  0  0  0  0  0
    8.3384    4.4485  -12.9085 H   0  0  0  0  0  0  0  0  0  0  0  0
    7.6056    5.7005  -13.8470 H   0  0  0  0  0  0  0  0  0  0  0  0
    8.8851    5.1202  -15.6325 H   0  0  0  0  0  0  0  0  0  0  0  0
   10.2497    5.7726  -14.8114 H   0  0  0  0  0  0  0  0  0  0  0  0
   10.8543    3.5365  -15.4858 H   0  0  0  0  0  0  0  0  0  0  0  0
   10.6830    3.5121  -13.7542 H   0  0  0  0  0  0  0  0  0  0  0  0
    6.4368    1.7729  -20.3911 H   0  0  0  0  0  0  0  0  0  0  0  0
    5.7864    0.2724  -22.2016 H   0  0  0  0  0  0  0  0  0  0  0  0
    4.8734   -1.5064  -23.3071 H   0  0  0  0  0  0  0  0  0  0  0  0
    6.2806   -0.9386  -24.2248 H   0  0  0  0  0  0  0  0  0  0  0  0
    5.6713   -2.5765  -24.4520 H   0  0  0  0  0  0  0  0  0  0  0  0
    8.2537   -3.6936  -22.7561 H   0  0  0  0  0  0  0  0  0  0  0  0
    6.9056   -4.1309  -21.6920 H   0  0  0  0  0  0  0  0  0  0  0  0
    6.7171   -4.2159  -23.4377 H   0  0  0  0  0  0  0  0  0  0  0  0
    8.4865   -2.7437  -20.6440 H   0  0  0  0  0  0  0  0  0  0  0  0
    9.1359   -1.2204  -18.8474 H   0  0  0  0  0  0  0  0  0  0  0  0
    7.4469   -0.9477  -17.0524 H   0  0  0  0  0  0  0  0  0  0  0  0
    8.8661   -0.6328  -15.9948 H   0  0  0  0  0  0  0  0  0  0  0  0
    7.2537   -0.0163  -15.5601 H   0  0  0  0  0  0  0  0  0  0  0  0
    7.4350    7.6192  -12.5701 H   0  0  0  0  0  0  0  0  0  0  0  0
    7.6855    6.5225  -11.2177 H   0  0  0  0  0  0  0  0  0  0  0  0
    8.1601    8.9918  -10.6289 H   0  0  0  0  0  0  0  0  0  0  0  0
    9.3801    8.9995  -11.8551 H   0  0  0  0  0  0  0  0  0  0  0  0
    8.4861    7.6560   -8.5057 H   0  0  0  0  0  0  0  0  0  0  0  0
    8.6909    6.1489   -9.3286 H   0  0  0  0  0  0  0  0  0  0  0  0
   10.8786    5.7834   -8.2227 H   0  0  0  0  0  0  0  0  0  0  0  0
    9.6111    6.1024   -7.0508 H   0  0  0  0  0  0  0  0  0  0  0  0
    9.6375    7.0275  -13.2538 H   0  0  0  0  0  0  0  0  0  0  0  0
  2  1  1  0
  3  2  1  0
  4  3  2  0
  5  4  1  0
  6  5  2  0
  7  6  1  0
  8  3  1  0
  8  7  2  0
  9  8  1  0
 10  9  1  0
 11 10  1  0
 12 11  1  0
 13 12  1  0
 14 13  1  0
 15 14  1  0
 16 15  1  0
 17 16  1  0
 18 17  1  0
 19 18  1  0
 20 19  1  0
 21 20  2  0
 22 21  1  0
 23 22  2  0
 24 23  1  0
 25 24  1  0
 26 25  2  0
 27 26  1  0
 28 27  1  0
 29 28  1  0
 30 28  1  0
 31 27  2  0
 32 24  2  0
 32 31  1  0
 33 20  1  0
 33 23  1  0
 34 33  1  0
 35 15  1  0
 36 12  1  0
 36 35  1  0
 37 12  1  0
 38  9  1  0
 38 37  1  0
 39  1  1  0
 40  1  1  0
 41  1  1  0
 42  4  1  0
 43  5  1  0
 44  6  1  0
 45  7  1  0
 46 10  1  0
 47 10  1  0
 48 11  1  0
 49 11  1  0
 50 13  1  0
 51 13  1  0
 52 14  1  0
 53 14  1  0
 54 16  1  0
 55 16  1  0
 56 17  1  0
 57 17  1  0
 58 18  1  0
 59 18  1  0
 60 25  1  0
 61 26  1  0
 62 29  1  0
 63 29  1  0
 64 29  1  0
 65 30  1  0
 66 30  1  0
 67 30  1  0
 68 31  1  0
 69 32  1  0
 70 34  1  0
 71 34  1  0
 72 34  1  0
 73 35  1  0
 74 35  1  0
 75 36  1  0
 76 36  1  0
 77 37  1  0
 78 37  1  0
 79 38  1  0
 80 38  1  0
 81 15  1  0
M  CHG  1  15   1
M  END
>  <b_m_subgroup_collapsed>  (1249) 
0

>  <r_i_docking_score>  (1249) 
-6.3561868312149796

>  <s_m_subgroup_title>  (1249) 
glide-dock_SP_D22_pv

>  <s_m_subgroupid>  (1249) 
glide-dock_SP_D22_pv

>  <Molecule ChEMBL ID>  (1249) 
CHEMBL4541869

>  <Standard Type>  (1249) 
Ki

>  <Standard Value>  (1249) 
12137.0

>  <label>  (1249) 
0

$$$$
CHEMBL4541526
     RDKit          3D

 26 28  0  0  1  0  0  0  0  0999 V2000
   11.4642   10.4516   -6.2882 C   0  0  0  0  0  0  0  0  0  0  0  0
   11.6861    9.2757   -5.4780 N   0  0  0  0  0  0  0  0  0  0  0  0
   12.2368    9.2439   -4.2552 C   0  0  0  0  0  0  0  0  0  0  0  0
   12.2762    8.0426   -3.6950 N   0  0  0  0  0  0  0  0  0  0  0  0
   11.6858    7.2170   -4.6471 C   0  0  0  0  0  0  0  0  0  0  0  0
   11.3222    7.9609   -5.7503 C   0  0  0  0  0  0  0  0  0  0  0  0
   10.6009    7.5535   -6.9468 C   0  0  0  0  0  0  0  0  0  0  0  0
    9.3787    6.9507   -6.8572 C   0  0  0  0  0  0  0  0  0  0  0  0
    8.8852    6.7111   -8.1121 N   0  0  0  0  0  0  0  0  0  0  0  0
    9.7719    7.1067   -9.0732 C   0  0  0  0  0  0  0  0  0  0  0  0
    9.6864    7.0519  -10.4714 C   0  0  0  0  0  0  0  0  0  0  0  0
   10.7682    7.4935  -11.2400 C   0  0  0  0  0  0  0  0  0  0  0  0
   11.9121    8.0065  -10.6053 C   0  0  0  0  0  0  0  0  0  0  0  0
   13.5001    8.5723  -11.8468 I   0  0  0  0  0  0  0  0  0  0  0  0
   11.9709    8.1052   -9.1899 C   0  0  0  0  0  0  0  0  0  0  0  0
   10.8982    7.6421   -8.3738 C   0  0  0  0  0  0  0  0  0  0  0  0
   11.2863   10.1723   -7.3250 H   0  0  0  0  0  0  0  0  0  0  0  0
   10.5871   10.9724   -5.9104 H   0  0  0  0  0  0  0  0  0  0  0  0
   12.3322   11.1093   -6.2468 H   0  0  0  0  0  0  0  0  0  0  0  0
   12.6032   10.1234   -3.7474 H   0  0  0  0  0  0  0  0  0  0  0  0
   11.5494    6.1618   -4.4612 H   0  0  0  0  0  0  0  0  0  0  0  0
    8.7991    6.7041   -5.9818 H   0  0  0  0  0  0  0  0  0  0  0  0
    7.9202    6.4370   -8.2751 H   0  0  0  0  0  0  0  0  0  0  0  0
    8.7945    6.6626  -10.9429 H   0  0  0  0  0  0  0  0  0  0  0  0
   10.7253    7.4326  -12.3180 H   0  0  0  0  0  0  0  0  0  0  0  0
   12.8545    8.5162   -8.7245 H   0  0  0  0  0  0  0  0  0  0  0  0
  2  1  1  0
  3  2  1  0
  4  3  2  0
  5  4  1  0
  6  2  1  0
  6  5  2  0
  7  6  1  0
  8  7  2  0
  9  8  1  0
 10  9  1  0
 11 10  2  0
 12 11  1  0
 13 12  2  0
 14 13  1  0
 15 13  1  0
 16  7  1  0
 16 10  1  0
 16 15  2  0
 17  1  1  0
 18  1  1  0
 19  1  1  0
 20  3  1  0
 21  5  1  0
 22  8  1  0
 23  9  1  0
 24 11  1  0
 25 12  1  0
 26 15  1  0
M  END
>  <b_m_subgroup_collapsed>  (1250) 
0

>  <r_i_docking_score>  (1250) 
-6.3558720868707601

>  <s_m_subgroup_title>  (1250) 
glide-dock_SP_D22_pv

>  <s_m_subgroupid>  (1250) 
glide-dock_SP_D22_pv

>  <Molecule ChEMBL ID>  (1250) 
CHEMBL4541526

>  <Standard Type>  (1250) 
Ki

>  <Standard Value>  (1250) 
10000.0

>  <label>  (1250) 
0

$$$$
CHEMBL4573880
     RDKit          3D

 49 52  0  0  1  0  0  0  0  0999 V2000
    5.2858   -2.2293  -15.6704 C   0  0  0  0  0  0  0  0  0  0  0  0
    5.3073   -0.9407  -14.8589 C   0  0  0  0  0  0  0  0  0  0  0  0
    4.3005   -0.6283  -14.2186 O   0  0  0  0  0  0  0  0  0  0  0  0
    6.4527   -0.2224  -14.8709 N   0  0  0  0  0  0  0  0  0  0  0  0
    6.6283    1.0826  -14.3334 C   0  0  0  0  0  0  0  0  0  0  0  0
    5.6464    1.7318  -13.7305 N   0  0  0  0  0  0  0  0  0  0  0  0
    6.0617    3.0213  -13.4922 C   0  0  0  0  0  0  0  0  0  0  0  0
    5.0639    3.9911  -12.9548 C   0  0  0  0  0  0  0  0  0  0  0  0
    7.4077    3.0648  -13.8457 C   0  0  0  0  0  0  0  0  0  0  0  0
    8.4633    4.0865  -13.6009 C   0  0  0  0  0  0  0  0  0  0  0  0
    8.4906    5.1894  -12.7660 C   0  0  0  0  0  0  0  0  0  0  0  0
    7.3907    5.7269  -11.9089 C   0  0  0  0  0  0  0  0  0  0  0  0
    9.7619    5.7783  -12.7680 N   0  0  0  0  0  0  0  0  0  0  0  0
   10.2254    7.2022  -11.8391 S   0  0  0  0  0  0  0  0  0  0  0  0
    9.3033    8.2738  -12.2468 O   0  0  0  0  0  0  0  0  0  0  0  0
   11.6773    7.3721  -11.9935 O   0  0  0  0  0  0  0  0  0  0  0  0
    9.9281    6.8888  -10.1015 C   0  0  0  0  0  0  0  0  0  0  0  0
    9.8961    8.0095   -9.2467 C   0  0  0  0  0  0  0  0  0  0  0  0
    9.5792    7.8467   -7.8857 C   0  0  0  0  0  0  0  0  0  0  0  0
    9.2849    6.5632   -7.3891 C   0  0  0  0  0  0  0  0  0  0  0  0
    9.3239    5.4436   -8.2470 C   0  0  0  0  0  0  0  0  0  0  0  0
    9.6673    5.5978   -9.6029 C   0  0  0  0  0  0  0  0  0  0  0  0
   10.5650    5.1078  -13.6901 C   0  0  0  0  0  0  0  0  0  0  0  0
   11.8926    5.3119  -14.1353 C   0  0  0  0  0  0  0  0  0  0  0  0
   12.4506    4.4777  -15.1165 C   0  0  0  0  0  0  0  0  0  0  0  0
   11.6868    3.4294  -15.6515 C   0  0  0  0  0  0  0  0  0  0  0  0
   10.3691    3.2217  -15.2085 C   0  0  0  0  0  0  0  0  0  0  0  0
    9.7642    4.0502  -14.2270 C   0  0  0  0  0  0  0  0  0  0  0  0
    7.7302    1.8154  -14.4236 N   0  0  0  0  0  0  0  0  0  0  0  0
    5.8798   -2.1333  -16.5795 H   0  0  0  0  0  0  0  0  0  0  0  0
    5.6810   -3.0533  -15.0786 H   0  0  0  0  0  0  0  0  0  0  0  0
    4.2654   -2.4834  -15.9604 H   0  0  0  0  0  0  0  0  0  0  0  0
    7.2394   -0.6133  -15.3698 H   0  0  0  0  0  0  0  0  0  0  0  0
    5.0823    4.9246  -13.5145 H   0  0  0  0  0  0  0  0  0  0  0  0
    4.0535    3.5971  -13.0469 H   0  0  0  0  0  0  0  0  0  0  0  0
    5.2064    4.1773  -11.8934 H   0  0  0  0  0  0  0  0  0  0  0  0
    7.0489    4.9731  -11.2033 H   0  0  0  0  0  0  0  0  0  0  0  0
    7.6863    6.5724  -11.3101 H   0  0  0  0  0  0  0  0  0  0  0  0
    6.5684    6.1014  -12.5100 H   0  0  0  0  0  0  0  0  0  0  0  0
   10.0896    8.9959   -9.6411 H   0  0  0  0  0  0  0  0  0  0  0  0
    9.5336    8.7052   -7.2316 H   0  0  0  0  0  0  0  0  0  0  0  0
    9.0143    6.4373   -6.3505 H   0  0  0  0  0  0  0  0  0  0  0  0
    9.0803    4.4643   -7.8645 H   0  0  0  0  0  0  0  0  0  0  0  0
    9.6880    4.7358  -10.2522 H   0  0  0  0  0  0  0  0  0  0  0  0
   12.5073    6.1093  -13.7517 H   0  0  0  0  0  0  0  0  0  0  0  0
   13.4632    4.6405  -15.4572 H   0  0  0  0  0  0  0  0  0  0  0  0
   12.1138    2.7793  -16.4020 H   0  0  0  0  0  0  0  0  0  0  0  0
    9.8109    2.4109  -15.6479 H   0  0  0  0  0  0  0  0  0  0  0  0
    4.7160    1.3573  -13.5958 H   0  0  0  0  0  0  0  0  0  0  0  0
  2  1  1  0
  3  2  2  0
  4  2  1  0
  5  4  1  0
  6  5  1  0
  7  6  1  0
  8  7  1  0
  9  7  2  0
 10  9  1  0
 11 10  2  0
 12 11  1  0
 13 11  1  0
 14 13  1  0
 15 14  2  0
 16 14  2  0
 17 14  1  0
 18 17  2  0
 19 18  1  0
 20 19  2  0
 21 20  1  0
 22 17  1  0
 22 21  2  0
 23 13  1  0
 24 23  2  0
 25 24  1  0
 26 25  2  0
 27 26  1  0
 28 10  1  0
 28 23  1  0
 28 27  2  0
 29  5  2  0
 29  9  1  0
 30  1  1  0
 31  1  1  0
 32  1  1  0
 33  4  1  0
 34  8  1  0
 35  8  1  0
 36  8  1  0
 37 12  1  0
 38 12  1  0
 39 12  1  0
 40 18  1  0
 41 19  1  0
 42 20  1  0
 43 21  1  0
 44 22  1  0
 45 24  1  0
 46 25  1  0
 47 26  1  0
 48 27  1  0
 49  6  1  0
M  END
>  <b_m_subgroup_collapsed>  (1251) 
0

>  <r_i_docking_score>  (1251) 
-6.3527893889381701

>  <s_m_subgroup_title>  (1251) 
glide-dock_SP_D22_pv

>  <s_m_subgroupid>  (1251) 
glide-dock_SP_D22_pv

>  <Molecule ChEMBL ID>  (1251) 
CHEMBL4573880

>  <Standard Type>  (1251) 
Ki

>  <Standard Value>  (1251) 
10000.0

>  <label>  (1251) 
0

$$$$
CHEMBL5722958
     RDKit          3D

 46 48  0  0  1  0  0  0  0  0999 V2000
    9.3449    5.4337   -9.7430 C   0  0  0  0  0  0  0  0  0  0  0  0
    9.9490    6.6314  -10.3356 N   0  0  0  0  0  0  0  0  0  0  0  0
    9.7416    7.7777   -9.4497 C   0  0  0  0  0  0  0  0  0  0  0  0
   10.7454    7.7913   -8.2797 C   0  0  0  0  0  0  0  0  0  0  0  0
   10.3023    8.7503   -7.1647 C   0  0  0  0  0  0  0  0  0  0  0  0
   11.1522    8.7211   -5.9271 C   0  0  0  0  0  0  0  0  0  0  0  0
   11.9004    9.7274   -5.4598 N   0  0  0  0  0  0  0  0  0  0  0  0
   12.4867    9.3724   -4.2716 C   0  0  0  0  0  0  0  0  0  0  0  0
   12.0882    8.0934   -4.0066 C   0  0  0  0  0  0  0  0  0  0  0  0
   11.2848    7.7184   -5.0457 N   0  0  0  0  0  0  0  0  0  0  0  0
   10.6217    6.4339   -5.1773 C   0  0  0  0  0  0  0  0  0  0  0  0
    9.3326    6.9242  -11.6340 C   0  0  0  0  0  0  0  0  0  0  0  0
    9.4468    5.7716  -12.6197 C   0  0  0  0  0  0  0  0  0  0  0  0
   10.6026    5.4373  -13.2310 C   0  0  0  0  0  0  0  0  0  0  0  0
   10.6751    4.2732  -14.1379 C   0  0  0  0  0  0  0  0  0  0  0  0
   11.7305    3.9519  -14.6830 O   0  0  0  0  0  0  0  0  0  0  0  0
    9.4050    3.5115  -14.3285 C   0  0  0  0  0  0  0  0  0  0  0  0
    9.3725    2.3530  -15.1353 C   0  0  0  0  0  0  0  0  0  0  0  0
    8.1727    1.6331  -15.2906 C   0  0  0  0  0  0  0  0  0  0  0  0
    6.9990    2.0704  -14.6466 C   0  0  0  0  0  0  0  0  0  0  0  0
    7.0182    3.2298  -13.8466 C   0  0  0  0  0  0  0  0  0  0  0  0
    5.5736    3.7446  -13.0468 Cl  0  0  0  0  0  0  0  0  0  0  0  0
    8.2224    3.9459  -13.6778 C   0  0  0  0  0  0  0  0  0  0  0  0
    8.2709    5.0779  -12.8551 N   0  0  0  0  0  0  0  0  0  0  0  0
    9.5385    4.5508  -10.3519 H   0  0  0  0  0  0  0  0  0  0  0  0
    9.7445    5.2149   -8.7542 H   0  0  0  0  0  0  0  0  0  0  0  0
    8.2628    5.5457   -9.6485 H   0  0  0  0  0  0  0  0  0  0  0  0
    9.8620    8.7087  -10.0080 H   0  0  0  0  0  0  0  0  0  0  0  0
    8.7132    7.7732   -9.0824 H   0  0  0  0  0  0  0  0  0  0  0  0
   10.8551    6.7930   -7.8692 H   0  0  0  0  0  0  0  0  0  0  0  0
   11.7332    8.0691   -8.6464 H   0  0  0  0  0  0  0  0  0  0  0  0
   10.3040    9.7721   -7.5303 H   0  0  0  0  0  0  0  0  0  0  0  0
    9.2819    8.5300   -6.8485 H   0  0  0  0  0  0  0  0  0  0  0  0
   13.1312   10.0352   -3.7109 H   0  0  0  0  0  0  0  0  0  0  0  0
   12.3187    7.4355   -3.1804 H   0  0  0  0  0  0  0  0  0  0  0  0
   10.5827    5.9575   -4.1983 H   0  0  0  0  0  0  0  0  0  0  0  0
    9.6050    6.5726   -5.5500 H   0  0  0  0  0  0  0  0  0  0  0  0
   11.2010    5.8073   -5.8574 H   0  0  0  0  0  0  0  0  0  0  0  0
    9.8040    7.8021  -12.0779 H   0  0  0  0  0  0  0  0  0  0  0  0
    8.2789    7.1732  -11.4888 H   0  0  0  0  0  0  0  0  0  0  0  0
   11.5084    5.9953  -13.0446 H   0  0  0  0  0  0  0  0  0  0  0  0
   10.2669    2.0060  -15.6328 H   0  0  0  0  0  0  0  0  0  0  0  0
    8.1548    0.7402  -15.8993 H   0  0  0  0  0  0  0  0  0  0  0  0
    6.0862    1.5053  -14.7612 H   0  0  0  0  0  0  0  0  0  0  0  0
    7.4289    5.3488  -12.3606 H   0  0  0  0  0  0  0  0  0  0  0  0
   12.0152   10.6200   -5.9226 H   0  0  0  0  0  0  0  0  0  0  0  0
  2  1  1  0
  3  2  1  0
  4  3  1  0
  5  4  1  0
  6  5  1  0
  7  6  2  0
  8  7  1  0
  9  8  2  0
 10  6  1  0
 10  9  1  0
 11 10  1  0
 12  2  1  0
 13 12  1  0
 14 13  2  0
 15 14  1  0
 16 15  2  0
 17 15  1  0
 18 17  2  0
 19 18  1  0
 20 19  2  0
 21 20  1  0
 22 21  1  0
 23 17  1  0
 23 21  2  0
 24 13  1  0
 24 23  1  0
 25  1  1  0
 26  1  1  0
 27  1  1  0
 28  3  1  0
 29  3  1  0
 30  4  1  0
 31  4  1  0
 32  5  1  0
 33  5  1  0
 34  8  1  0
 35  9  1  0
 36 11  1  0
 37 11  1  0
 38 11  1  0
 39 12  1  0
 40 12  1  0
 41 14  1  0
 42 18  1  0
 43 19  1  0
 44 20  1  0
 45 24  1  0
 46  7  1  0
M  CHG  1   7   1
M  END
>  <b_m_subgroup_collapsed>  (1252) 
0

>  <r_i_docking_score>  (1252) 
-6.3523703470017203

>  <s_m_subgroup_title>  (1252) 
glide-dock_SP_D22_pv

>  <s_m_subgroupid>  (1252) 
glide-dock_SP_D22_pv

>  <Molecule ChEMBL ID>  (1252) 
CHEMBL5722958

>  <Standard Type>  (1252) 
Ki

>  <Standard Value>  (1252) 
10000.0

>  <label>  (1252) 
0

$$$$
CHEMBL4225278
     RDKit          3D

 53 54  0  0  1  0  0  0  0  0999 V2000
   10.0002    0.1696  -15.3428 C   0  0  0  0  0  0  0  0  0  0  0  0
    9.8848    1.6839  -15.5512 C   0  0  0  0  0  0  0  0  0  0  0  0
   11.0469    2.4495  -14.8986 C   0  0  0  0  0  0  0  0  0  0  0  0
   11.0048    3.9771  -15.0880 C   0  0  0  0  0  0  0  0  0  0  0  0
    9.7198    4.6763  -14.6085 C   0  0  0  0  0  0  0  0  0  0  0  0
    9.3621    4.4179  -13.1358 C   0  0  0  0  0  0  0  0  0  0  0  0
    8.1324    5.2274  -12.6897 C   0  0  0  0  0  0  0  0  0  0  0  0
    7.5526    4.8019  -11.3271 C   0  0  0  0  0  0  0  0  0  0  0  0
    8.4919    4.8949  -10.1075 C   0  0  0  0  0  0  0  0  0  0  0  0
    8.5738    6.2670   -9.5577 N   0  0  2  0  0  0  0  0  0  0  0  0
    9.4183    7.2064  -10.3361 C   0  0  0  0  0  0  0  0  0  0  0  0
   10.2244    8.0319   -9.3267 C   0  0  0  0  0  0  0  0  0  0  0  0
    9.5348    7.7821   -7.9854 C   0  0  2  0  0  0  0  0  0  0  0  0
   10.4157    8.0830   -6.7724 C   0  0  0  0  0  0  0  0  0  0  0  0
   11.0335    9.3481   -6.6794 C   0  0  0  0  0  0  0  0  0  0  0  0
   11.8608    9.6726   -5.5926 C   0  0  0  0  0  0  0  0  0  0  0  0
   12.0730    8.7381   -4.5666 C   0  0  0  0  0  0  0  0  0  0  0  0
   11.4691    7.4704   -4.6462 C   0  0  0  0  0  0  0  0  0  0  0  0
   11.6861    6.5723   -3.6440 O   0  0  0  0  0  0  0  0  0  0  0  0
   10.6412    7.1423   -5.7415 C   0  0  0  0  0  0  0  0  0  0  0  0
    9.0314    6.3430   -8.1535 C   0  0  0  0  0  0  0  0  0  0  0  0
    9.1505   -0.3494  -15.7861 H   0  0  0  0  0  0  0  0  0  0  0  0
   10.9059   -0.2250  -15.8016 H   0  0  0  0  0  0  0  0  0  0  0  0
   10.0251   -0.0810  -14.2818 H   0  0  0  0  0  0  0  0  0  0  0  0
    8.9353    2.0189  -15.1343 H   0  0  0  0  0  0  0  0  0  0  0  0
    9.8506    1.9043  -16.6186 H   0  0  0  0  0  0  0  0  0  0  0  0
   11.9826    2.0882  -15.3255 H   0  0  0  0  0  0  0  0  0  0  0  0
   11.0890    2.2104  -13.8361 H   0  0  0  0  0  0  0  0  0  0  0  0
   11.1497    4.2051  -16.1450 H   0  0  0  0  0  0  0  0  0  0  0  0
   11.8610    4.4153  -14.5731 H   0  0  0  0  0  0  0  0  0  0  0  0
    8.8861    4.3787  -15.2437 H   0  0  0  0  0  0  0  0  0  0  0  0
    9.8395    5.7487  -14.7633 H   0  0  0  0  0  0  0  0  0  0  0  0
   10.2192    4.6614  -12.5087 H   0  0  0  0  0  0  0  0  0  0  0  0
    9.1634    3.3555  -12.9912 H   0  0  0  0  0  0  0  0  0  0  0  0
    7.3448    5.0996  -13.4334 H   0  0  0  0  0  0  0  0  0  0  0  0
    8.3623    6.2919  -12.6980 H   0  0  0  0  0  0  0  0  0  0  0  0
    7.2103    3.7722  -11.4177 H   0  0  0  0  0  0  0  0  0  0  0  0
    6.6526    5.3826  -11.1205 H   0  0  0  0  0  0  0  0  0  0  0  0
    9.4847    4.4974  -10.3199 H   0  0  0  0  0  0  0  0  0  0  0  0
    8.0863    4.2528   -9.3242 H   0  0  0  0  0  0  0  0  0  0  0  0
    8.7749    7.8500  -10.9365 H   0  0  0  0  0  0  0  0  0  0  0  0
   10.0947    6.6880  -11.0169 H   0  0  0  0  0  0  0  0  0  0  0  0
   10.2765    9.0888   -9.5906 H   0  0  0  0  0  0  0  0  0  0  0  0
   11.2463    7.6499   -9.2916 H   0  0  0  0  0  0  0  0  0  0  0  0
    8.6615    8.4343   -7.9178 H   0  0  0  0  0  0  0  0  0  0  0  0
   10.8870   10.0846   -7.4487 H   0  0  0  0  0  0  0  0  0  0  0  0
   12.3401   10.6356   -5.5598 H   0  0  0  0  0  0  0  0  0  0  0  0
   12.7074    8.9883   -3.7286 H   0  0  0  0  0  0  0  0  0  0  0  0
   11.2591    5.7374   -3.7731 H   0  0  0  0  0  0  0  0  0  0  0  0
   10.1725    6.1724   -5.7705 H   0  0  0  0  0  0  0  0  0  0  0  0
    9.8512    5.6359   -8.0144 H   0  0  0  0  0  0  0  0  0  0  0  0
    8.2338    6.0904   -7.4530 H   0  0  0  0  0  0  0  0  0  0  0  0
    7.6379    6.6796   -9.5827 H   0  0  0  0  0  0  0  0  0  0  0  0
  2  1  1  0
  3  2  1  0
  4  3  1  0
  5  4  1  0
  6  5  1  0
  7  6  1  0
  8  7  1  0
  9  8  1  0
 10  9  1  0
 11 10  1  0
 12 11  1  0
 13 12  1  0
 14 13  1  0
 15 14  2  0
 16 15  1  0
 17 16  2  0
 18 17  1  0
 19 18  1  0
 20 14  1  0
 20 18  2  0
 21 10  1  0
 21 13  1  0
 22  1  1  0
 23  1  1  0
 24  1  1  0
 25  2  1  0
 26  2  1  0
 27  3  1  0
 28  3  1  0
 29  4  1  0
 30  4  1  0
 31  5  1  0
 32  5  1  0
 33  6  1  0
 34  6  1  0
 35  7  1  0
 36  7  1  0
 37  8  1  0
 38  8  1  0
 39  9  1  0
 40  9  1  0
 41 11  1  0
 42 11  1  0
 43 12  1  0
 44 12  1  0
 13 45  1  1
 46 15  1  0
 47 16  1  0
 48 17  1  0
 49 19  1  0
 50 20  1  0
 51 21  1  0
 52 21  1  0
 10 53  1  1
M  CHG  1  10   1
M  END
>  <b_m_subgroup_collapsed>  (1253) 
0

>  <r_i_docking_score>  (1253) 
-6.3518210271105398

>  <s_m_subgroup_title>  (1253) 
glide-dock_SP_D22_pv

>  <s_m_subgroupid>  (1253) 
glide-dock_SP_D22_pv

>  <Molecule ChEMBL ID>  (1253) 
CHEMBL4225278

>  <Standard Type>  (1253) 
Ki

>  <Standard Value>  (1253) 
42.0

>  <label>  (1253) 
1

$$$$
CHEMBL1744087
     RDKit          3D

 52 55  0  0  1  0  0  0  0  0999 V2000
   11.7392    8.6110   -8.6268 C   0  0  0  0  0  0  0  0  0  0  0  0
   10.8515    8.7488   -7.6315 C   0  0  0  0  0  0  0  0  0  0  0  0
   11.1721    9.4708   -6.3305 C   0  0  0  0  0  0  0  0  0  0  0  0
   11.6861    8.6178   -5.2522 N   0  0  0  0  0  0  0  0  0  0  0  0
   10.9895    7.3505   -5.0864 C   0  0  0  0  0  0  0  0  0  0  0  0
   11.4652    6.5724   -3.8476 C   0  0  0  0  0  0  0  0  0  0  0  0
   11.4716    7.3563   -2.6625 O   0  0  0  0  0  0  0  0  0  0  0  0
   12.2569    8.5207   -2.8079 C   0  0  0  0  0  0  0  0  0  0  0  0
   11.7480    9.3528   -3.9934 C   0  0  0  0  0  0  0  0  0  0  0  0
    9.4144    8.2833   -7.8466 C   0  0  0  0  0  0  0  0  0  0  0  0
    9.3024    7.2133   -8.7860 O   0  0  0  0  0  0  0  0  0  0  0  0
   10.1016    7.2810   -9.9069 C   0  0  0  0  0  0  0  0  0  0  0  0
   11.3428    7.9538   -9.8703 C   0  0  0  0  0  0  0  0  0  0  0  0
   12.1468    8.0067  -11.0235 C   0  0  0  0  0  0  0  0  0  0  0  0
   11.7221    7.3723  -12.2069 C   0  0  0  0  0  0  0  0  0  0  0  0
   10.4871    6.6963  -12.2447 C   0  0  0  0  0  0  0  0  0  0  0  0
    9.6723    6.6435  -11.0888 C   0  0  0  0  0  0  0  0  0  0  0  0
    8.4677    5.9871  -11.0267 O   0  0  0  0  0  0  0  0  0  0  0  0
    7.6847    5.8505  -12.2043 C   0  0  0  0  0  0  0  0  0  0  0  0
    7.7388    4.3899  -12.6696 C   0  0  1  0  0  0  0  0  0  0  0  0
    6.4514    3.9357  -13.3882 C   0  0  0  0  0  0  0  0  0  0  0  0
    6.5822    2.5367  -13.8471 N   0  0  0  0  0  0  0  0  0  0  0  0
    7.8020    2.3265  -14.6574 C   0  0  0  0  0  0  0  0  0  0  0  0
    9.0475    2.8697  -13.9320 C   0  0  0  0  0  0  0  0  0  0  0  0
    8.8287    4.2274  -13.5725 O   0  0  0  0  0  0  0  0  0  0  0  0
   12.7543    8.9704   -8.5304 H   0  0  0  0  0  0  0  0  0  0  0  0
   11.8998   10.2563   -6.5386 H   0  0  0  0  0  0  0  0  0  0  0  0
   10.2650    9.9781   -6.0030 H   0  0  0  0  0  0  0  0  0  0  0  0
    9.9176    7.5174   -5.0470 H   0  0  0  0  0  0  0  0  0  0  0  0
   11.1497    6.7215   -5.9630 H   0  0  0  0  0  0  0  0  0  0  0  0
   10.7658    5.7723   -3.6806 H   0  0  0  0  0  0  0  0  0  0  0  0
   12.4539    6.1433   -4.0046 H   0  0  0  0  0  0  0  0  0  0  0  0
   12.2221    9.1023   -1.8860 H   0  0  0  0  0  0  0  0  0  0  0  0
   13.2860    8.2200   -2.9634 H   0  0  0  0  0  0  0  0  0  0  0  0
   12.4412   10.1723   -4.1187 H   0  0  0  0  0  0  0  0  0  0  0  0
   10.7714    9.7733   -3.7501 H   0  0  0  0  0  0  0  0  0  0  0  0
    8.9634    7.9534   -6.9134 H   0  0  0  0  0  0  0  0  0  0  0  0
    8.8176    9.1288   -8.1912 H   0  0  0  0  0  0  0  0  0  0  0  0
   13.0897    8.5348  -11.0038 H   0  0  0  0  0  0  0  0  0  0  0  0
   12.3467    7.4041  -13.0877 H   0  0  0  0  0  0  0  0  0  0  0  0
   10.1952    6.2075  -13.1597 H   0  0  0  0  0  0  0  0  0  0  0  0
    6.6653    6.0946  -11.9034 H   0  0  0  0  0  0  0  0  0  0  0  0
    7.9344    6.5559  -12.9979 H   0  0  0  0  0  0  0  0  0  0  0  0
    7.8898    3.7724  -11.7850 H   0  0  0  0  0  0  0  0  0  0  0  0
    5.5916    4.0148  -12.7214 H   0  0  0  0  0  0  0  0  0  0  0  0
    6.2474    4.5723  -14.2470 H   0  0  0  0  0  0  0  0  0  0  0  0
    5.7687    2.2820  -14.3900 H   0  0  0  0  0  0  0  0  0  0  0  0
    7.6872    2.8334  -15.6149 H   0  0  0  0  0  0  0  0  0  0  0  0
    7.9178    1.2635  -14.8727 H   0  0  0  0  0  0  0  0  0  0  0  0
    9.9169    2.8141  -14.5878 H   0  0  0  0  0  0  0  0  0  0  0  0
    9.2878    2.2827  -13.0468 H   0  0  0  0  0  0  0  0  0  0  0  0
    6.6281    1.9365  -13.0357 H   0  0  0  0  0  0  0  0  0  0  0  0
  2  1  2  0
  3  2  1  0
  4  3  1  0
  5  4  1  0
  6  5  1  0
  7  6  1  0
  8  7  1  0
  9  4  1  0
  9  8  1  0
 10  2  1  0
 11 10  1  0
 12 11  1  0
 13  1  1  0
 13 12  1  0
 14 13  2  0
 15 14  1  0
 16 15  2  0
 17 12  2  0
 17 16  1  0
 18 17  1  0
 19 18  1  0
 20 19  1  0
 21 20  1  0
 22 21  1  0
 23 22  1  0
 24 23  1  0
 25 20  1  0
 25 24  1  0
 26  1  1  0
 27  3  1  0
 28  3  1  0
 29  5  1  0
 30  5  1  0
 31  6  1  0
 32  6  1  0
 33  8  1  0
 34  8  1  0
 35  9  1  0
 36  9  1  0
 37 10  1  0
 38 10  1  0
 39 14  1  0
 40 15  1  0
 41 16  1  0
 42 19  1  0
 43 19  1  0
 20 44  1  1
 45 21  1  0
 46 21  1  0
 47 22  1  0
 48 23  1  0
 49 23  1  0
 50 24  1  0
 51 24  1  0
 52 22  1  0
M  CHG  1  22   1
M  END
>  <b_m_subgroup_collapsed>  (1254) 
0

>  <r_i_docking_score>  (1254) 
-6.3477259844615803

>  <s_m_subgroup_title>  (1254) 
glide-dock_SP_D22_pv

>  <s_m_subgroupid>  (1254) 
glide-dock_SP_D22_pv

>  <Molecule ChEMBL ID>  (1254) 
CHEMBL1744087

>  <Standard Type>  (1254) 
Ki

>  <Standard Value>  (1254) 
10000.0

>  <label>  (1254) 
0

$$$$
CHEMBL497550
     RDKit          3D

 52 53  0  0  1  0  0  0  0  0999 V2000
    9.1501    5.9997   -7.6510 C   0  0  0  0  0  0  0  0  0  0  0  0
    8.9933    7.3126   -8.4379 C   0  0  0  0  0  0  0  0  0  0  0  0
   10.2454    7.9484   -8.8906 N   0  0  0  0  0  0  0  0  0  0  0  0
   10.8113    7.2385  -10.0374 C   0  0  0  0  0  0  0  0  0  0  0  0
   10.0299    7.5048  -11.3378 C   0  0  0  0  0  0  0  0  0  0  0  0
   10.4887    6.5714  -12.4363 C   0  0  0  0  0  0  0  0  0  0  0  0
   11.6676    6.8374  -13.1629 C   0  0  0  0  0  0  0  0  0  0  0  0
   12.0876    5.9406  -14.1647 C   0  0  0  0  0  0  0  0  0  0  0  0
   11.3449    4.7722  -14.4295 C   0  0  0  0  0  0  0  0  0  0  0  0
   10.1648    4.4882  -13.6965 C   0  0  0  0  0  0  0  0  0  0  0  0
    9.3811    3.3651  -13.8706 O   0  0  0  0  0  0  0  0  0  0  0  0
    9.6719    2.4436  -14.8257 C   0  0  0  0  0  0  0  0  0  0  0  0
    8.7534    1.4490  -14.7854 F   0  0  0  0  0  0  0  0  0  0  0  0
    9.6200    2.9762  -16.0721 F   0  0  0  0  0  0  0  0  0  0  0  0
   10.8841    1.8686  -14.6298 F   0  0  0  0  0  0  0  0  0  0  0  0
    9.7488    5.4015  -12.7053 C   0  0  0  0  0  0  0  0  0  0  0  0
   11.2613    8.0729   -7.8451 C   0  0  0  0  0  0  0  0  0  0  0  0
   10.7732    8.9124   -6.6451 C   0  0  0  0  0  0  0  0  0  0  0  0
   11.6421    8.7795   -5.4506 N   0  0  0  0  0  0  0  0  0  0  0  0
   11.3326    9.8437   -4.4608 C   0  0  0  0  0  0  0  0  0  0  0  0
   12.2587    9.7645   -3.2428 C   0  0  0  0  0  0  0  0  0  0  0  0
   12.1489    8.3977   -2.5653 C   0  0  0  0  0  0  0  0  0  0  0  0
   12.4710    7.3017   -3.5793 C   0  0  0  0  0  0  0  0  0  0  0  0
   11.5998    7.4136   -4.8478 C   0  0  0  0  0  0  0  0  0  0  0  0
    8.1639    5.5816   -7.4459 H   0  0  0  0  0  0  0  0  0  0  0  0
    9.7081    5.2463   -8.2068 H   0  0  0  0  0  0  0  0  0  0  0  0
    9.6390    6.1525   -6.6910 H   0  0  0  0  0  0  0  0  0  0  0  0
    8.4261    8.0252   -7.8382 H   0  0  0  0  0  0  0  0  0  0  0  0
    8.3544    7.1019   -9.2865 H   0  0  0  0  0  0  0  0  0  0  0  0
   10.8679    6.1716   -9.8275 H   0  0  0  0  0  0  0  0  0  0  0  0
   11.8393    7.5625  -10.2040 H   0  0  0  0  0  0  0  0  0  0  0  0
   10.1636    8.5412  -11.6547 H   0  0  0  0  0  0  0  0  0  0  0  0
    8.9560    7.3753  -11.2233 H   0  0  0  0  0  0  0  0  0  0  0  0
   12.2513    7.7230  -12.9576 H   0  0  0  0  0  0  0  0  0  0  0  0
   12.9891    6.1458  -14.7243 H   0  0  0  0  0  0  0  0  0  0  0  0
   11.7058    4.1083  -15.1997 H   0  0  0  0  0  0  0  0  0  0  0  0
    8.8538    5.1913  -12.1380 H   0  0  0  0  0  0  0  0  0  0  0  0
   11.5676    7.0710   -7.5553 H   0  0  0  0  0  0  0  0  0  0  0  0
   12.1497    8.5509   -8.2598 H   0  0  0  0  0  0  0  0  0  0  0  0
   10.7318    9.9559   -6.9578 H   0  0  0  0  0  0  0  0  0  0  0  0
    9.7630    8.6512   -6.3302 H   0  0  0  0  0  0  0  0  0  0  0  0
   11.4220   10.8180   -4.9431 H   0  0  0  0  0  0  0  0  0  0  0  0
   10.3001    9.7724   -4.1332 H   0  0  0  0  0  0  0  0  0  0  0  0
   13.2863    9.9334   -3.5556 H   0  0  0  0  0  0  0  0  0  0  0  0
   12.0197   10.5587   -2.5386 H   0  0  0  0  0  0  0  0  0  0  0  0
   12.8272    8.3412   -1.7119 H   0  0  0  0  0  0  0  0  0  0  0  0
   11.1449    8.2438   -2.1776 H   0  0  0  0  0  0  0  0  0  0  0  0
   13.5231    7.3731   -3.8465 H   0  0  0  0  0  0  0  0  0  0  0  0
   12.3357    6.3187   -3.1235 H   0  0  0  0  0  0  0  0  0  0  0  0
   10.5649    7.1417   -4.6452 H   0  0  0  0  0  0  0  0  0  0  0  0
   11.9601    6.6659   -5.5513 H   0  0  0  0  0  0  0  0  0  0  0  0
   12.5917    8.9488   -5.7528 H   0  0  0  0  0  0  0  0  0  0  0  0
  2  1  1  0
  3  2  1  0
  4  3  1  0
  5  4  1  0
  6  5  1  0
  7  6  2  0
  8  7  1  0
  9  8  2  0
 10  9  1  0
 11 10  1  0
 12 11  1  0
 13 12  1  0
 14 12  1  0
 15 12  1  0
 16  6  1  0
 16 10  2  0
 17  3  1  0
 18 17  1  0
 19 18  1  0
 20 19  1  0
 21 20  1  0
 22 21  1  0
 23 22  1  0
 24 19  1  0
 24 23  1  0
 25  1  1  0
 26  1  1  0
 27  1  1  0
 28  2  1  0
 29  2  1  0
 30  4  1  0
 31  4  1  0
 32  5  1  0
 33  5  1  0
 34  7  1  0
 35  8  1  0
 36  9  1  0
 37 16  1  0
 38 17  1  0
 39 17  1  0
 40 18  1  0
 41 18  1  0
 42 20  1  0
 43 20  1  0
 44 21  1  0
 45 21  1  0
 46 22  1  0
 47 22  1  0
 48 23  1  0
 49 23  1  0
 50 24  1  0
 51 24  1  0
 52 19  1  0
M  CHG  1  19   1
M  END
>  <b_m_subgroup_collapsed>  (1255) 
0

>  <r_i_docking_score>  (1255) 
-6.34348300995459

>  <s_m_subgroup_title>  (1255) 
glide-dock_SP_D22_pv

>  <s_m_subgroupid>  (1255) 
glide-dock_SP_D22_pv

>  <Molecule ChEMBL ID>  (1255) 
CHEMBL497550

>  <Standard Type>  (1255) 
Ki

>  <Standard Value>  (1255) 
10000.0

>  <label>  (1255) 
0

$$$$
CHEMBL555362
     RDKit          3D

 47 50  0  0  1  0  0  0  0  0999 V2000
   11.3168    9.2127   -4.6682 C   0  0  0  0  0  0  0  0  0  0  0  0
   10.6814    9.2988   -5.8477 C   0  0  0  0  0  0  0  0  0  0  0  0
    9.8420    8.1814   -6.4483 C   0  0  0  0  0  0  0  0  0  0  0  0
   10.3236    7.7291   -7.7569 N   0  0  0  0  0  0  0  0  0  0  0  0
    9.5431    6.5516   -8.1552 C   0  0  0  0  0  0  0  0  0  0  0  0
    9.7493    6.1395   -9.6042 C   0  0  0  0  0  0  0  0  0  0  0  0
   10.3563    6.9082  -10.5332 C   0  0  0  0  0  0  0  0  0  0  0  0
   10.4876    6.4710  -11.9328 C   0  0  0  0  0  0  0  0  0  0  0  0
   11.5473    6.9428  -12.6425 C   0  0  0  0  0  0  0  0  0  0  0  0
   11.9555    6.6817  -14.0365 C   0  0  0  0  0  0  0  0  0  0  0  0
   12.5752    7.7280  -14.7538 C   0  0  0  0  0  0  0  0  0  0  0  0
   12.9477    7.5590  -16.1018 C   0  0  0  0  0  0  0  0  0  0  0  0
   12.7081    6.3323  -16.7459 C   0  0  0  0  0  0  0  0  0  0  0  0
   12.1059    5.2757  -16.0399 C   0  0  0  0  0  0  0  0  0  0  0  0
   11.7327    5.4489  -14.6897 C   0  0  0  0  0  0  0  0  0  0  0  0
   11.1456    4.2934  -13.9199 C   0  0  0  0  0  0  0  0  0  0  0  0
    9.7249    4.5725  -13.4809 C   0  0  0  0  0  0  0  0  0  0  0  0
    8.6908    3.7541  -13.9882 C   0  0  0  0  0  0  0  0  0  0  0  0
    7.3603    3.9447  -13.5772 C   0  0  0  0  0  0  0  0  0  0  0  0
    7.0559    4.9674  -12.6648 C   0  0  0  0  0  0  0  0  0  0  0  0
    8.0836    5.7838  -12.1607 C   0  0  0  0  0  0  0  0  0  0  0  0
    9.4366    5.5999  -12.5421 C   0  0  0  0  0  0  0  0  0  0  0  0
   10.8803    8.2661  -10.0895 C   0  0  0  0  0  0  0  0  0  0  0  0
   10.2316    8.7648   -8.7861 C   0  0  0  0  0  0  0  0  0  0  0  0
   11.2796    8.3134   -4.0680 H   0  0  0  0  0  0  0  0  0  0  0  0
   11.8928   10.0450   -4.2896 H   0  0  0  0  0  0  0  0  0  0  0  0
   10.7577   10.2152   -6.4143 H   0  0  0  0  0  0  0  0  0  0  0  0
    9.8373    7.3394   -5.7539 H   0  0  0  0  0  0  0  0  0  0  0  0
    8.8091    8.5269   -6.5285 H   0  0  0  0  0  0  0  0  0  0  0  0
    9.7967    5.7135   -7.5064 H   0  0  0  0  0  0  0  0  0  0  0  0
    8.4783    6.7428   -8.0237 H   0  0  0  0  0  0  0  0  0  0  0  0
    9.3508    5.1706   -9.8690 H   0  0  0  0  0  0  0  0  0  0  0  0
   12.2568    7.5728  -12.1288 H   0  0  0  0  0  0  0  0  0  0  0  0
   12.7613    8.6755  -14.2724 H   0  0  0  0  0  0  0  0  0  0  0  0
   13.4132    8.3718  -16.6390 H   0  0  0  0  0  0  0  0  0  0  0  0
   12.9956    6.1991  -17.7793 H   0  0  0  0  0  0  0  0  0  0  0  0
   11.9367    4.3305  -16.5352 H   0  0  0  0  0  0  0  0  0  0  0  0
   11.1964    3.3756  -14.5104 H   0  0  0  0  0  0  0  0  0  0  0  0
   11.7729    4.1331  -13.0472 H   0  0  0  0  0  0  0  0  0  0  0  0
    8.9189    2.9663  -14.6911 H   0  0  0  0  0  0  0  0  0  0  0  0
    6.5761    3.3094  -13.9658 H   0  0  0  0  0  0  0  0  0  0  0  0
    6.0360    5.1285  -12.3453 H   0  0  0  0  0  0  0  0  0  0  0  0
    7.8107    6.5694  -11.4700 H   0  0  0  0  0  0  0  0  0  0  0  0
   11.9606    8.2022   -9.9567 H   0  0  0  0  0  0  0  0  0  0  0  0
   10.6948    8.9790  -10.8881 H   0  0  0  0  0  0  0  0  0  0  0  0
    9.1842    9.0297   -8.9545 H   0  0  0  0  0  0  0  0  0  0  0  0
   10.7527    9.6662   -8.4731 H   0  0  0  0  0  0  0  0  0  0  0  0
  2  1  2  0
  3  2  1  0
  4  3  1  0
  5  4  1  0
  6  5  1  0
  7  6  2  0
  8  7  1  0
  9  8  2  0
 10  9  1  0
 11 10  2  0
 12 11  1  0
 13 12  2  0
 14 13  1  0
 15 10  1  0
 15 14  2  0
 16 15  1  0
 17 16  1  0
 18 17  2  0
 19 18  1  0
 20 19  2  0
 21 20  1  0
 22  8  1  0
 22 17  1  0
 22 21  2  0
 23  7  1  0
 24  4  1  0
 24 23  1  0
 25  1  1  0
 26  1  1  0
 27  2  1  0
 28  3  1  0
 29  3  1  0
 30  5  1  0
 31  5  1  0
 32  6  1  0
 33  9  1  0
 34 11  1  0
 35 12  1  0
 36 13  1  0
 37 14  1  0
 38 16  1  0
 39 16  1  0
 40 18  1  0
 41 19  1  0
 42 20  1  0
 43 21  1  0
 44 23  1  0
 45 23  1  0
 46 24  1  0
 47 24  1  0
M  END
>  <b_m_subgroup_collapsed>  (1256) 
0

>  <r_i_docking_score>  (1256) 
-6.34221890281058

>  <s_m_subgroup_title>  (1256) 
glide-dock_SP_D22_pv

>  <s_m_subgroupid>  (1256) 
glide-dock_SP_D22_pv

>  <Molecule ChEMBL ID>  (1256) 
CHEMBL555362

>  <Standard Type>  (1256) 
Ki

>  <Standard Value>  (1256) 
83.0

>  <label>  (1256) 
1

$$$$
CHEMBL10270
     RDKit          3D

 40 42  0  0  1  0  0  0  0  0999 V2000
   10.2184    7.2579   -6.0781 C   0  0  0  0  0  0  0  0  0  0  0  0
    9.1703    7.0587   -6.8920 C   0  0  0  0  0  0  0  0  0  0  0  0
    9.2310    6.2420   -8.1670 C   0  0  0  0  0  0  0  0  0  0  0  0
    8.8860    7.0623   -9.3566 N   0  0  1  0  0  0  0  0  0  0  0  0
    9.7354    8.2669   -9.5826 C   0  0  0  0  0  0  0  0  0  0  0  0
   10.3023    8.1531  -11.0132 C   0  0  0  0  0  0  0  0  0  0  0  0
   10.1925    6.6498  -11.2588 C   0  0  2  0  0  0  0  0  0  0  0  0
   10.3890    6.0334  -12.6469 C   0  0  0  0  0  0  0  0  0  0  0  0
    9.5324    4.9791  -13.0640 C   0  0  0  0  0  0  0  0  0  0  0  0
    9.7157    4.3699  -14.3200 C   0  0  0  0  0  0  0  0  0  0  0  0
   10.7692    4.7745  -15.1535 C   0  0  0  0  0  0  0  0  0  0  0  0
   11.6514    5.7804  -14.7265 C   0  0  0  0  0  0  0  0  0  0  0  0
   11.4759    6.4120  -13.4682 C   0  0  0  0  0  0  0  0  0  0  0  0
   12.3326    7.3723  -12.9903 O   0  0  0  0  0  0  0  0  0  0  0  0
   13.1357    8.0528  -13.9361 C   0  0  0  0  0  0  0  0  0  0  0  0
    8.4211    4.4519  -12.1668 C   0  0  0  0  0  0  0  0  0  0  0  0
    8.5749    4.8538  -10.6913 C   0  0  0  0  0  0  0  0  0  0  0  0
    8.8492    6.3563  -10.6552 C   0  0  1  0  0  0  0  0  0  0  0  0
   11.1872    6.8306   -6.2931 H   0  0  0  0  0  0  0  0  0  0  0  0
   10.1228    7.8516   -5.1827 H   0  0  0  0  0  0  0  0  0  0  0  0
    8.2112    7.4964   -6.6469 H   0  0  0  0  0  0  0  0  0  0  0  0
   10.2217    5.8001   -8.2849 H   0  0  0  0  0  0  0  0  0  0  0  0
    8.5187    5.4235   -8.0596 H   0  0  0  0  0  0  0  0  0  0  0  0
    9.1485    9.1777   -9.4565 H   0  0  0  0  0  0  0  0  0  0  0  0
   10.5592    8.3050   -8.8686 H   0  0  0  0  0  0  0  0  0  0  0  0
    9.6825    8.7037  -11.7226 H   0  0  0  0  0  0  0  0  0  0  0  0
   11.3206    8.5379  -11.0654 H   0  0  0  0  0  0  0  0  0  0  0  0
   10.8860    6.1723  -10.5886 H   0  0  0  0  0  0  0  0  0  0  0  0
    9.0582    3.5747  -14.6404 H   0  0  0  0  0  0  0  0  0  0  0  0
   10.9145    4.2986  -16.1121 H   0  0  0  0  0  0  0  0  0  0  0  0
   12.4647    6.0400  -15.3858 H   0  0  0  0  0  0  0  0  0  0  0  0
   13.6860    8.8470  -13.4325 H   0  0  0  0  0  0  0  0  0  0  0  0
   13.8515    7.3723  -14.3946 H   0  0  0  0  0  0  0  0  0  0  0  0
   12.5278    8.5124  -14.7168 H   0  0  0  0  0  0  0  0  0  0  0  0
    7.4690    4.8181  -12.5536 H   0  0  0  0  0  0  0  0  0  0  0  0
    8.4019    3.3723  -12.2620 H   0  0  0  0  0  0  0  0  0  0  0  0
    7.6860    4.5877  -10.1314 H   0  0  0  0  0  0  0  0  0  0  0  0
    9.4041    4.3039  -10.2431 H   0  0  0  0  0  0  0  0  0  0  0  0
    8.0860    6.8513  -11.2589 H   0  0  0  0  0  0  0  0  0  0  0  0
    7.9212    7.3723   -9.2357 H   0  0  0  0  0  0  0  0  0  0  0  0
  2  1  2  0
  3  2  1  0
  4  3  1  0
  5  4  1  0
  6  5  1  0
  7  6  1  0
  8  7  1  0
  9  8  1  0
 10  9  2  0
 11 10  1  0
 12 11  2  0
 13  8  2  0
 13 12  1  0
 14 13  1  0
 15 14  1  0
 16  9  1  0
 17 16  1  0
 18  4  1  0
 18  7  1  0
 18 17  1  0
 19  1  1  0
 20  1  1  0
 21  2  1  0
 22  3  1  0
 23  3  1  0
 24  5  1  0
 25  5  1  0
 26  6  1  0
 27  6  1  0
  7 28  1  1
 29 10  1  0
 30 11  1  0
 31 12  1  0
 32 15  1  0
 33 15  1  0
 34 15  1  0
 35 16  1  0
 36 16  1  0
 37 17  1  0
 38 17  1  0
 18 39  1  6
  4 40  1  1
M  CHG  1   4   1
M  END
>  <b_m_subgroup_collapsed>  (1257) 
0

>  <r_i_docking_score>  (1257) 
-6.3418661868815001

>  <s_m_subgroup_title>  (1257) 
glide-dock_SP_D22_pv

>  <s_m_subgroupid>  (1257) 
glide-dock_SP_D22_pv

>  <Molecule ChEMBL ID>  (1257) 
CHEMBL10270

>  <Standard Type>  (1257) 
Ki

>  <Standard Value>  (1257) 
6.7

>  <label>  (1257) 
1

$$$$
CHEMBL201575
     RDKit          3D

 33 33  0  0  1  0  0  0  0  0999 V2000
    8.7883    4.5397   -8.8729 C   0  0  0  0  0  0  0  0  0  0  0  0
    8.4557    5.7728   -8.0268 C   0  0  0  0  0  0  0  0  0  0  0  0
    9.6511    6.1891   -7.3996 O   0  0  0  0  0  0  0  0  0  0  0  0
    9.7518    7.4108   -6.8560 C   0  0  0  0  0  0  0  0  0  0  0  0
    8.8369    8.2015   -6.6469 O   0  0  0  0  0  0  0  0  0  0  0  0
   11.2123    7.7937   -6.6218 C   0  0  1  0  0  0  0  0  0  0  0  0
   11.7492    8.8596   -7.6311 C   0  0  0  0  0  0  0  0  0  0  0  0
   11.0474    8.9676   -9.0100 C   0  0  0  0  0  0  0  0  0  0  0  0
   10.9593    7.6627   -9.8233 C   0  0  0  0  0  0  0  0  0  0  0  0
   12.0861    7.7723  -11.4468 Br  0  0  0  0  0  0  0  0  0  0  0  0
   11.4825    8.0681   -5.1395 C   0  0  0  0  0  0  0  0  0  0  0  0
   11.7559    6.9727   -4.2890 C   0  0  0  0  0  0  0  0  0  0  0  0
   12.0719    7.1728   -2.9318 C   0  0  0  0  0  0  0  0  0  0  0  0
   12.0861    8.4759   -2.4032 C   0  0  0  0  0  0  0  0  0  0  0  0
   11.7752    9.5708   -3.2306 C   0  0  0  0  0  0  0  0  0  0  0  0
   11.4688    9.3720   -4.5902 C   0  0  0  0  0  0  0  0  0  0  0  0
    7.9353    4.2244   -9.4701 H   0  0  0  0  0  0  0  0  0  0  0  0
    9.6063    4.7463   -9.5631 H   0  0  0  0  0  0  0  0  0  0  0  0
    9.0807    3.6973   -8.2472 H   0  0  0  0  0  0  0  0  0  0  0  0
    7.6861    5.5553   -7.2862 H   0  0  0  0  0  0  0  0  0  0  0  0
    8.0860    6.5696   -8.6731 H   0  0  0  0  0  0  0  0  0  0  0  0
   11.7754    6.8869   -6.8465 H   0  0  0  0  0  0  0  0  0  0  0  0
   11.6835    9.8541   -7.1996 H   0  0  0  0  0  0  0  0  0  0  0  0
   12.8150    8.6874   -7.7869 H   0  0  0  0  0  0  0  0  0  0  0  0
   10.0369    9.3533   -8.8645 H   0  0  0  0  0  0  0  0  0  0  0  0
   11.5442    9.7340   -9.6063 H   0  0  0  0  0  0  0  0  0  0  0  0
   11.2861    6.7868   -9.2668 H   0  0  0  0  0  0  0  0  0  0  0  0
    9.9354    7.4825  -10.1556 H   0  0  0  0  0  0  0  0  0  0  0  0
   11.7464    5.9670   -4.6846 H   0  0  0  0  0  0  0  0  0  0  0  0
   12.2921    6.3256   -2.2980 H   0  0  0  0  0  0  0  0  0  0  0  0
   12.3184    8.6372   -1.3608 H   0  0  0  0  0  0  0  0  0  0  0  0
   11.7699   10.5692   -2.8172 H   0  0  0  0  0  0  0  0  0  0  0  0
   11.2229   10.2350   -5.1889 H   0  0  0  0  0  0  0  0  0  0  0  0
  2  1  1  0
  3  2  1  0
  4  3  1  0
  5  4  2  0
  6  4  1  0
  7  6  1  0
  8  7  1  0
  9  8  1  0
 10  9  1  0
 11  6  1  0
 12 11  2  0
 13 12  1  0
 14 13  2  0
 15 14  1  0
 16 11  1  0
 16 15  2  0
 17  1  1  0
 18  1  1  0
 19  1  1  0
 20  2  1  0
 21  2  1  0
  6 22  1  6
 23  7  1  0
 24  7  1  0
 25  8  1  0
 26  8  1  0
 27  9  1  0
 28  9  1  0
 29 12  1  0
 30 13  1  0
 31 14  1  0
 32 15  1  0
 33 16  1  0
M  END
>  <b_m_subgroup_collapsed>  (1258) 
0

>  <r_i_docking_score>  (1258) 
-6.3415748660486697

>  <s_m_subgroup_title>  (1258) 
glide-dock_SP_D22_pv

>  <s_m_subgroupid>  (1258) 
glide-dock_SP_D22_pv

>  <Molecule ChEMBL ID>  (1258) 
CHEMBL201575

>  <Standard Type>  (1258) 
Ki

>  <Standard Value>  (1258) 
10000.0

>  <label>  (1258) 
0

$$$$
CHEMBL3104092
     RDKit          3D

 43 47  0  0  1  0  0  0  0  0999 V2000
    7.2922    0.8150  -15.1000 C   0  0  0  0  0  0  0  0  0  0  0  0
    7.6996    1.9542  -14.2473 N   0  0  2  0  0  0  0  0  0  0  0  0
    6.5486    2.8198  -13.8463 C   0  0  0  0  0  0  0  0  0  0  0  0
    6.9299    3.8293  -12.7354 C   0  0  0  0  0  0  0  0  0  0  0  0
    8.2934    4.3853  -12.9852 C   0  0  0  0  0  0  0  0  0  0  0  0
    9.1596    3.9027  -13.9450 C   0  0  0  0  0  0  0  0  0  0  0  0
   10.2527    4.7967  -13.8561 C   0  0  0  0  0  0  0  0  0  0  0  0
   11.3728    4.7790  -14.6800 C   0  0  0  0  0  0  0  0  0  0  0  0
   12.3423    5.7829  -14.5017 C   0  0  0  0  0  0  0  0  0  0  0  0
   12.1825    6.7539  -13.4980 C   0  0  0  0  0  0  0  0  0  0  0  0
   11.0619    6.7289  -12.6476 C   0  0  0  0  0  0  0  0  0  0  0  0
   10.0730    5.7271  -12.8613 C   0  0  0  0  0  0  0  0  0  0  0  0
    8.8905    5.4458  -12.2938 N   0  0  0  0  0  0  0  0  0  0  0  0
    8.3460    6.2481  -11.2189 C   0  0  0  0  0  0  0  0  0  0  0  0
    9.2851    6.4296  -10.0409 C   0  0  0  0  0  0  0  0  0  0  0  0
    8.9340    5.9213   -8.7725 C   0  0  0  0  0  0  0  0  0  0  0  0
    9.7311    6.2123   -7.6520 C   0  0  0  0  0  0  0  0  0  0  0  0
   10.8911    6.9939   -7.7973 C   0  0  0  0  0  0  0  0  0  0  0  0
   11.2634    7.4755   -9.0678 C   0  0  0  0  0  0  0  0  0  0  0  0
   10.4564    7.1954  -10.1921 C   0  0  0  0  0  0  0  0  0  0  0  0
   10.8025    7.7613  -11.5551 C   0  0  0  0  0  0  0  0  0  0  0  0
    8.8399    2.7260  -14.8209 C   0  0  0  0  0  0  0  0  0  0  0  0
    6.8732    1.1654  -16.0447 H   0  0  0  0  0  0  0  0  0  0  0  0
    6.5409    0.2076  -14.5949 H   0  0  0  0  0  0  0  0  0  0  0  0
    8.1436    0.1688  -15.3161 H   0  0  0  0  0  0  0  0  0  0  0  0
    6.2014    3.3619  -14.7258 H   0  0  0  0  0  0  0  0  0  0  0  0
    5.7072    2.2130  -13.5083 H   0  0  0  0  0  0  0  0  0  0  0  0
    6.1945    4.6338  -12.7132 H   0  0  0  0  0  0  0  0  0  0  0  0
    6.8848    3.3725  -11.7487 H   0  0  0  0  0  0  0  0  0  0  0  0
   11.5019    4.0440  -15.4593 H   0  0  0  0  0  0  0  0  0  0  0  0
   13.2189    5.8109  -15.1351 H   0  0  0  0  0  0  0  0  0  0  0  0
   12.9372    7.5169  -13.3747 H   0  0  0  0  0  0  0  0  0  0  0  0
    8.0856    7.2257  -11.6218 H   0  0  0  0  0  0  0  0  0  0  0  0
    7.4217    5.7775  -10.8709 H   0  0  0  0  0  0  0  0  0  0  0  0
    8.0290    5.3494   -8.6474 H   0  0  0  0  0  0  0  0  0  0  0  0
    9.4417    5.8559   -6.6767 H   0  0  0  0  0  0  0  0  0  0  0  0
   11.5041    7.2210   -6.9333 H   0  0  0  0  0  0  0  0  0  0  0  0
   12.1598    8.0716   -9.1721 H   0  0  0  0  0  0  0  0  0  0  0  0
   11.7017    8.3653  -11.4458 H   0  0  0  0  0  0  0  0  0  0  0  0
   10.0201    8.4486  -11.8798 H   0  0  0  0  0  0  0  0  0  0  0  0
    9.7053    2.0717  -14.9028 H   0  0  0  0  0  0  0  0  0  0  0  0
    8.5928    3.0574  -15.8290 H   0  0  0  0  0  0  0  0  0  0  0  0
    8.0580    1.5523  -13.3925 H   0  0  0  0  0  0  0  0  0  0  0  0
  2  1  1  0
  3  2  1  0
  4  3  1  0
  5  4  1  0
  6  5  2  0
  7  6  1  0
  8  7  2  0
  9  8  1  0
 10  9  2  0
 11 10  1  0
 12  7  1  0
 12 11  2  0
 13  5  1  0
 13 12  1  0
 14 13  1  0
 15 14  1  0
 16 15  2  0
 17 16  1  0
 18 17  2  0
 19 18  1  0
 20 15  1  0
 20 19  2  0
 21 11  1  0
 21 20  1  0
 22  2  1  0
 22  6  1  0
 23  1  1  0
 24  1  1  0
 25  1  1  0
 26  3  1  0
 27  3  1  0
 28  4  1  0
 29  4  1  0
 30  8  1  0
 31  9  1  0
 32 10  1  0
 33 14  1  0
 34 14  1  0
 35 16  1  0
 36 17  1  0
 37 18  1  0
 38 19  1  0
 39 21  1  0
 40 21  1  0
 41 22  1  0
 42 22  1  0
  2 43  1  1
M  CHG  1   2   1
M  END
>  <b_m_subgroup_collapsed>  (1259) 
0

>  <r_i_docking_score>  (1259) 
-6.3382227064067198

>  <s_m_subgroup_title>  (1259) 
glide-dock_SP_D22_pv

>  <s_m_subgroupid>  (1259) 
glide-dock_SP_D22_pv

>  <Molecule ChEMBL ID>  (1259) 
CHEMBL3104092

>  <Standard Type>  (1259) 
Ki

>  <Standard Value>  (1259) 
10000.0

>  <label>  (1259) 
0

$$$$
CHEMBL1202783
     RDKit          3D

 52 55  0  0  1  0  0  0  0  0999 V2000
   10.3824    7.8074   -6.4460 C   0  0  0  0  0  0  0  0  0  0  0  0
   11.3169    8.7592   -6.5706 C   0  0  0  0  0  0  0  0  0  0  0  0
   11.9184    9.5468   -5.4204 C   0  0  0  0  0  0  0  0  0  0  0  0
   11.7976    8.9090   -4.1115 N   0  0  0  0  0  0  0  0  0  0  0  0
   12.4693    7.6099   -4.0342 C   0  0  0  0  0  0  0  0  0  0  0  0
   12.3212    6.9750   -2.6470 C   0  0  0  0  0  0  0  0  0  0  0  0
   12.8859    7.8571   -1.6880 O   0  0  0  0  0  0  0  0  0  0  0  0
   12.3201    9.1508   -1.7063 C   0  0  0  0  0  0  0  0  0  0  0  0
   12.3642    9.7764   -3.0942 C   0  0  0  0  0  0  0  0  0  0  0  0
   11.8168    9.1465   -7.9484 C   0  0  0  0  0  0  0  0  0  0  0  0
   11.6685    8.1459   -8.9487 O   0  0  0  0  0  0  0  0  0  0  0  0
   10.5812    7.3112   -8.8541 C   0  0  0  0  0  0  0  0  0  0  0  0
    9.9326    7.0859   -7.6222 C   0  0  0  0  0  0  0  0  0  0  0  0
    8.8774    6.1700   -7.5425 C   0  0  0  0  0  0  0  0  0  0  0  0
    8.4862    5.4554   -8.6867 C   0  0  0  0  0  0  0  0  0  0  0  0
    9.0954    5.7097   -9.9283 C   0  0  0  0  0  0  0  0  0  0  0  0
   10.1478    6.6512  -10.0172 C   0  0  0  0  0  0  0  0  0  0  0  0
   10.8094    6.9722  -11.1796 O   0  0  0  0  0  0  0  0  0  0  0  0
   10.1192    6.8074  -12.4026 C   0  0  0  0  0  0  0  0  0  0  0  0
   10.3849    5.4312  -13.0372 C   0  0  2  0  0  0  0  0  0  0  0  0
   11.6761    5.4165  -13.8806 C   0  0  0  0  0  0  0  0  0  0  0  0
   11.8414    4.1099  -14.5500 N   0  0  0  0  0  0  0  0  0  0  0  0
   10.6418    3.7342  -15.3254 C   0  0  0  0  0  0  0  0  0  0  0  0
    9.3901    3.7925  -14.4326 C   0  0  0  0  0  0  0  0  0  0  0  0
    9.2782    5.0951  -13.8697 O   0  0  0  0  0  0  0  0  0  0  0  0
    9.9757    7.5232   -5.4864 H   0  0  0  0  0  0  0  0  0  0  0  0
   12.9731    9.7209   -5.6380 H   0  0  0  0  0  0  0  0  0  0  0  0
   11.4397   10.5272   -5.4061 H   0  0  0  0  0  0  0  0  0  0  0  0
   12.0860    6.9102   -4.7745 H   0  0  0  0  0  0  0  0  0  0  0  0
   13.5286    7.7431   -4.2468 H   0  0  0  0  0  0  0  0  0  0  0  0
   11.2741    6.7803   -2.4127 H   0  0  0  0  0  0  0  0  0  0  0  0
   12.8443    6.0194   -2.6053 H   0  0  0  0  0  0  0  0  0  0  0  0
   11.2860    9.0675   -1.4471 H   0  0  0  0  0  0  0  0  0  0  0  0
   12.8089    9.7720   -0.9611 H   0  0  0  0  0  0  0  0  0  0  0  0
   13.3887   10.0254   -3.3596 H   0  0  0  0  0  0  0  0  0  0  0  0
   11.8045   10.7098   -3.0474 H   0  0  0  0  0  0  0  0  0  0  0  0
   11.2861   10.0395   -8.2742 H   0  0  0  0  0  0  0  0  0  0  0  0
   12.8805    9.3721   -7.8852 H   0  0  0  0  0  0  0  0  0  0  0  0
    8.3660    6.0055   -6.6061 H   0  0  0  0  0  0  0  0  0  0  0  0
    7.6878    4.7354   -8.6138 H   0  0  0  0  0  0  0  0  0  0  0  0
    8.7373    5.1728  -10.7924 H   0  0  0  0  0  0  0  0  0  0  0  0
    9.0503    6.9912  -12.2764 H   0  0  0  0  0  0  0  0  0  0  0  0
   10.4872    7.6014  -13.0468 H   0  0  0  0  0  0  0  0  0  0  0  0
   10.4501    4.6790  -12.2494 H   0  0  0  0  0  0  0  0  0  0  0  0
   11.6440    6.2000  -14.6392 H   0  0  0  0  0  0  0  0  0  0  0  0
   12.5454    5.6158  -13.2533 H   0  0  0  0  0  0  0  0  0  0  0  0
   12.0026    3.4025  -13.8474 H   0  0  0  0  0  0  0  0  0  0  0  0
   10.7733    2.7324  -15.7360 H   0  0  0  0  0  0  0  0  0  0  0  0
   10.5315    4.4159  -16.1700 H   0  0  0  0  0  0  0  0  0  0  0  0
    9.4339    3.0406  -13.6424 H   0  0  0  0  0  0  0  0  0  0  0  0
    8.4975    3.5819  -15.0220 H   0  0  0  0  0  0  0  0  0  0  0  0
   12.6424    4.1470  -15.1657 H   0  0  0  0  0  0  0  0  0  0  0  0
  2  1  2  0
  3  2  1  0
  4  3  1  0
  5  4  1  0
  6  5  1  0
  7  6  1  0
  8  7  1  0
  9  4  1  0
  9  8  1  0
 10  2  1  0
 11 10  1  0
 12 11  1  0
 13  1  1  0
 13 12  1  0
 14 13  2  0
 15 14  1  0
 16 15  2  0
 17 12  2  0
 17 16  1  0
 18 17  1  0
 19 18  1  0
 20 19  1  0
 21 20  1  0
 22 21  1  0
 23 22  1  0
 24 23  1  0
 25 20  1  0
 25 24  1  0
 26  1  1  0
 27  3  1  0
 28  3  1  0
 29  5  1  0
 30  5  1  0
 31  6  1  0
 32  6  1  0
 33  8  1  0
 34  8  1  0
 35  9  1  0
 36  9  1  0
 37 10  1  0
 38 10  1  0
 39 14  1  0
 40 15  1  0
 41 16  1  0
 42 19  1  0
 43 19  1  0
 20 44  1  1
 45 21  1  0
 46 21  1  0
 47 22  1  0
 48 23  1  0
 49 23  1  0
 50 24  1  0
 51 24  1  0
 52 22  1  0
M  CHG  1  22   1
M  END
>  <b_m_subgroup_collapsed>  (1260) 
0

>  <r_i_docking_score>  (1260) 
-6.33513006710489

>  <s_m_subgroup_title>  (1260) 
glide-dock_SP_D22_pv

>  <s_m_subgroupid>  (1260) 
glide-dock_SP_D22_pv

>  <Molecule ChEMBL ID>  (1260) 
CHEMBL1202783

>  <Standard Type>  (1260) 
Ki

>  <Standard Value>  (1260) 
10000.0

>  <label>  (1260) 
0

$$$$
CHEMBL4467359
     RDKit          3D

 43 46  0  0  1  0  0  0  0  0999 V2000
    4.9000   -1.6289  -15.5045 C   0  0  0  0  0  0  0  0  0  0  0  0
    4.9442   -0.4241  -14.5731 C   0  0  0  0  0  0  0  0  0  0  0  0
    4.0253   -0.2281  -13.7777 O   0  0  0  0  0  0  0  0  0  0  0  0
    6.0341    0.3542  -14.6717 N   0  0  0  0  0  0  0  0  0  0  0  0
    6.2813    1.5880  -14.0189 C   0  0  0  0  0  0  0  0  0  0  0  0
    5.4493    2.1787  -13.1561 N   0  0  0  0  0  0  0  0  0  0  0  0
    6.0430    3.3752  -12.7848 C   0  0  0  0  0  0  0  0  0  0  0  0
    7.2566    3.4278  -13.4468 C   0  0  0  0  0  0  0  0  0  0  0  0
    8.3453    4.4019  -13.3135 C   0  0  0  0  0  0  0  0  0  0  0  0
    8.3739    5.5483  -12.5628 C   0  0  0  0  0  0  0  0  0  0  0  0
    9.6551    6.0845  -12.5583 N   0  0  0  0  0  0  0  0  0  0  0  0
   10.1077    7.4516  -11.5953 S   0  0  0  0  0  0  0  0  0  0  0  0
    9.2757    8.5668  -12.0753 O   0  0  0  0  0  0  0  0  0  0  0  0
   11.5753    7.5335  -11.6357 O   0  0  0  0  0  0  0  0  0  0  0  0
    9.6525    7.0688   -9.9120 C   0  0  0  0  0  0  0  0  0  0  0  0
    9.6664    8.1208   -8.9732 C   0  0  0  0  0  0  0  0  0  0  0  0
    9.2862    7.8679   -7.6407 C   0  0  0  0  0  0  0  0  0  0  0  0
    8.8866    6.5723   -7.2612 C   0  0  0  0  0  0  0  0  0  0  0  0
    8.8869    5.5255   -8.2028 C   0  0  0  0  0  0  0  0  0  0  0  0
    9.2907    5.7626   -9.5248 C   0  0  0  0  0  0  0  0  0  0  0  0
   10.4641    5.3587  -13.4289 C   0  0  0  0  0  0  0  0  0  0  0  0
   11.8058    5.5120  -13.8468 C   0  0  0  0  0  0  0  0  0  0  0  0
   12.3773    4.5928  -14.7411 C   0  0  0  0  0  0  0  0  0  0  0  0
   11.6104    3.5162  -15.2132 C   0  0  0  0  0  0  0  0  0  0  0  0
   10.2724    3.3652  -14.8010 C   0  0  0  0  0  0  0  0  0  0  0  0
    9.6545    4.2831  -13.9125 C   0  0  0  0  0  0  0  0  0  0  0  0
    7.3803    2.2885  -14.2473 N   0  0  0  0  0  0  0  0  0  0  0  0
    5.6853   -2.3389  -15.2441 H   0  0  0  0  0  0  0  0  0  0  0  0
    3.9385   -2.1418  -15.4449 H   0  0  0  0  0  0  0  0  0  0  0  0
    5.0498   -1.3166  -16.5361 H   0  0  0  0  0  0  0  0  0  0  0  0
    6.7436    0.0563  -15.3259 H   0  0  0  0  0  0  0  0  0  0  0  0
    5.5943    4.0501  -12.0693 H   0  0  0  0  0  0  0  0  0  0  0  0
    7.5962    5.9898  -11.9527 H   0  0  0  0  0  0  0  0  0  0  0  0
    9.9511    9.1200   -9.2778 H   0  0  0  0  0  0  0  0  0  0  0  0
    9.2739    8.6682   -6.9159 H   0  0  0  0  0  0  0  0  0  0  0  0
    8.5697    6.3833   -6.2478 H   0  0  0  0  0  0  0  0  0  0  0  0
    8.5825    4.5342   -7.9073 H   0  0  0  0  0  0  0  0  0  0  0  0
    9.3049    4.9355  -10.2195 H   0  0  0  0  0  0  0  0  0  0  0  0
   12.4162    6.3294  -13.4968 H   0  0  0  0  0  0  0  0  0  0  0  0
   13.4024    4.7102  -15.0568 H   0  0  0  0  0  0  0  0  0  0  0  0
   12.0499    2.8012  -15.8937 H   0  0  0  0  0  0  0  0  0  0  0  0
    9.7101    2.5284  -15.1827 H   0  0  0  0  0  0  0  0  0  0  0  0
    4.5582    1.8098  -12.8557 H   0  0  0  0  0  0  0  0  0  0  0  0
  2  1  1  0
  3  2  2  0
  4  2  1  0
  5  4  1  0
  6  5  1  0
  7  6  1  0
  8  7  2  0
  9  8  1  0
 10  9  2  0
 11 10  1  0
 12 11  1  0
 13 12  2  0
 14 12  2  0
 15 12  1  0
 16 15  2  0
 17 16  1  0
 18 17  2  0
 19 18  1  0
 20 15  1  0
 20 19  2  0
 21 11  1  0
 22 21  2  0
 23 22  1  0
 24 23  2  0
 25 24  1  0
 26  9  1  0
 26 21  1  0
 26 25  2  0
 27  5  2  0
 27  8  1  0
 28  1  1  0
 29  1  1  0
 30  1  1  0
 31  4  1  0
 32  7  1  0
 33 10  1  0
 34 16  1  0
 35 17  1  0
 36 18  1  0
 37 19  1  0
 38 20  1  0
 39 22  1  0
 40 23  1  0
 41 24  1  0
 42 25  1  0
 43  6  1  0
M  END
>  <b_m_subgroup_collapsed>  (1261) 
0

>  <r_i_docking_score>  (1261) 
-6.3341177270879001

>  <s_m_subgroup_title>  (1261) 
glide-dock_SP_D22_pv

>  <s_m_subgroupid>  (1261) 
glide-dock_SP_D22_pv

>  <Molecule ChEMBL ID>  (1261) 
CHEMBL4467359

>  <Standard Type>  (1261) 
Ki

>  <Standard Value>  (1261) 
10000.0

>  <label>  (1261) 
0

$$$$
CHEMBL379673
     RDKit          3D

 38 40  0  0  1  0  0  0  0  0999 V2000
    8.2582    9.1336  -11.9935 C   0  0  0  0  0  0  0  0  0  0  0  0
    8.5995    7.7004  -11.8469 N   0  0  1  0  0  0  0  0  0  0  0  0
    7.6534    6.8166  -12.5676 C   0  0  0  0  0  0  0  0  0  0  0  0
    7.8448    5.3209  -12.2691 C   0  0  0  0  0  0  0  0  0  0  0  0
    7.9046    4.9937  -10.7664 C   0  0  0  0  0  0  0  0  0  0  0  0
    9.3180    4.8597  -10.1627 C   0  0  0  0  0  0  0  0  0  0  0  0
    9.7486    5.9905   -9.2799 C   0  0  0  0  0  0  0  0  0  0  0  0
    9.5338    5.8977   -7.9146 N   0  0  0  0  0  0  0  0  0  0  0  0
   10.1152    6.9480   -7.2430 C   0  0  0  0  0  0  0  0  0  0  0  0
   10.2448    7.2524   -5.8766 C   0  0  0  0  0  0  0  0  0  0  0  0
   10.9070    8.4326   -5.4900 C   0  0  0  0  0  0  0  0  0  0  0  0
   11.4189    9.3003   -6.4734 C   0  0  0  0  0  0  0  0  0  0  0  0
   11.2875    8.9730   -7.8388 C   0  0  0  0  0  0  0  0  0  0  0  0
   10.6500    7.7857   -8.2575 C   0  0  0  0  0  0  0  0  0  0  0  0
   10.4174    7.1691   -9.5366 C   0  0  0  0  0  0  0  0  0  0  0  0
   10.8952    7.7538  -10.8384 C   0  0  0  0  0  0  0  0  0  0  0  0
   10.0463    7.4167  -12.0678 C   0  0  0  0  0  0  0  0  0  0  0  0
    8.5399    9.5141  -12.9771 H   0  0  0  0  0  0  0  0  0  0  0  0
    8.7725    9.7087  -11.2276 H   0  0  0  0  0  0  0  0  0  0  0  0
    7.1953    9.3269  -11.8469 H   0  0  0  0  0  0  0  0  0  0  0  0
    6.6432    7.0819  -12.2511 H   0  0  0  0  0  0  0  0  0  0  0  0
    7.6862    6.9944  -13.6371 H   0  0  0  0  0  0  0  0  0  0  0  0
    6.9829    4.8033  -12.6938 H   0  0  0  0  0  0  0  0  0  0  0  0
    8.6982    4.8995  -12.7992 H   0  0  0  0  0  0  0  0  0  0  0  0
    7.3047    5.7076  -10.1998 H   0  0  0  0  0  0  0  0  0  0  0  0
    7.4037    4.0324  -10.6467 H   0  0  0  0  0  0  0  0  0  0  0  0
    9.3376    3.9624   -9.5450 H   0  0  0  0  0  0  0  0  0  0  0  0
   10.0674    4.6625  -10.9280 H   0  0  0  0  0  0  0  0  0  0  0  0
    9.0418    5.1273   -7.4871 H   0  0  0  0  0  0  0  0  0  0  0  0
    9.8402    6.5797   -5.1340 H   0  0  0  0  0  0  0  0  0  0  0  0
   11.0155    8.6766   -4.4439 H   0  0  0  0  0  0  0  0  0  0  0  0
   11.9223   10.2115   -6.1818 H   0  0  0  0  0  0  0  0  0  0  0  0
   11.6858    9.6385   -8.5878 H   0  0  0  0  0  0  0  0  0  0  0  0
   10.9552    8.8387  -10.7455 H   0  0  0  0  0  0  0  0  0  0  0  0
   11.9200    7.4293  -11.0229 H   0  0  0  0  0  0  0  0  0  0  0  0
   10.2200    6.3765  -12.3220 H   0  0  0  0  0  0  0  0  0  0  0  0
   10.4381    7.9767  -12.9163 H   0  0  0  0  0  0  0  0  0  0  0  0
    8.3924    7.4904  -10.8751 H   0  0  0  0  0  0  0  0  0  0  0  0
  2  1  1  0
  3  2  1  0
  4  3  1  0
  5  4  1  0
  6  5  1  0
  7  6  1  0
  8  7  1  0
  9  8  1  0
 10  9  2  0
 11 10  1  0
 12 11  2  0
 13 12  1  0
 14  9  1  0
 14 13  2  0
 15  7  2  0
 15 14  1  0
 16 15  1  0
 17  2  1  0
 17 16  1  0
 18  1  1  0
 19  1  1  0
 20  1  1  0
 21  3  1  0
 22  3  1  0
 23  4  1  0
 24  4  1  0
 25  5  1  0
 26  5  1  0
 27  6  1  0
 28  6  1  0
 29  8  1  0
 30 10  1  0
 31 11  1  0
 32 12  1  0
 33 13  1  0
 34 16  1  0
 35 16  1  0
 36 17  1  0
 37 17  1  0
  2 38  1  1
M  CHG  1   2   1
M  END
>  <b_m_subgroup_collapsed>  (1262) 
0

>  <r_i_docking_score>  (1262) 
-6.3324516987007398

>  <s_m_subgroup_title>  (1262) 
glide-dock_SP_D22_pv

>  <s_m_subgroupid>  (1262) 
glide-dock_SP_D22_pv

>  <Molecule ChEMBL ID>  (1262) 
CHEMBL379673

>  <Standard Type>  (1262) 
Ki

>  <Standard Value>  (1262) 
10000.0

>  <label>  (1262) 
0

$$$$
CHEMBL10085
     RDKit          3D

 67 70  0  0  1  0  0  0  0  0999 V2000
   11.6822    7.8970   -7.8683 C   0  0  0  0  0  0  0  0  0  0  0  0
   10.6648    8.3928   -8.9081 C   0  0  0  0  0  0  0  0  0  0  0  0
    9.2861    8.6059   -8.2741 C   0  0  0  0  0  0  0  0  0  0  0  0
   10.4909    7.4239   -9.9402 O   0  0  0  0  0  0  0  0  0  0  0  0
   11.2643    7.4802  -11.0842 C   0  0  0  0  0  0  0  0  0  0  0  0
   12.4960    8.1723  -11.1308 C   0  0  0  0  0  0  0  0  0  0  0  0
   13.2856    8.1730  -12.2978 C   0  0  0  0  0  0  0  0  0  0  0  0
   12.8368    7.5315  -13.4610 C   0  0  0  0  0  0  0  0  0  0  0  0
   11.6412    6.8050  -13.4178 C   0  0  0  0  0  0  0  0  0  0  0  0
   10.8485    6.7676  -12.2449 C   0  0  0  0  0  0  0  0  0  0  0  0
    9.6824    5.9822  -12.2842 N   0  0  0  0  0  0  0  0  0  0  0  0
    8.4910    6.3217  -11.5225 C   0  0  0  0  0  0  0  0  0  0  0  0
    7.2389    5.7899  -12.2347 C   0  0  0  0  0  0  0  0  0  0  0  0
    7.3541    4.3551  -12.6084 N   0  0  0  0  0  0  0  0  0  0  0  0
    6.1449    3.9207  -13.3528 C   0  0  0  0  0  0  0  0  0  0  0  0
    6.1286    2.4546  -13.7589 C   0  0  0  0  0  0  0  0  0  0  0  0
    5.2859    1.5545  -13.0778 C   0  0  0  0  0  0  0  0  0  0  0  0
    5.1729    0.2261  -13.5246 C   0  0  0  0  0  0  0  0  0  0  0  0
    5.9438   -0.2324  -14.6087 C   0  0  0  0  0  0  0  0  0  0  0  0
    6.8231    0.6483  -15.2699 C   0  0  0  0  0  0  0  0  0  0  0  0
    7.6117    0.1725  -16.4536 C   0  0  0  0  0  0  0  0  0  0  0  0
    6.9977   -0.1923  -17.4556 O   0  0  0  0  0  0  0  0  0  0  0  0
    8.9670    0.1766  -16.3728 N   0  0  0  0  0  0  0  0  0  0  0  0
    9.8180   -0.1648  -17.5202 C   0  0  0  0  0  0  0  0  0  0  0  0
   10.5999    1.0904  -17.9483 C   0  0  0  0  0  0  0  0  0  0  0  0
   11.4173    1.6575  -16.7735 C   0  0  0  0  0  0  0  0  0  0  0  0
   10.5574    1.8279  -15.5059 C   0  0  0  0  0  0  0  0  0  0  0  0
    9.7712    0.5404  -15.1954 C   0  0  0  0  0  0  0  0  0  0  0  0
    6.8861    1.9967  -14.8632 C   0  0  0  0  0  0  0  0  0  0  0  0
    8.6312    4.0485  -13.3123 C   0  0  0  0  0  0  0  0  0  0  0  0
    9.8535    4.5698  -12.5636 C   0  0  0  0  0  0  0  0  0  0  0  0
   11.7721    8.6058   -7.0447 H   0  0  0  0  0  0  0  0  0  0  0  0
   11.3760    6.9387   -7.4486 H   0  0  0  0  0  0  0  0  0  0  0  0
   12.6776    7.7675   -8.2902 H   0  0  0  0  0  0  0  0  0  0  0  0
   10.9799    9.3540   -9.3167 H   0  0  0  0  0  0  0  0  0  0  0  0
    9.3262    9.3462   -7.4749 H   0  0  0  0  0  0  0  0  0  0  0  0
    8.5689    8.9629   -9.0136 H   0  0  0  0  0  0  0  0  0  0  0  0
    8.8898    7.6789   -7.8576 H   0  0  0  0  0  0  0  0  0  0  0  0
   12.8785    8.7019  -10.2740 H   0  0  0  0  0  0  0  0  0  0  0  0
   14.2278    8.6988  -12.3050 H   0  0  0  0  0  0  0  0  0  0  0  0
   13.4307    7.5493  -14.3628 H   0  0  0  0  0  0  0  0  0  0  0  0
   11.3212    6.2816  -14.3069 H   0  0  0  0  0  0  0  0  0  0  0  0
    8.5608    5.8942  -10.5214 H   0  0  0  0  0  0  0  0  0  0  0  0
    8.4150    7.4037  -11.4097 H   0  0  0  0  0  0  0  0  0  0  0  0
    6.3659    5.9327  -11.5970 H   0  0  0  0  0  0  0  0  0  0  0  0
    7.0723    6.3954  -13.1207 H   0  0  0  0  0  0  0  0  0  0  0  0
    5.2647    4.1265  -12.7413 H   0  0  0  0  0  0  0  0  0  0  0  0
    6.0305    4.5289  -14.2478 H   0  0  0  0  0  0  0  0  0  0  0  0
    4.6812    1.8939  -12.2502 H   0  0  0  0  0  0  0  0  0  0  0  0
    4.4709   -0.4344  -13.0472 H   0  0  0  0  0  0  0  0  0  0  0  0
    5.8518   -1.2579  -14.9407 H   0  0  0  0  0  0  0  0  0  0  0  0
   10.5047   -0.9638  -17.2384 H   0  0  0  0  0  0  0  0  0  0  0  0
    9.2502   -0.5497  -18.3691 H   0  0  0  0  0  0  0  0  0  0  0  0
   11.2608    0.8542  -18.7830 H   0  0  0  0  0  0  0  0  0  0  0  0
    9.9025    1.8480  -18.3093 H   0  0  0  0  0  0  0  0  0  0  0  0
   12.2396    0.9751  -16.5614 H   0  0  0  0  0  0  0  0  0  0  0  0
   11.8739    2.6080  -17.0514 H   0  0  0  0  0  0  0  0  0  0  0  0
   11.1887    2.0959  -14.6583 H   0  0  0  0  0  0  0  0  0  0  0  0
    9.8667    2.6566  -15.6542 H   0  0  0  0  0  0  0  0  0  0  0  0
    9.1861    0.6586  -14.2840 H   0  0  0  0  0  0  0  0  0  0  0  0
   10.4680   -0.2702  -14.9784 H   0  0  0  0  0  0  0  0  0  0  0  0
    7.5042    2.6833  -15.4213 H   0  0  0  0  0  0  0  0  0  0  0  0
    8.7640    2.9748  -13.4135 H   0  0  0  0  0  0  0  0  0  0  0  0
    8.6089    4.4797  -14.3145 H   0  0  0  0  0  0  0  0  0  0  0  0
   10.7552    4.3686  -13.1419 H   0  0  0  0  0  0  0  0  0  0  0  0
    9.9691    4.0383  -11.6181 H   0  0  0  0  0  0  0  0  0  0  0  0
    7.3752    3.8434  -11.7380 H   0  0  0  0  0  0  0  0  0  0  0  0
  2  1  1  0
  3  2  1  0
  4  2  1  0
  5  4  1  0
  6  5  2  0
  7  6  1  0
  8  7  2  0
  9  8  1  0
 10  5  1  0
 10  9  2  0
 11 10  1  0
 12 11  1  0
 13 12  1  0
 14 13  1  0
 15 14  1  0
 16 15  1  0
 17 16  2  0
 18 17  1  0
 19 18  2  0
 20 19  1  0
 21 20  1  0
 22 21  2  0
 23 21  1  0
 24 23  1  0
 25 24  1  0
 26 25  1  0
 27 26  1  0
 28 23  1  0
 28 27  1  0
 29 16  1  0
 29 20  2  0
 30 14  1  0
 31 11  1  0
 31 30  1  0
 32  1  1  0
 33  1  1  0
 34  1  1  0
 35  2  1  0
 36  3  1  0
 37  3  1  0
 38  3  1  0
 39  6  1  0
 40  7  1  0
 41  8  1  0
 42  9  1  0
 43 12  1  0
 44 12  1  0
 45 13  1  0
 46 13  1  0
 47 15  1  0
 48 15  1  0
 49 17  1  0
 50 18  1  0
 51 19  1  0
 52 24  1  0
 53 24  1  0
 54 25  1  0
 55 25  1  0
 56 26  1  0
 57 26  1  0
 58 27  1  0
 59 27  1  0
 60 28  1  0
 61 28  1  0
 62 29  1  0
 63 30  1  0
 64 30  1  0
 65 31  1  0
 66 31  1  0
 67 14  1  0
M  CHG  1  14   1
M  END
>  <b_m_subgroup_collapsed>  (1263) 
0

>  <r_i_docking_score>  (1263) 
-6.3300422698176204

>  <s_m_subgroup_title>  (1263) 
glide-dock_SP_D22_pv

>  <s_m_subgroupid>  (1263) 
glide-dock_SP_D22_pv

>  <Molecule ChEMBL ID>  (1263) 
CHEMBL10085

>  <Standard Type>  (1263) 
Ki

>  <Standard Value>  (1263) 
2.2

>  <label>  (1263) 
1

$$$$
CHEMBL4898361
     RDKit          3D

 35 37  0  0  1  0  0  0  0  0999 V2000
    7.6494    4.1724  -12.3770 O   0  0  0  0  0  0  0  0  0  0  0  0
    8.5245    4.9919  -12.0941 C   0  0  0  0  0  0  0  0  0  0  0  0
    8.4845    5.7723  -10.8392 C   0  0  0  0  0  0  0  0  0  0  0  0
    9.3879    6.7414  -10.5792 C   0  0  0  0  0  0  0  0  0  0  0  0
    9.4083    7.5642   -9.3004 C   0  0  0  0  0  0  0  0  0  0  0  0
    9.0356    6.7667   -8.1371 N   0  0  0  0  0  0  0  0  0  0  0  0
    9.3864    7.4212   -6.8831 C   0  0  0  0  0  0  0  0  0  0  0  0
   10.8998    7.3632   -6.6154 C   0  0  0  0  0  0  0  0  0  0  0  0
   11.2860    7.9554   -5.3010 C   0  0  0  0  0  0  0  0  0  0  0  0
   11.6868    7.2340   -4.2503 N   0  0  0  0  0  0  0  0  0  0  0  0
   12.0852    8.0295   -3.1730 C   0  0  0  0  0  0  0  0  0  0  0  0
   11.9317    9.3722   -3.4038 C   0  0  0  0  0  0  0  0  0  0  0  0
   11.2937    9.6908   -4.9959 S   0  0  0  0  0  0  0  0  0  0  0  0
   10.4173    7.0181  -11.4653 N   0  0  0  0  0  0  0  0  0  0  0  0
   10.5960    6.2943  -12.6469 C   0  0  0  0  0  0  0  0  0  0  0  0
   11.6924    6.5721  -13.4816 C   0  0  0  0  0  0  0  0  0  0  0  0
   12.5566    7.5647  -13.1548 F   0  0  0  0  0  0  0  0  0  0  0  0
   11.8971    5.8185  -14.6535 C   0  0  0  0  0  0  0  0  0  0  0  0
   10.9961    4.7919  -14.9981 C   0  0  0  0  0  0  0  0  0  0  0  0
    9.8875    4.5212  -14.1714 C   0  0  0  0  0  0  0  0  0  0  0  0
    9.6812    5.2697  -12.9921 C   0  0  0  0  0  0  0  0  0  0  0  0
    7.6860    5.5600  -10.1446 H   0  0  0  0  0  0  0  0  0  0  0  0
    8.7095    8.3936   -9.3990 H   0  0  0  0  0  0  0  0  0  0  0  0
   10.3985    7.9970   -9.1882 H   0  0  0  0  0  0  0  0  0  0  0  0
    8.0205    6.6732   -8.1731 H   0  0  0  0  0  0  0  0  0  0  0  0
    8.8791    6.8848   -6.0818 H   0  0  0  0  0  0  0  0  0  0  0  0
    9.0112    8.4452   -6.8709 H   0  0  0  0  0  0  0  0  0  0  0  0
   11.4644    7.8869   -7.3845 H   0  0  0  0  0  0  0  0  0  0  0  0
   11.2376    6.3263   -6.6410 H   0  0  0  0  0  0  0  0  0  0  0  0
   12.4528    7.5536   -2.2758 H   0  0  0  0  0  0  0  0  0  0  0  0
   12.1509   10.1905   -2.7322 H   0  0  0  0  0  0  0  0  0  0  0  0
   12.7467    6.0307  -15.2849 H   0  0  0  0  0  0  0  0  0  0  0  0
   11.1550    4.2122  -15.8947 H   0  0  0  0  0  0  0  0  0  0  0  0
    9.1991    3.7328  -14.4452 H   0  0  0  0  0  0  0  0  0  0  0  0
   11.0962    7.7309  -11.2378 H   0  0  0  0  0  0  0  0  0  0  0  0
  2  1  2  0
  3  2  1  0
  4  3  2  0
  5  4  1  0
  6  5  1  0
  7  6  1  0
  8  7  1  0
  9  8  1  0
 10  9  2  0
 11 10  1  0
 12 11  2  0
 13  9  1  0
 13 12  1  0
 14  4  1  0
 15 14  1  0
 16 15  2  0
 17 16  1  0
 18 16  1  0
 19 18  2  0
 20 19  1  0
 21  2  1  0
 21 15  1  0
 21 20  2  0
 22  3  1  0
 23  5  1  0
 24  5  1  0
 25  6  1  0
 26  7  1  0
 27  7  1  0
 28  8  1  0
 29  8  1  0
 30 11  1  0
 31 12  1  0
 32 18  1  0
 33 19  1  0
 34 20  1  0
 35 14  1  0
M  END
>  <b_m_subgroup_collapsed>  (1264) 
0

>  <r_i_docking_score>  (1264) 
-6.3288600978049798

>  <s_m_subgroup_title>  (1264) 
glide-dock_SP_D22_pv

>  <s_m_subgroupid>  (1264) 
glide-dock_SP_D22_pv

>  <Molecule ChEMBL ID>  (1264) 
CHEMBL4898361

>  <Standard Type>  (1264) 
Ki

>  <Standard Value>  (1264) 
10000.0

>  <label>  (1264) 
0

$$$$
CHEMBL4461327
     RDKit          3D

 50 53  0  0  1  0  0  0  0  0999 V2000
    9.7871   -0.6708  -16.6468 C   0  0  0  0  0  0  0  0  0  0  0  0
   10.5610    0.5125  -16.6703 O   0  0  0  0  0  0  0  0  0  0  0  0
   10.1745    1.5376  -15.8363 C   0  0  0  0  0  0  0  0  0  0  0  0
    8.9743    1.5496  -15.0866 C   0  0  0  0  0  0  0  0  0  0  0  0
    8.6786    2.6364  -14.2451 C   0  0  0  0  0  0  0  0  0  0  0  0
    9.5841    3.7132  -14.1249 C   0  0  0  0  0  0  0  0  0  0  0  0
   10.7797    3.7473  -14.9099 C   0  0  0  0  0  0  0  0  0  0  0  0
   11.0441    2.6386  -15.7501 C   0  0  0  0  0  0  0  0  0  0  0  0
   11.4162    5.0053  -14.6501 C   0  0  0  0  0  0  0  0  0  0  0  0
   12.5625    5.5803  -15.3912 C   0  0  0  0  0  0  0  0  0  0  0  0
   13.2539    4.9052  -16.3768 N   0  0  0  0  0  0  0  0  0  0  0  0
   14.2407    5.7156  -16.9053 C   0  0  0  0  0  0  0  0  0  0  0  0
   15.1004    5.3205  -17.7902 N   0  0  0  0  0  0  0  0  0  0  0  0
   16.0834    6.1732  -18.2704 C   0  0  0  0  0  0  0  0  0  0  0  0
   15.6700    7.5846  -18.7061 C   0  0  0  0  0  0  0  0  0  0  0  0
   17.2404    5.8087  -18.4735 O   0  0  0  0  0  0  0  0  0  0  0  0
   14.0973    6.9250  -16.2469 N   0  0  0  0  0  0  0  0  0  0  0  0
   13.0946    6.8067  -15.3185 C   0  0  0  0  0  0  0  0  0  0  0  0
   12.7527    7.9823  -14.4324 C   0  0  0  0  0  0  0  0  0  0  0  0
   10.7009    5.6363  -13.6708 C   0  0  0  0  0  0  0  0  0  0  0  0
    9.5702    4.8905  -13.3702 N   0  0  0  0  0  0  0  0  0  0  0  0
    8.3145    5.4556  -12.3130 S   0  0  0  0  0  0  0  0  0  0  0  0
    7.5394    4.2711  -11.9178 O   0  0  0  0  0  0  0  0  0  0  0  0
    7.6866    6.5617  -13.0468 O   0  0  0  0  0  0  0  0  0  0  0  0
    9.1448    6.1195  -10.8668 C   0  0  0  0  0  0  0  0  0  0  0  0
    9.6861    7.4225  -10.9166 C   0  0  0  0  0  0  0  0  0  0  0  0
   10.2953    7.9730   -9.7726 C   0  0  0  0  0  0  0  0  0  0  0  0
   10.3490    7.2277   -8.5777 C   0  0  0  0  0  0  0  0  0  0  0  0
    9.7951    5.9314   -8.5280 C   0  0  0  0  0  0  0  0  0  0  0  0
    9.1957    5.3718   -9.6736 C   0  0  0  0  0  0  0  0  0  0  0  0
   10.2828   -1.4433  -17.2350 H   0  0  0  0  0  0  0  0  0  0  0  0
    9.6872   -1.0385  -15.6262 H   0  0  0  0  0  0  0  0  0  0  0  0
    8.7951   -0.5075  -17.0713 H   0  0  0  0  0  0  0  0  0  0  0  0
    8.2651    0.7365  -15.1378 H   0  0  0  0  0  0  0  0  0  0  0  0
    7.7568    2.6245  -13.6834 H   0  0  0  0  0  0  0  0  0  0  0  0
   11.9384    2.6087  -16.3477 H   0  0  0  0  0  0  0  0  0  0  0  0
   13.0973    3.9370  -16.6053 H   0  0  0  0  0  0  0  0  0  0  0  0
   15.7107    8.2846  -17.8684 H   0  0  0  0  0  0  0  0  0  0  0  0
   13.0234    7.7696  -13.3977 H   0  0  0  0  0  0  0  0  0  0  0  0
   13.2839    8.8798  -14.7496 H   0  0  0  0  0  0  0  0  0  0  0  0
   11.6861    8.1771  -14.4877 H   0  0  0  0  0  0  0  0  0  0  0  0
   10.8525    6.5932  -13.2044 H   0  0  0  0  0  0  0  0  0  0  0  0
    9.6130    8.0081  -11.8214 H   0  0  0  0  0  0  0  0  0  0  0  0
   10.7068    8.9726   -9.8059 H   0  0  0  0  0  0  0  0  0  0  0  0
   10.8014    7.6563   -7.6957 H   0  0  0  0  0  0  0  0  0  0  0  0
    9.8257    5.3726   -7.6041 H   0  0  0  0  0  0  0  0  0  0  0  0
    8.7591    4.3861   -9.6243 H   0  0  0  0  0  0  0  0  0  0  0  0
   16.3586    7.9524  -19.4722 H   0  0  0  0  0  0  0  0  0  0  0  0
   14.6646    7.5944  -19.1326 H   0  0  0  0  0  0  0  0  0  0  0  0
   14.6489    7.7621  -16.3517 H   0  0  0  0  0  0  0  0  0  0  0  0
  2  1  1  0
  3  2  1  0
  4  3  2  0
  5  4  1  0
  6  5  2  0
  7  6  1  0
  8  3  1  0
  8  7  2  0
  9  7  1  0
 10  9  1  0
 11 10  1  0
 12 11  1  0
 13 12  2  0
 14 13  1  0
 15 14  1  0
 16 14  2  0
 17 12  1  0
 18 10  2  0
 18 17  1  0
 19 18  1  0
 20  9  2  0
 21  6  1  0
 21 20  1  0
 22 21  1  0
 23 22  2  0
 24 22  2  0
 25 22  1  0
 26 25  2  0
 27 26  1  0
 28 27  2  0
 29 28  1  0
 30 25  1  0
 30 29  2  0
 31  1  1  0
 32  1  1  0
 33  1  1  0
 34  4  1  0
 35  5  1  0
 36  8  1  0
 37 11  1  0
 38 15  1  0
 39 19  1  0
 40 19  1  0
 41 19  1  0
 42 20  1  0
 43 26  1  0
 44 27  1  0
 45 28  1  0
 46 29  1  0
 47 30  1  0
 48 15  1  0
 49 15  1  0
 50 17  1  0
M  END
>  <b_m_subgroup_collapsed>  (1265) 
0

>  <r_i_docking_score>  (1265) 
-6.3227283862477304

>  <s_m_subgroup_title>  (1265) 
glide-dock_SP_D22_pv

>  <s_m_subgroupid>  (1265) 
glide-dock_SP_D22_pv

>  <Molecule ChEMBL ID>  (1265) 
CHEMBL4461327

>  <Standard Type>  (1265) 
Ki

>  <Standard Value>  (1265) 
10000.0

>  <label>  (1265) 
0

$$$$
CHEMBL5934096
     RDKit          3D

 39 40  0  0  1  0  0  0  0  0999 V2000
    5.5995    3.8390  -13.1859 C   0  0  0  0  0  0  0  0  0  0  0  0
    6.7264    4.5096  -12.6421 O   0  0  0  0  0  0  0  0  0  0  0  0
    7.9615    4.3074  -13.2241 C   0  0  0  0  0  0  0  0  0  0  0  0
    8.1882    3.3563  -14.2468 C   0  0  0  0  0  0  0  0  0  0  0  0
    9.4687    3.1773  -14.8113 C   0  0  0  0  0  0  0  0  0  0  0  0
    9.6839    2.1262  -15.8968 C   0  0  0  0  0  0  0  0  0  0  0  0
   10.5133    1.1837  -15.4496 F   0  0  0  0  0  0  0  0  0  0  0  0
    8.5427    1.5362  -16.2529 F   0  0  0  0  0  0  0  0  0  0  0  0
   10.2070    2.6883  -16.9859 F   0  0  0  0  0  0  0  0  0  0  0  0
   10.5481    3.9736  -14.3655 C   0  0  0  0  0  0  0  0  0  0  0  0
   11.7790    3.7829  -14.9587 O   0  0  0  0  0  0  0  0  0  0  0  0
   12.8295    4.6915  -14.6506 C   0  0  0  0  0  0  0  0  0  0  0  0
   10.3240    4.9153  -13.3318 C   0  0  0  0  0  0  0  0  0  0  0  0
    9.0470    5.0814  -12.7496 C   0  0  0  0  0  0  0  0  0  0  0  0
    8.8181    6.0465  -11.5817 C   0  0  2  0  0  0  0  0  0  0  0  0
    9.8205    7.2223  -11.4832 C   0  0  0  0  0  0  0  0  0  0  0  0
    9.4697    8.1208  -10.2876 C   0  0  0  0  0  0  0  0  0  0  0  0
    9.4377    7.2964   -8.9894 C   0  0  0  0  0  0  0  0  0  0  0  0
    8.4860    6.1738   -9.1145 N   0  0  0  0  0  0  0  0  0  0  0  0
    8.7739    5.2711  -10.2473 C   0  0  0  0  0  0  0  0  0  0  0  0
    4.7055    4.1640  -12.6556 H   0  0  0  0  0  0  0  0  0  0  0  0
    5.4611    4.0831  -14.2403 H   0  0  0  0  0  0  0  0  0  0  0  0
    5.6799    2.7582  -13.0650 H   0  0  0  0  0  0  0  0  0  0  0  0
    7.3806    2.7400  -14.6088 H   0  0  0  0  0  0  0  0  0  0  0  0
   13.6829    4.4962  -15.2994 H   0  0  0  0  0  0  0  0  0  0  0  0
   12.5280    5.7274  -14.8179 H   0  0  0  0  0  0  0  0  0  0  0  0
   13.1629    4.5720  -13.6186 H   0  0  0  0  0  0  0  0  0  0  0  0
   11.1463    5.5070  -12.9691 H   0  0  0  0  0  0  0  0  0  0  0  0
    7.8363    6.5000  -11.7401 H   0  0  0  0  0  0  0  0  0  0  0  0
   10.8391    6.8625  -11.3415 H   0  0  0  0  0  0  0  0  0  0  0  0
    9.8119    7.8104  -12.3999 H   0  0  0  0  0  0  0  0  0  0  0  0
   10.1963    8.9293  -10.2003 H   0  0  0  0  0  0  0  0  0  0  0  0
    8.4959    8.5939  -10.4518 H   0  0  0  0  0  0  0  0  0  0  0  0
   10.4297    6.9075   -8.7538 H   0  0  0  0  0  0  0  0  0  0  0  0
    9.1303    7.9259   -8.1523 H   0  0  0  0  0  0  0  0  0  0  0  0
    8.4413    5.6529   -8.2507 H   0  0  0  0  0  0  0  0  0  0  0  0
    7.9957    4.5077  -10.2770 H   0  0  0  0  0  0  0  0  0  0  0  0
    9.7182    4.7536  -10.0692 H   0  0  0  0  0  0  0  0  0  0  0  0
    7.5729    6.6024   -9.2778 H   0  0  0  0  0  0  0  0  0  0  0  0
  2  1  1  0
  3  2  1  0
  4  3  2  0
  5  4  1  0
  6  5  1  0
  7  6  1  0
  8  6  1  0
  9  6  1  0
 10  5  2  0
 11 10  1  0
 12 11  1  0
 13 10  1  0
 14  3  1  0
 14 13  2  0
 15 14  1  0
 16 15  1  0
 17 16  1  0
 18 17  1  0
 19 18  1  0
 20 15  1  0
 20 19  1  0
 21  1  1  0
 22  1  1  0
 23  1  1  0
 24  4  1  0
 25 12  1  0
 26 12  1  0
 27 12  1  0
 28 13  1  0
 15 29  1  6
 30 16  1  0
 31 16  1  0
 32 17  1  0
 33 17  1  0
 34 18  1  0
 35 18  1  0
 36 19  1  0
 37 20  1  0
 38 20  1  0
 39 19  1  0
M  CHG  1  19   1
M  END
>  <b_m_subgroup_collapsed>  (1266) 
0

>  <r_i_docking_score>  (1266) 
-6.3223689137126398

>  <s_m_subgroup_title>  (1266) 
glide-dock_SP_D22_pv

>  <s_m_subgroupid>  (1266) 
glide-dock_SP_D22_pv

>  <Molecule ChEMBL ID>  (1266) 
CHEMBL5934096

>  <Standard Type>  (1266) 
Ki

>  <Standard Value>  (1266) 
10000.0

>  <label>  (1266) 
0

$$$$
CHEMBL611207
     RDKit          3D

 53 56  0  0  1  0  0  0  0  0999 V2000
    8.5600    4.8498   -9.5158 C   0  0  0  0  0  0  0  0  0  0  0  0
    8.4860    6.0898  -10.3254 N   0  0  1  0  0  0  0  0  0  0  0  0
    9.5513    7.0487   -9.9331 C   0  0  0  0  0  0  0  0  0  0  0  0
    9.3393    8.4302  -10.5722 C   0  0  0  0  0  0  0  0  0  0  0  0
    9.1342    8.3380  -12.0899 C   0  0  0  0  0  0  0  0  0  0  0  0
    8.1112    7.2507  -12.4590 C   0  0  0  0  0  0  0  0  0  0  0  0
    8.4383    5.8892  -11.8054 C   0  0  2  0  0  0  0  0  0  0  0  0
    7.4456    4.7892  -12.2754 C   0  0  0  0  0  0  0  0  0  0  0  0
    7.3697    4.5229  -13.8077 C   0  0  0  0  0  0  0  0  0  0  0  0
    8.0494    3.2918  -14.2600 N   0  0  0  0  0  0  0  0  0  0  0  0
    7.2573    2.1132  -14.2471 C   0  0  0  0  0  0  0  0  0  0  0  0
    6.0859    2.0242  -13.4470 C   0  0  0  0  0  0  0  0  0  0  0  0
    5.3134    0.8534  -13.3941 C   0  0  0  0  0  0  0  0  0  0  0  0
    5.6343   -0.2449  -14.2008 C   0  0  0  0  0  0  0  0  0  0  0  0
    6.7730   -0.1768  -15.0128 C   0  0  0  0  0  0  0  0  0  0  0  0
    7.6011    0.9640  -15.0079 C   0  0  0  0  0  0  0  0  0  0  0  0
    9.0702    0.8614  -15.9646 S   0  0  0  0  0  0  0  0  0  0  0  0
    9.9001    2.3782  -15.6464 C   0  0  0  0  0  0  0  0  0  0  0  0
   11.1750    2.5159  -16.2357 C   0  0  0  0  0  0  0  0  0  0  0  0
   11.9050    3.7060  -16.1018 C   0  0  0  0  0  0  0  0  0  0  0  0
   11.3415    4.7652  -15.3779 C   0  0  0  0  0  0  0  0  0  0  0  0
   12.2451    6.3444  -15.2387 S   0  0  0  0  0  0  0  0  0  0  0  0
   12.3673    6.3292  -13.3898 C   0  0  0  0  0  0  0  0  0  0  0  0
   13.6534    6.0800  -15.7763 O   0  0  0  0  0  0  0  0  0  0  0  0
   10.0768    4.6290  -14.7761 C   0  0  0  0  0  0  0  0  0  0  0  0
    9.3228    3.4283  -14.8802 C   0  0  0  0  0  0  0  0  0  0  0  0
    9.4602    4.2814   -9.7543 H   0  0  0  0  0  0  0  0  0  0  0  0
    8.5806    5.0879   -8.4514 H   0  0  0  0  0  0  0  0  0  0  0  0
    7.6926    4.2073   -9.6694 H   0  0  0  0  0  0  0  0  0  0  0  0
   10.5252    6.6463  -10.2173 H   0  0  0  0  0  0  0  0  0  0  0  0
    9.5623    7.1640   -8.8482 H   0  0  0  0  0  0  0  0  0  0  0  0
   10.1976    9.0643  -10.3496 H   0  0  0  0  0  0  0  0  0  0  0  0
    8.4858    8.9234  -10.1122 H   0  0  0  0  0  0  0  0  0  0  0  0
   10.0868    8.1201  -12.5679 H   0  0  0  0  0  0  0  0  0  0  0  0
    8.8147    9.3030  -12.4859 H   0  0  0  0  0  0  0  0  0  0  0  0
    8.0859    7.1408  -13.5252 H   0  0  0  0  0  0  0  0  0  0  0  0
    7.0947    7.5742  -12.2468 H   0  0  0  0  0  0  0  0  0  0  0  0
    9.4338    5.5659  -12.1016 H   0  0  0  0  0  0  0  0  0  0  0  0
    6.4499    5.0698  -11.9281 H   0  0  0  0  0  0  0  0  0  0  0  0
    7.6701    3.8405  -11.7919 H   0  0  0  0  0  0  0  0  0  0  0  0
    7.6929    5.3708  -14.3955 H   0  0  0  0  0  0  0  0  0  0  0  0
    6.3190    4.4637  -14.0946 H   0  0  0  0  0  0  0  0  0  0  0  0
    5.7694    2.8284  -12.8031 H   0  0  0  0  0  0  0  0  0  0  0  0
    4.4856    0.8055  -12.7163 H   0  0  0  0  0  0  0  0  0  0  0  0
    5.0318   -1.1412  -14.1825 H   0  0  0  0  0  0  0  0  0  0  0  0
    7.0213   -1.0268  -15.6273 H   0  0  0  0  0  0  0  0  0  0  0  0
   11.5949    1.7012  -16.8076 H   0  0  0  0  0  0  0  0  0  0  0  0
   12.8774    3.8061  -16.5623 H   0  0  0  0  0  0  0  0  0  0  0  0
   11.3822    6.3365  -12.9348 H   0  0  0  0  0  0  0  0  0  0  0  0
   12.8859    5.4317  -13.0538 H   0  0  0  0  0  0  0  0  0  0  0  0
   12.9024    7.2107  -13.0396 H   0  0  0  0  0  0  0  0  0  0  0  0
    9.7112    5.4865  -14.2436 H   0  0  0  0  0  0  0  0  0  0  0  0
    7.6037    6.5514  -10.0949 H   0  0  0  0  0  0  0  0  0  0  0  0
  2  1  1  0
  3  2  1  0
  4  3  1  0
  5  4  1  0
  6  5  1  0
  7  2  1  0
  7  6  1  0
  8  7  1  0
  9  8  1  0
 10  9  1  0
 11 10  1  0
 12 11  2  0
 13 12  1  0
 14 13  2  0
 15 14  1  0
 16 11  1  0
 16 15  2  0
 17 16  1  0
 18 17  1  0
 19 18  1  0
 20 19  2  0
 21 20  1  0
 22 21  1  0
 22 23  1  1
 24 22  2  0
 25 21  2  0
 26 10  1  0
 26 18  2  0
 26 25  1  0
 27  1  1  0
 28  1  1  0
 29  1  1  0
 30  3  1  0
 31  3  1  0
 32  4  1  0
 33  4  1  0
 34  5  1  0
 35  5  1  0
 36  6  1  0
 37  6  1  0
  7 38  1  6
 39  8  1  0
 40  8  1  0
 41  9  1  0
 42  9  1  0
 43 12  1  0
 44 13  1  0
 45 14  1  0
 46 15  1  0
 47 19  1  0
 48 20  1  0
 49 23  1  0
 50 23  1  0
 51 23  1  0
 52 25  1  0
  2 53  1  1
M  CHG  1   2   1
M  END
>  <b_m_subgroup_collapsed>  (1267) 
0

>  <r_i_docking_score>  (1267) 
-6.3191778089269501

>  <s_m_subgroup_title>  (1267) 
glide-dock_SP_D22_pv

>  <s_m_subgroupid>  (1267) 
glide-dock_SP_D22_pv

>  <Molecule ChEMBL ID>  (1267) 
CHEMBL611207

>  <Standard Type>  (1267) 
Ki

>  <Standard Value>  (1267) 
2.2

>  <label>  (1267) 
1

$$$$
CHEMBL608728
     RDKit          3D

 44 47  0  0  1  0  0  0  0  0999 V2000
    3.6023   -0.6277  -14.5997 C   0  0  0  0  0  0  0  0  0  0  0  0
    4.7877   -0.2282  -14.1132 C   0  0  0  0  0  0  0  0  0  0  0  0
    5.0411    1.1045  -13.4468 C   0  0  0  0  0  0  0  0  0  0  0  0
    6.0862    1.7924  -14.1256 O   0  0  0  0  0  0  0  0  0  0  0  0
    6.5467    2.9726  -13.5866 C   0  0  0  0  0  0  0  0  0  0  0  0
    5.7051    3.7975  -12.8003 C   0  0  0  0  0  0  0  0  0  0  0  0
    6.1802    4.9959  -12.2471 C   0  0  0  0  0  0  0  0  0  0  0  0
    7.4958    5.4012  -12.4995 C   0  0  0  0  0  0  0  0  0  0  0  0
    8.3341    4.6046  -13.3013 C   0  0  0  0  0  0  0  0  0  0  0  0
    7.8922    3.3733  -13.8455 C   0  0  0  0  0  0  0  0  0  0  0  0
    8.8693    2.5748  -14.6415 C   0  0  0  0  0  0  0  0  0  0  0  0
    8.7965    1.1640  -14.7892 C   0  0  0  0  0  0  0  0  0  0  0  0
    9.7000    0.4277  -15.5749 C   0  0  0  0  0  0  0  0  0  0  0  0
   10.7432    1.0776  -16.2495 C   0  0  0  0  0  0  0  0  0  0  0  0
   10.9083    2.4638  -16.1085 C   0  0  0  0  0  0  0  0  0  0  0  0
    9.9939    3.1726  -15.2777 C   0  0  0  0  0  0  0  0  0  0  0  0
   10.1760    4.6816  -15.0160 C   0  0  1  0  0  0  0  0  0  0  0  0
    9.7377    5.0841  -13.5939 C   0  0  0  0  0  0  0  0  0  0  0  0
   11.5151    5.2227  -15.3731 N   0  0  1  0  0  0  0  0  0  0  0  0
   12.5832    4.9976  -14.3646 C   0  0  0  0  0  0  0  0  0  0  0  0
   11.8885    4.7734  -16.7274 C   0  0  0  0  0  0  0  0  0  0  0  0
   12.0484    3.2519  -16.7461 C   0  0  0  0  0  0  0  0  0  0  0  0
    2.7257    0.0024  -14.5419 H   0  0  0  0  0  0  0  0  0  0  0  0
    3.4929   -1.5964  -15.0677 H   0  0  0  0  0  0  0  0  0  0  0  0
    5.6372   -0.8907  -14.1945 H   0  0  0  0  0  0  0  0  0  0  0  0
    4.1105    1.6708  -13.4470 H   0  0  0  0  0  0  0  0  0  0  0  0
    5.3254    0.9270  -12.4078 H   0  0  0  0  0  0  0  0  0  0  0  0
    4.6769    3.5376  -12.6091 H   0  0  0  0  0  0  0  0  0  0  0  0
    5.5370    5.6106  -11.6329 H   0  0  0  0  0  0  0  0  0  0  0  0
    7.8495    6.3293  -12.0714 H   0  0  0  0  0  0  0  0  0  0  0  0
    8.0344    0.5978  -14.2776 H   0  0  0  0  0  0  0  0  0  0  0  0
    9.5858   -0.6438  -15.6548 H   0  0  0  0  0  0  0  0  0  0  0  0
   11.4366    0.5067  -16.8502 H   0  0  0  0  0  0  0  0  0  0  0  0
    9.4769    5.1653  -15.7004 H   0  0  0  0  0  0  0  0  0  0  0  0
    9.8025    6.1635  -13.4487 H   0  0  0  0  0  0  0  0  0  0  0  0
   10.3821    4.6242  -12.8445 H   0  0  0  0  0  0  0  0  0  0  0  0
   12.6387    3.9483  -14.0687 H   0  0  0  0  0  0  0  0  0  0  0  0
   12.4113    5.5929  -13.4675 H   0  0  0  0  0  0  0  0  0  0  0  0
   13.5553    5.2945  -14.7597 H   0  0  0  0  0  0  0  0  0  0  0  0
   11.1101    5.0750  -17.4302 H   0  0  0  0  0  0  0  0  0  0  0  0
   12.8078    5.2626  -17.0529 H   0  0  0  0  0  0  0  0  0  0  0  0
   12.9739    2.9677  -16.2466 H   0  0  0  0  0  0  0  0  0  0  0  0
   12.1604    2.9203  -17.7797 H   0  0  0  0  0  0  0  0  0  0  0  0
   11.4076    6.2245  -15.4322 H   0  0  0  0  0  0  0  0  0  0  0  0
  2  1  2  0
  3  2  1  0
  4  3  1  0
  5  4  1  0
  6  5  1  0
  7  6  2  0
  8  7  1  0
  9  8  2  0
 10  5  2  0
 10  9  1  0
 11 10  1  0
 12 11  1  0
 13 12  2  0
 14 13  1  0
 15 14  2  0
 16 11  2  0
 16 15  1  0
 17 16  1  0
 18  9  1  0
 18 17  1  0
 19 17  1  0
 20 19  1  0
 21 19  1  0
 22 15  1  0
 22 21  1  0
 23  1  1  0
 24  1  1  0
 25  2  1  0
 26  3  1  0
 27  3  1  0
 28  6  1  0
 29  7  1  0
 30  8  1  0
 31 12  1  0
 32 13  1  0
 33 14  1  0
 17 34  1  6
 35 18  1  0
 36 18  1  0
 37 20  1  0
 38 20  1  0
 39 20  1  0
 40 21  1  0
 41 21  1  0
 42 22  1  0
 43 22  1  0
 19 44  1  6
M  CHG  1  19   1
M  END
>  <b_m_subgroup_collapsed>  (1268) 
0

>  <r_i_docking_score>  (1268) 
-6.3184074268080597

>  <s_m_subgroup_title>  (1268) 
glide-dock_SP_D22_pv

>  <s_m_subgroupid>  (1268) 
glide-dock_SP_D22_pv

>  <Molecule ChEMBL ID>  (1268) 
CHEMBL608728

>  <Standard Type>  (1268) 
Ki

>  <Standard Value>  (1268) 
10000.0

>  <label>  (1268) 
0

$$$$
CHEMBL607559
     RDKit          3D

 42 46  0  0  1  0  0  0  0  0999 V2000
   11.9152    8.7279  -10.1710 C   0  0  0  0  0  0  0  0  0  0  0  0
   10.9171    7.7729  -10.7160 C   0  0  0  0  0  0  0  0  0  0  0  0
    9.6752    7.4095  -10.2651 C   0  0  0  0  0  0  0  0  0  0  0  0
    9.2192    6.3880  -11.1585 C   0  0  0  0  0  0  0  0  0  0  0  0
    8.0834    5.5622  -11.2553 C   0  0  0  0  0  0  0  0  0  0  0  0
    7.9865    4.5730  -12.2477 C   0  0  0  0  0  0  0  0  0  0  0  0
    9.0283    4.3985  -13.1816 C   0  0  0  0  0  0  0  0  0  0  0  0
   10.1520    5.2593  -13.1749 C   0  0  0  0  0  0  0  0  0  0  0  0
   10.2227    6.2276  -12.1445 C   0  0  0  0  0  0  0  0  0  0  0  0
   11.2561    7.1037  -11.8603 O   0  0  0  0  0  0  0  0  0  0  0  0
   11.1730    5.0906  -14.2347 C   0  0  0  0  0  0  0  0  0  0  0  0
   12.0193    6.1406  -14.6696 C   0  0  0  0  0  0  0  0  0  0  0  0
   12.8944    6.0066  -15.7629 C   0  0  0  0  0  0  0  0  0  0  0  0
   12.9307    4.8122  -16.4956 C   0  0  0  0  0  0  0  0  0  0  0  0
   12.1140    3.7329  -16.1164 C   0  0  0  0  0  0  0  0  0  0  0  0
   11.2879    3.8821  -14.9706 C   0  0  0  0  0  0  0  0  0  0  0  0
   10.4102    2.7240  -14.4495 C   0  0  1  0  0  0  0  0  0  0  0  0
    8.9800    3.2324  -14.1513 C   0  0  0  0  0  0  0  0  0  0  0  0
   10.4832    1.4663  -15.2485 N   0  0  1  0  0  0  0  0  0  0  0  0
    9.4477    0.4449  -14.9554 C   0  0  0  0  0  0  0  0  0  0  0  0
   10.6800    1.7068  -16.6843 C   0  0  0  0  0  0  0  0  0  0  0  0
   12.0198    2.4148  -16.8629 C   0  0  0  0  0  0  0  0  0  0  0  0
   11.5738    9.1586   -9.2294 H   0  0  0  0  0  0  0  0  0  0  0  0
   12.0861    9.5430  -10.8685 H   0  0  0  0  0  0  0  0  0  0  0  0
   12.8691    8.2330   -9.9890 H   0  0  0  0  0  0  0  0  0  0  0  0
    9.1377    7.7766   -9.4024 H   0  0  0  0  0  0  0  0  0  0  0  0
    7.2860    5.6906  -10.5390 H   0  0  0  0  0  0  0  0  0  0  0  0
    7.1179    3.9295  -12.2658 H   0  0  0  0  0  0  0  0  0  0  0  0
   11.9814    7.1028  -14.1846 H   0  0  0  0  0  0  0  0  0  0  0  0
   13.5155    6.8392  -16.0593 H   0  0  0  0  0  0  0  0  0  0  0  0
   13.5797    4.7268  -17.3555 H   0  0  0  0  0  0  0  0  0  0  0  0
   10.8367    2.4417  -13.4858 H   0  0  0  0  0  0  0  0  0  0  0  0
    8.3546    2.4553  -13.7179 H   0  0  0  0  0  0  0  0  0  0  0  0
    8.4878    3.5643  -15.0627 H   0  0  0  0  0  0  0  0  0  0  0  0
    8.4747    0.7392  -15.3482 H   0  0  0  0  0  0  0  0  0  0  0  0
    9.3514    0.2794  -13.8816 H   0  0  0  0  0  0  0  0  0  0  0  0
    9.7136   -0.5125  -15.4074 H   0  0  0  0  0  0  0  0  0  0  0  0
   10.6935    0.7601  -17.2289 H   0  0  0  0  0  0  0  0  0  0  0  0
    9.8585    2.3013  -17.0863 H   0  0  0  0  0  0  0  0  0  0  0  0
   12.1863    2.6040  -17.9233 H   0  0  0  0  0  0  0  0  0  0  0  0
   12.8399    1.7728  -16.5422 H   0  0  0  0  0  0  0  0  0  0  0  0
   11.3524    1.0423  -14.9555 H   0  0  0  0  0  0  0  0  0  0  0  0
  2  1  1  0
  3  2  2  0
  4  3  1  0
  5  4  2  0
  6  5  1  0
  7  6  2  0
  8  7  1  0
  9  4  1  0
  9  8  2  0
 10  2  1  0
 10  9  1  0
 11  8  1  0
 12 11  2  0
 13 12  1  0
 14 13  2  0
 15 14  1  0
 16 11  1  0
 16 15  2  0
 17 16  1  0
 18  7  1  0
 18 17  1  0
 19 17  1  0
 20 19  1  0
 21 19  1  0
 22 15  1  0
 22 21  1  0
 23  1  1  0
 24  1  1  0
 25  1  1  0
 26  3  1  0
 27  5  1  0
 28  6  1  0
 29 12  1  0
 30 13  1  0
 31 14  1  0
 17 32  1  1
 33 18  1  0
 34 18  1  0
 35 20  1  0
 36 20  1  0
 37 20  1  0
 38 21  1  0
 39 21  1  0
 40 22  1  0
 41 22  1  0
 19 42  1  1
M  CHG  1  19   1
M  END
>  <b_m_subgroup_collapsed>  (1269) 
0

>  <r_i_docking_score>  (1269) 
-6.3120191311320104

>  <s_m_subgroup_title>  (1269) 
glide-dock_SP_D22_pv

>  <s_m_subgroupid>  (1269) 
glide-dock_SP_D22_pv

>  <Molecule ChEMBL ID>  (1269) 
CHEMBL607559

>  <Standard Type>  (1269) 
Ki

>  <Standard Value>  (1269) 
10000.0

>  <label>  (1269) 
0

$$$$
CHEMBL4584746
     RDKit          3D

 46 49  0  0  1  0  0  0  0  0999 V2000
    5.1589   -1.8454  -15.3770 C   0  0  0  0  0  0  0  0  0  0  0  0
    5.2077   -0.5359  -14.6029 C   0  0  0  0  0  0  0  0  0  0  0  0
    4.2740   -0.2393  -13.8538 O   0  0  0  0  0  0  0  0  0  0  0  0
    6.3110    0.2164  -14.7724 N   0  0  0  0  0  0  0  0  0  0  0  0
    6.5558    1.5043  -14.2319 C   0  0  0  0  0  0  0  0  0  0  0  0
    5.6788    2.1689  -13.4798 N   0  0  0  0  0  0  0  0  0  0  0  0
    6.2319    3.3995  -13.1952 C   0  0  0  0  0  0  0  0  0  0  0  0
    5.5196    4.4451  -12.4156 C   0  0  0  0  0  0  0  0  0  0  0  0
    7.5057    3.3746  -13.7231 C   0  0  0  0  0  0  0  0  0  0  0  0
    8.5762    4.3500  -13.5172 C   0  0  0  0  0  0  0  0  0  0  0  0
    8.5665    5.4492  -12.6998 C   0  0  0  0  0  0  0  0  0  0  0  0
    9.8231    6.0209  -12.6456 N   0  0  0  0  0  0  0  0  0  0  0  0
   10.1716    7.3993  -11.6616 S   0  0  0  0  0  0  0  0  0  0  0  0
    9.2866    8.4618  -12.1648 O   0  0  0  0  0  0  0  0  0  0  0  0
   11.6335    7.5592  -11.6658 O   0  0  0  0  0  0  0  0  0  0  0  0
    9.6844    7.0161   -9.9815 C   0  0  0  0  0  0  0  0  0  0  0  0
    9.3054    5.7177   -9.5849 C   0  0  0  0  0  0  0  0  0  0  0  0
    8.8879    5.4967   -8.2588 C   0  0  0  0  0  0  0  0  0  0  0  0
    8.8863    6.5579   -7.3295 C   0  0  0  0  0  0  0  0  0  0  0  0
    9.2866    7.8469   -7.7229 C   0  0  0  0  0  0  0  0  0  0  0  0
    9.6833    8.0775   -9.0546 C   0  0  0  0  0  0  0  0  0  0  0  0
   10.6576    5.3769  -13.5557 C   0  0  0  0  0  0  0  0  0  0  0  0
   11.9904    5.6042  -13.9646 C   0  0  0  0  0  0  0  0  0  0  0  0
   12.5651    4.7968  -14.9613 C   0  0  0  0  0  0  0  0  0  0  0  0
   11.8208    3.7521  -15.5320 C   0  0  0  0  0  0  0  0  0  0  0  0
   12.3689    2.9762  -16.4972 F   0  0  0  0  0  0  0  0  0  0  0  0
   10.5044    3.5081  -15.1055 C   0  0  0  0  0  0  0  0  0  0  0  0
    9.8790    4.3200  -14.1254 C   0  0  0  0  0  0  0  0  0  0  0  0
    7.6871    2.1703  -14.4217 N   0  0  0  0  0  0  0  0  0  0  0  0
    5.6869   -2.6246  -14.8268 H   0  0  0  0  0  0  0  0  0  0  0  0
    4.1275   -2.1695  -15.5243 H   0  0  0  0  0  0  0  0  0  0  0  0
    5.6165   -1.7383  -16.3604 H   0  0  0  0  0  0  0  0  0  0  0  0
    7.0343   -0.1628  -15.3640 H   0  0  0  0  0  0  0  0  0  0  0  0
    5.9895    4.5929  -11.4478 H   0  0  0  0  0  0  0  0  0  0  0  0
    5.5256    5.3983  -12.9460 H   0  0  0  0  0  0  0  0  0  0  0  0
    4.4875    4.1632  -12.2470 H   0  0  0  0  0  0  0  0  0  0  0  0
    7.7764    5.8555  -12.0844 H   0  0  0  0  0  0  0  0  0  0  0  0
    9.3238    4.8840  -10.2715 H   0  0  0  0  0  0  0  0  0  0  0  0
    8.5710    4.5097   -7.9572 H   0  0  0  0  0  0  0  0  0  0  0  0
    8.5526    6.3848   -6.3164 H   0  0  0  0  0  0  0  0  0  0  0  0
    9.2708    8.6595   -7.0107 H   0  0  0  0  0  0  0  0  0  0  0  0
    9.9723    9.0702   -9.3694 H   0  0  0  0  0  0  0  0  0  0  0  0
   12.5828    6.4017  -13.5418 H   0  0  0  0  0  0  0  0  0  0  0  0
   13.5787    4.9817  -15.2830 H   0  0  0  0  0  0  0  0  0  0  0  0
    9.9539    2.6993  -15.5604 H   0  0  0  0  0  0  0  0  0  0  0  0
    4.7597    1.8309  -13.2253 H   0  0  0  0  0  0  0  0  0  0  0  0
  2  1  1  0
  3  2  2  0
  4  2  1  0
  5  4  1  0
  6  5  1  0
  7  6  1  0
  8  7  1  0
  9  7  2  0
 10  9  1  0
 11 10  2  0
 12 11  1  0
 13 12  1  0
 14 13  2  0
 15 13  2  0
 16 13  1  0
 17 16  2  0
 18 17  1  0
 19 18  2  0
 20 19  1  0
 21 16  1  0
 21 20  2  0
 22 12  1  0
 23 22  2  0
 24 23  1  0
 25 24  2  0
 26 25  1  0
 27 25  1  0
 28 10  1  0
 28 22  1  0
 28 27  2  0
 29  5  2  0
 29  9  1  0
 30  1  1  0
 31  1  1  0
 32  1  1  0
 33  4  1  0
 34  8  1  0
 35  8  1  0
 36  8  1  0
 37 11  1  0
 38 17  1  0
 39 18  1  0
 40 19  1  0
 41 20  1  0
 42 21  1  0
 43 23  1  0
 44 24  1  0
 45 27  1  0
 46  6  1  0
M  END
>  <b_m_subgroup_collapsed>  (1270) 
0

>  <r_i_docking_score>  (1270) 
-6.3096114558781702

>  <s_m_subgroup_title>  (1270) 
glide-dock_SP_D22_pv

>  <s_m_subgroupid>  (1270) 
glide-dock_SP_D22_pv

>  <Molecule ChEMBL ID>  (1270) 
CHEMBL4584746

>  <Standard Type>  (1270) 
Ki

>  <Standard Value>  (1270) 
10000.0

>  <label>  (1270) 
0

$$$$
CHEMBL380124
     RDKit          3D

 22 23  0  0  1  0  0  0  0  0999 V2000
   11.1696    7.9482  -10.4084 O   0  0  0  0  0  0  0  0  0  0  0  0
   10.7731    8.0263   -9.2474 C   0  0  0  0  0  0  0  0  0  0  0  0
   11.6870    8.2399   -8.0546 C   0  0  0  0  0  0  0  0  0  0  0  0
   10.6936    8.7017   -6.9974 C   0  0  2  0  0  0  0  0  0  0  0  0
   11.1581    8.4698   -5.5670 C   0  0  0  0  0  0  0  0  0  0  0  0
   11.4931    9.5727   -4.7524 C   0  0  0  0  0  0  0  0  0  0  0  0
   11.9560    9.3725   -3.4375 C   0  0  0  0  0  0  0  0  0  0  0  0
   12.0861    8.0688   -2.9259 C   0  0  0  0  0  0  0  0  0  0  0  0
   11.7470    6.9655   -3.7309 C   0  0  0  0  0  0  0  0  0  0  0  0
   11.2859    7.1623   -5.0476 C   0  0  0  0  0  0  0  0  0  0  0  0
    9.3866    8.0108   -7.4060 C   0  0  0  0  0  0  0  0  0  0  0  0
    9.5090    7.9492   -8.8194 O   0  0  0  0  0  0  0  0  0  0  0  0
   12.4715    8.9716   -8.2497 H   0  0  0  0  0  0  0  0  0  0  0  0
   12.1433    7.2859   -7.7920 H   0  0  0  0  0  0  0  0  0  0  0  0
   10.5460    9.7726   -7.1323 H   0  0  0  0  0  0  0  0  0  0  0  0
   11.4027   10.5784   -5.1345 H   0  0  0  0  0  0  0  0  0  0  0  0
   12.2091   10.2191   -2.8165 H   0  0  0  0  0  0  0  0  0  0  0  0
   12.4367    7.9167   -1.9156 H   0  0  0  0  0  0  0  0  0  0  0  0
   11.8415    5.9631   -3.3384 H   0  0  0  0  0  0  0  0  0  0  0  0
   11.0398    6.3029   -5.6551 H   0  0  0  0  0  0  0  0  0  0  0  0
    9.3225    6.9939   -7.0184 H   0  0  0  0  0  0  0  0  0  0  0  0
    8.5003    8.5615   -7.0888 H   0  0  0  0  0  0  0  0  0  0  0  0
  2  1  2  0
  3  2  1  0
  4  3  1  0
  5  4  1  0
  6  5  2  0
  7  6  1  0
  8  7  2  0
  9  8  1  0
 10  5  1  0
 10  9  2  0
 11  4  1  0
 12  2  1  0
 12 11  1  0
 13  3  1  0
 14  3  1  0
  4 15  1  1
 16  6  1  0
 17  7  1  0
 18  8  1  0
 19  9  1  0
 20 10  1  0
 21 11  1  0
 22 11  1  0
M  END
>  <b_m_subgroup_collapsed>  (1271) 
0

>  <r_i_docking_score>  (1271) 
-6.3095857179597896

>  <s_m_subgroup_title>  (1271) 
glide-dock_SP_D22_pv

>  <s_m_subgroupid>  (1271) 
glide-dock_SP_D22_pv

>  <Molecule ChEMBL ID>  (1271) 
CHEMBL380124

>  <Standard Type>  (1271) 
Ki

>  <Standard Value>  (1271) 
10000.0

>  <label>  (1271) 
0

$$$$
CHEMBL4204595
     RDKit          3D

 33 35  0  0  1  0  0  0  0  0999 V2000
   11.8143    6.7308   -3.0317 C   0  0  0  0  0  0  0  0  0  0  0  0
   11.2871    6.6904   -4.4785 C   0  0  0  0  0  0  0  0  0  0  0  0
   11.3756    7.9743   -5.1651 N   0  0  0  0  0  0  0  0  0  0  0  0
   11.9213    9.1117   -4.6964 C   0  0  0  0  0  0  0  0  0  0  0  0
   11.9523   10.1143   -5.5597 N   0  0  0  0  0  0  0  0  0  0  0  0
   11.3741    9.5814   -6.7008 C   0  0  0  0  0  0  0  0  0  0  0  0
   10.9689    8.2901   -6.4650 C   0  0  0  0  0  0  0  0  0  0  0  0
   10.2434    7.3938   -7.3577 C   0  0  0  0  0  0  0  0  0  0  0  0
    9.1698    6.5978   -7.0475 C   0  0  0  0  0  0  0  0  0  0  0  0
    8.6825    5.9974   -8.1909 N   0  0  0  0  0  0  0  0  0  0  0  0
    9.4142    6.3826   -9.2872 C   0  0  0  0  0  0  0  0  0  0  0  0
    9.2859    6.0900  -10.6544 C   0  0  0  0  0  0  0  0  0  0  0  0
   10.2368    6.5914  -11.5594 C   0  0  0  0  0  0  0  0  0  0  0  0
   11.3215    7.3723  -11.0849 C   0  0  0  0  0  0  0  0  0  0  0  0
   12.3807    7.7732  -11.8670 O   0  0  0  0  0  0  0  0  0  0  0  0
   12.4311    7.3377  -13.2173 C   0  0  0  0  0  0  0  0  0  0  0  0
   11.3781    7.7252   -9.7191 C   0  0  0  0  0  0  0  0  0  0  0  0
   10.4392    7.2329   -8.7807 C   0  0  0  0  0  0  0  0  0  0  0  0
   11.6865    5.7724   -2.5373 H   0  0  0  0  0  0  0  0  0  0  0  0
   12.8790    6.9663   -3.0061 H   0  0  0  0  0  0  0  0  0  0  0  0
   11.2866    7.4707   -2.4291 H   0  0  0  0  0  0  0  0  0  0  0  0
   10.2537    6.3507   -4.4885 H   0  0  0  0  0  0  0  0  0  0  0  0
   11.8567    5.9626   -5.0574 H   0  0  0  0  0  0  0  0  0  0  0  0
   12.3363    9.2157   -3.7049 H   0  0  0  0  0  0  0  0  0  0  0  0
   11.2781   10.1708   -7.5976 H   0  0  0  0  0  0  0  0  0  0  0  0
    8.6643    6.4510   -6.1071 H   0  0  0  0  0  0  0  0  0  0  0  0
    7.8201    5.4718   -8.2167 H   0  0  0  0  0  0  0  0  0  0  0  0
    8.4690    5.4740  -11.0004 H   0  0  0  0  0  0  0  0  0  0  0  0
   10.1420    6.3236  -12.6006 H   0  0  0  0  0  0  0  0  0  0  0  0
   13.3295    7.7376  -13.6873 H   0  0  0  0  0  0  0  0  0  0  0  0
   12.4782    6.2497  -13.2831 H   0  0  0  0  0  0  0  0  0  0  0  0
   11.5781    7.7000  -13.7900 H   0  0  0  0  0  0  0  0  0  0  0  0
   12.1916    8.3460   -9.3734 H   0  0  0  0  0  0  0  0  0  0  0  0
  2  1  1  0
  3  2  1  0
  4  3  1  0
  5  4  2  0
  6  5  1  0
  7  3  1  0
  7  6  2  0
  8  7  1  0
  9  8  2  0
 10  9  1  0
 11 10  1  0
 12 11  2  0
 13 12  1  0
 14 13  2  0
 15 14  1  0
 16 15  1  0
 17 14  1  0
 18  8  1  0
 18 11  1  0
 18 17  2  0
 19  1  1  0
 20  1  1  0
 21  1  1  0
 22  2  1  0
 23  2  1  0
 24  4  1  0
 25  6  1  0
 26  9  1  0
 27 10  1  0
 28 12  1  0
 29 13  1  0
 30 16  1  0
 31 16  1  0
 32 16  1  0
 33 17  1  0
M  END
>  <b_m_subgroup_collapsed>  (1272) 
0

>  <r_i_docking_score>  (1272) 
-6.30489143692746

>  <s_m_subgroup_title>  (1272) 
glide-dock_SP_D22_pv

>  <s_m_subgroupid>  (1272) 
glide-dock_SP_D22_pv

>  <Molecule ChEMBL ID>  (1272) 
CHEMBL4204595

>  <Standard Type>  (1272) 
Ki

>  <Standard Value>  (1272) 
10000.0

>  <label>  (1272) 
0

$$$$
CHEMBL503958
     RDKit          3D

 37 39  0  0  1  0  0  0  0  0999 V2000
    8.8860    7.7073  -10.7466 O   0  0  0  0  0  0  0  0  0  0  0  0
    9.2643    6.8648  -11.7529 C   0  0  0  0  0  0  0  0  0  0  0  0
   10.5725    6.9723  -12.2469 C   0  0  0  0  0  0  0  0  0  0  0  0
   11.0130    6.1649  -13.3173 C   0  0  0  0  0  0  0  0  0  0  0  0
   10.1483    5.2009  -13.8945 C   0  0  0  0  0  0  0  0  0  0  0  0
    8.8297    5.0951  -13.3764 C   0  0  0  0  0  0  0  0  0  0  0  0
    8.3866    5.9143  -12.3148 C   0  0  0  0  0  0  0  0  0  0  0  0
    7.1101    5.7723  -11.8469 O   0  0  0  0  0  0  0  0  0  0  0  0
   10.6365    4.3036  -15.0513 C   0  0  1  0  0  0  0  0  0  0  0  0
    9.7209    3.1055  -15.3334 C   0  0  0  0  0  0  0  0  0  0  0  0
    9.6614    2.0725  -14.3766 C   0  0  0  0  0  0  0  0  0  0  0  0
    8.8701    0.9301  -14.5986 C   0  0  0  0  0  0  0  0  0  0  0  0
    8.1259    0.8021  -15.7837 C   0  0  0  0  0  0  0  0  0  0  0  0
    8.1712    1.8269  -16.7455 C   0  0  0  0  0  0  0  0  0  0  0  0
    8.9617    2.9723  -16.5224 C   0  0  0  0  0  0  0  0  0  0  0  0
   10.9978    5.1012  -16.3326 C   0  0  0  0  0  0  0  0  0  0  0  0
   12.2899    5.8220  -16.2730 N   0  0  0  0  0  0  0  0  0  0  0  0
   12.4333    6.9104  -15.2887 C   0  0  0  0  0  0  0  0  0  0  0  0
   12.4098    6.3982  -13.8469 C   0  0  0  0  0  0  0  0  0  0  0  0
    7.9367    7.7723  -10.5756 H   0  0  0  0  0  0  0  0  0  0  0  0
   11.2308    7.7103  -11.8116 H   0  0  0  0  0  0  0  0  0  0  0  0
    8.1283    4.3839  -13.7862 H   0  0  0  0  0  0  0  0  0  0  0  0
    6.8627    6.4064  -11.1762 H   0  0  0  0  0  0  0  0  0  0  0  0
   11.5589    3.8379  -14.7004 H   0  0  0  0  0  0  0  0  0  0  0  0
   10.2215    2.1632  -13.4564 H   0  0  0  0  0  0  0  0  0  0  0  0
    8.8317    0.1574  -13.8469 H   0  0  0  0  0  0  0  0  0  0  0  0
    7.5206   -0.0778  -15.9502 H   0  0  0  0  0  0  0  0  0  0  0  0
    7.5972    1.7325  -17.6551 H   0  0  0  0  0  0  0  0  0  0  0  0
    8.9638    3.7410  -17.2800 H   0  0  0  0  0  0  0  0  0  0  0  0
   11.1357    4.4061  -17.1613 H   0  0  0  0  0  0  0  0  0  0  0  0
   10.1875    5.7723  -16.6192 H   0  0  0  0  0  0  0  0  0  0  0  0
   13.0207    5.1460  -16.1006 H   0  0  0  0  0  0  0  0  0  0  0  0
   13.4035    7.3719  -15.4769 H   0  0  0  0  0  0  0  0  0  0  0  0
   11.6860    7.6877  -15.4469 H   0  0  0  0  0  0  0  0  0  0  0  0
   12.9065    7.1294  -13.2090 H   0  0  0  0  0  0  0  0  0  0  0  0
   12.9776    5.4735  -13.7531 H   0  0  0  0  0  0  0  0  0  0  0  0
   12.4497    6.2238  -17.1865 H   0  0  0  0  0  0  0  0  0  0  0  0
  2  1  1  0
  3  2  2  0
  4  3  1  0
  5  4  2  0
  6  5  1  0
  7  2  1  0
  7  6  2  0
  8  7  1  0
  9  5  1  0
 10  9  1  0
 11 10  2  0
 12 11  1  0
 13 12  2  0
 14 13  1  0
 15 10  1  0
 15 14  2  0
 16  9  1  0
 17 16  1  0
 18 17  1  0
 19  4  1  0
 19 18  1  0
 20  1  1  0
 21  3  1  0
 22  6  1  0
 23  8  1  0
  9 24  1  1
 25 11  1  0
 26 12  1  0
 27 13  1  0
 28 14  1  0
 29 15  1  0
 30 16  1  0
 31 16  1  0
 32 17  1  0
 33 18  1  0
 34 18  1  0
 35 19  1  0
 36 19  1  0
 37 17  1  0
M  CHG  1  17   1
M  END
>  <b_m_subgroup_collapsed>  (1273) 
0

>  <r_i_docking_score>  (1273) 
-6.2916018541223497

>  <s_m_subgroup_title>  (1273) 
glide-dock_SP_D22_pv

>  <s_m_subgroupid>  (1273) 
glide-dock_SP_D22_pv

>  <Molecule ChEMBL ID>  (1273) 
CHEMBL503958

>  <Standard Type>  (1273) 
Ki

>  <Standard Value>  (1273) 
10000.0

>  <label>  (1273) 
0

$$$$
CHEMBL44739
     RDKit          3D

 42 44  0  0  1  0  0  0  0  0999 V2000
   12.0860    6.5752   -2.2469 I   0  0  0  0  0  0  0  0  0  0  0  0
   11.7835    7.5700   -4.0361 C   0  0  0  0  0  0  0  0  0  0  0  0
   12.0871    8.9348   -4.1881 C   0  0  0  0  0  0  0  0  0  0  0  0
   12.0006    9.5171   -5.4666 C   0  0  0  0  0  0  0  0  0  0  0  0
   11.6380    8.7387   -6.5852 C   0  0  0  0  0  0  0  0  0  0  0  0
   11.6860    9.3582   -7.8089 O   0  0  0  0  0  0  0  0  0  0  0  0
   11.4713    8.6066   -8.9967 C   0  0  0  0  0  0  0  0  0  0  0  0
    9.9954    8.7328   -9.3979 C   0  0  1  0  0  0  0  0  0  0  0  0
    9.7463    8.5197  -10.8924 C   0  0  0  0  0  0  0  0  0  0  0  0
    9.6750    7.0520  -11.2949 C   0  0  0  0  0  0  0  0  0  0  0  0
    8.6149    6.3491  -10.5357 N   0  0  1  0  0  0  0  0  0  0  0  0
    8.3523    4.9828  -11.0486 C   0  0  0  0  0  0  0  0  0  0  0  0
    7.6820    5.0130  -12.4152 C   0  0  0  0  0  0  0  0  0  0  0  0
    8.4806    5.0519  -13.7049 C   0  0  0  0  0  0  0  0  0  0  0  0
    7.7404    3.8044  -13.3229 C   0  0  0  0  0  0  0  0  0  0  0  0
    8.8875    6.4114   -9.0776 C   0  0  0  0  0  0  0  0  0  0  0  0
    9.0111    7.8789   -8.5936 C   0  0  0  0  0  0  0  0  0  0  0  0
   11.2860    7.3805   -6.3953 C   0  0  0  0  0  0  0  0  0  0  0  0
   11.3320    6.8124   -5.1206 C   0  0  0  0  0  0  0  0  0  0  0  0
   12.4256    9.5183   -3.3439 H   0  0  0  0  0  0  0  0  0  0  0  0
   12.2668   10.5549   -5.6053 H   0  0  0  0  0  0  0  0  0  0  0  0
   12.0862    9.0902   -9.7559 H   0  0  0  0  0  0  0  0  0  0  0  0
   11.8262    7.5775   -8.9641 H   0  0  0  0  0  0  0  0  0  0  0  0
    9.7371    9.7723   -9.2070 H   0  0  0  0  0  0  0  0  0  0  0  0
    8.8235    9.0217  -11.1887 H   0  0  0  0  0  0  0  0  0  0  0  0
   10.5513    8.9724  -11.4469 H   0  0  0  0  0  0  0  0  0  0  0  0
   10.6391    6.5697  -11.1339 H   0  0  0  0  0  0  0  0  0  0  0  0
    9.4778    7.0213  -12.3629 H   0  0  0  0  0  0  0  0  0  0  0  0
    9.2798    4.4092  -11.0935 H   0  0  0  0  0  0  0  0  0  0  0  0
    7.6864    4.4576  -10.3631 H   0  0  0  0  0  0  0  0  0  0  0  0
    6.7393    5.5594  -12.4222 H   0  0  0  0  0  0  0  0  0  0  0  0
    8.0862    5.6361  -14.5310 H   0  0  0  0  0  0  0  0  0  0  0  0
    9.5664    5.0157  -13.6416 H   0  0  0  0  0  0  0  0  0  0  0  0
    8.3780    2.9723  -13.0469 H   0  0  0  0  0  0  0  0  0  0  0  0
    6.8464    3.5502  -13.8882 H   0  0  0  0  0  0  0  0  0  0  0  0
    9.7992    5.8534   -8.8619 H   0  0  0  0  0  0  0  0  0  0  0  0
    8.0840    5.9204   -8.5299 H   0  0  0  0  0  0  0  0  0  0  0  0
    9.1572    7.9406   -7.5214 H   0  0  0  0  0  0  0  0  0  0  0  0
    8.0862    8.4043   -8.7080 H   0  0  0  0  0  0  0  0  0  0  0  0
   11.0157    6.7294   -7.2069 H   0  0  0  0  0  0  0  0  0  0  0  0
   11.0917    5.7724   -4.9829 H   0  0  0  0  0  0  0  0  0  0  0  0
    7.7498    6.8839  -10.6466 H   0  0  0  0  0  0  0  0  0  0  0  0
  2  1  1  0
  3  2  1  0
  4  3  2  0
  5  4  1  0
  6  5  1  0
  7  6  1  0
  8  7  1  0
  9  8  1  0
 10  9  1  0
 11 10  1  0
 12 11  1  0
 13 12  1  0
 14 13  1  0
 15 13  1  0
 15 14  1  0
 16 11  1  0
 17  8  1  0
 17 16  1  0
 18  5  2  0
 19  2  2  0
 19 18  1  0
 20  3  1  0
 21  4  1  0
 22  7  1  0
 23  7  1  0
  8 24  1  1
 25  9  1  0
 26  9  1  0
 27 10  1  0
 28 10  1  0
 29 12  1  0
 30 12  1  0
 31 13  1  0
 32 14  1  0
 33 14  1  0
 34 15  1  0
 35 15  1  0
 36 16  1  0
 37 16  1  0
 38 17  1  0
 39 17  1  0
 40 18  1  0
 41 19  1  0
 11 42  1  1
M  CHG  1  11   1
M  END
>  <b_m_subgroup_collapsed>  (1274) 
0

>  <r_i_docking_score>  (1274) 
-6.2894885894219899

>  <s_m_subgroup_title>  (1274) 
glide-dock_SP_D22_pv

>  <s_m_subgroupid>  (1274) 
glide-dock_SP_D22_pv

>  <Molecule ChEMBL ID>  (1274) 
CHEMBL44739

>  <Standard Type>  (1274) 
Ki

>  <Standard Value>  (1274) 
10000.0

>  <label>  (1274) 
0

$$$$
CHEMBL4583507
     RDKit          3D

 33 35  0  0  1  0  0  0  0  0999 V2000
   11.8161    6.7293   -3.0167 C   0  0  0  0  0  0  0  0  0  0  0  0
   11.2918    6.6846   -4.4646 C   0  0  0  0  0  0  0  0  0  0  0  0
   11.3898    7.9648   -5.1535 N   0  0  0  0  0  0  0  0  0  0  0  0
   11.9480    9.0950   -4.6861 C   0  0  0  0  0  0  0  0  0  0  0  0
   11.9743   10.1041   -5.5420 N   0  0  0  0  0  0  0  0  0  0  0  0
   11.3831    9.5796   -6.6782 C   0  0  0  0  0  0  0  0  0  0  0  0
   10.9759    8.2865   -6.4499 C   0  0  0  0  0  0  0  0  0  0  0  0
   10.2472    7.3955   -7.3490 C   0  0  0  0  0  0  0  0  0  0  0  0
    9.1626    6.6128   -7.0459 C   0  0  0  0  0  0  0  0  0  0  0  0
    8.6695    6.0221   -8.1901 N   0  0  0  0  0  0  0  0  0  0  0  0
    9.4137    6.3936   -9.2824 C   0  0  0  0  0  0  0  0  0  0  0  0
    9.2858    6.1040  -10.6493 C   0  0  0  0  0  0  0  0  0  0  0  0
   10.2344    6.6042  -11.5553 C   0  0  0  0  0  0  0  0  0  0  0  0
   11.3273    7.3725  -11.0829 C   0  0  0  0  0  0  0  0  0  0  0  0
   12.3780    7.7728  -11.8767 O   0  0  0  0  0  0  0  0  0  0  0  0
   12.3948    7.3706  -13.2365 C   0  0  0  0  0  0  0  0  0  0  0  0
   11.3987    7.7078   -9.7107 C   0  0  0  0  0  0  0  0  0  0  0  0
   12.4357    8.4561   -9.2691 F   0  0  0  0  0  0  0  0  0  0  0  0
   10.4480    7.2303   -8.7730 C   0  0  0  0  0  0  0  0  0  0  0  0
   11.6955    5.7721   -2.5177 H   0  0  0  0  0  0  0  0  0  0  0  0
   12.8798    6.9700   -2.9901 H   0  0  0  0  0  0  0  0  0  0  0  0
   11.2862    7.4703   -2.4173 H   0  0  0  0  0  0  0  0  0  0  0  0
   10.2566    6.3479   -4.4771 H   0  0  0  0  0  0  0  0  0  0  0  0
   11.8609    5.9541   -5.0377 H   0  0  0  0  0  0  0  0  0  0  0  0
   12.3753    9.1927   -3.6982 H   0  0  0  0  0  0  0  0  0  0  0  0
   11.2861   10.1721   -7.5706 H   0  0  0  0  0  0  0  0  0  0  0  0
    8.6542    6.4664   -6.1069 H   0  0  0  0  0  0  0  0  0  0  0  0
    7.8019    5.5062   -8.2203 H   0  0  0  0  0  0  0  0  0  0  0  0
    8.4610    5.4999  -10.9983 H   0  0  0  0  0  0  0  0  0  0  0  0
   10.1301    6.3456  -12.5972 H   0  0  0  0  0  0  0  0  0  0  0  0
   13.2889    7.7671  -13.7160 H   0  0  0  0  0  0  0  0  0  0  0  0
   12.4270    6.2846  -13.3313 H   0  0  0  0  0  0  0  0  0  0  0  0
   11.5379    7.7621  -13.7826 H   0  0  0  0  0  0  0  0  0  0  0  0
  2  1  1  0
  3  2  1  0
  4  3  1  0
  5  4  2  0
  6  5  1  0
  7  3  1  0
  7  6  2  0
  8  7  1  0
  9  8  2  0
 10  9  1  0
 11 10  1  0
 12 11  2  0
 13 12  1  0
 14 13  2  0
 15 14  1  0
 16 15  1  0
 17 14  1  0
 18 17  1  0
 19  8  1  0
 19 11  1  0
 19 17  2  0
 20  1  1  0
 21  1  1  0
 22  1  1  0
 23  2  1  0
 24  2  1  0
 25  4  1  0
 26  6  1  0
 27  9  1  0
 28 10  1  0
 29 12  1  0
 30 13  1  0
 31 16  1  0
 32 16  1  0
 33 16  1  0
M  END
>  <b_m_subgroup_collapsed>  (1275) 
0

>  <r_i_docking_score>  (1275) 
-6.2892431896111098

>  <s_m_subgroup_title>  (1275) 
glide-dock_SP_D22_pv

>  <s_m_subgroupid>  (1275) 
glide-dock_SP_D22_pv

>  <Molecule ChEMBL ID>  (1275) 
CHEMBL4583507

>  <Standard Type>  (1275) 
Ki

>  <Standard Value>  (1275) 
10000.0

>  <label>  (1275) 
0

$$$$
CHEMBL4764692
     RDKit          3D

 56 59  0  0  1  0  0  0  0  0999 V2000
   11.8297    9.5752   -3.0479 C   0  0  0  0  0  0  0  0  0  0  0  0
   11.3025    9.5410   -4.4744 C   0  0  0  0  0  0  0  0  0  0  0  0
   10.8868   10.5727   -4.9946 O   0  0  0  0  0  0  0  0  0  0  0  0
   11.2861    8.3367   -5.0676 N   0  0  0  0  0  0  0  0  0  0  0  0
   11.0632    8.0802   -6.4432 C   0  0  0  0  0  0  0  0  0  0  0  0
   10.4777    6.8589   -6.8129 C   0  0  0  0  0  0  0  0  0  0  0  0
   10.3428    6.5181   -8.1709 C   0  0  0  0  0  0  0  0  0  0  0  0
   10.7867    7.3928   -9.1850 C   0  0  0  0  0  0  0  0  0  0  0  0
   10.6767    6.9390  -10.4814 O   0  0  0  0  0  0  0  0  0  0  0  0
   11.0667    7.7718  -11.5645 C   0  0  0  0  0  0  0  0  0  0  0  0
   11.4476    6.8944  -12.7694 C   0  0  0  0  0  0  0  0  0  0  0  0
   10.4191    5.7916  -13.0884 C   0  0  0  0  0  0  0  0  0  0  0  0
   10.6426    5.2240  -14.4182 N   0  0  0  0  0  0  0  0  0  0  0  0
   11.8060    4.3258  -14.4444 C   0  0  0  0  0  0  0  0  0  0  0  0
   12.0711    3.8184  -15.8779 C   0  0  0  0  0  0  0  0  0  0  0  0
   10.8715    3.2141  -16.4401 N   0  0  0  0  0  0  0  0  0  0  0  0
   10.8536    1.8828  -16.8985 C   0  0  0  0  0  0  0  0  0  0  0  0
    9.8510    1.0059  -16.4366 C   0  0  0  0  0  0  0  0  0  0  0  0
    9.7807   -0.3094  -16.9158 C   0  0  0  0  0  0  0  0  0  0  0  0
   10.7227   -0.7727  -17.8479 C   0  0  0  0  0  0  0  0  0  0  0  0
   11.7547    0.0610  -18.3350 C   0  0  0  0  0  0  0  0  0  0  0  0
   12.8133   -0.2251  -19.2803 C   0  0  0  0  0  0  0  0  0  0  0  0
   13.5977    0.8755  -19.5097 C   0  0  0  0  0  0  0  0  0  0  0  0
   13.1092    2.2916  -18.6354 S   0  0  0  0  0  0  0  0  0  0  0  0
   11.7949    1.4098  -17.8464 C   0  0  0  0  0  0  0  0  0  0  0  0
    9.6388    3.9756  -16.2906 C   0  0  0  0  0  0  0  0  0  0  0  0
    9.4652    4.4506  -14.8338 C   0  0  0  0  0  0  0  0  0  0  0  0
   11.3357    8.6427   -8.8102 C   0  0  0  0  0  0  0  0  0  0  0  0
   11.4835    8.9727   -7.4500 C   0  0  0  0  0  0  0  0  0  0  0  0
   12.8860    9.3105   -3.0295 H   0  0  0  0  0  0  0  0  0  0  0  0
   11.7292   10.5819   -2.6458 H   0  0  0  0  0  0  0  0  0  0  0  0
   11.2864    8.8830   -2.4034 H   0  0  0  0  0  0  0  0  0  0  0  0
   11.4657    7.5324   -4.4862 H   0  0  0  0  0  0  0  0  0  0  0  0
   10.1417    6.1722   -6.0506 H   0  0  0  0  0  0  0  0  0  0  0  0
    9.9120    5.5643   -8.4417 H   0  0  0  0  0  0  0  0  0  0  0  0
   11.9362    8.3821  -11.3379 H   0  0  0  0  0  0  0  0  0  0  0  0
   10.2322    8.4296  -11.8128 H   0  0  0  0  0  0  0  0  0  0  0  0
   12.4248    6.4507  -12.5918 H   0  0  0  0  0  0  0  0  0  0  0  0
   11.5772    7.5418  -13.6377 H   0  0  0  0  0  0  0  0  0  0  0  0
    9.4228    6.2361  -13.0454 H   0  0  0  0  0  0  0  0  0  0  0  0
   10.4328    5.0063  -12.3297 H   0  0  0  0  0  0  0  0  0  0  0  0
   11.6380    3.4839  -13.7739 H   0  0  0  0  0  0  0  0  0  0  0  0
   12.6946    4.8469  -14.0860 H   0  0  0  0  0  0  0  0  0  0  0  0
   12.8866    3.0957  -15.8539 H   0  0  0  0  0  0  0  0  0  0  0  0
   12.3882    4.6394  -16.5198 H   0  0  0  0  0  0  0  0  0  0  0  0
    9.1239    1.3346  -15.7064 H   0  0  0  0  0  0  0  0  0  0  0  0
    8.9998   -0.9684  -16.5654 H   0  0  0  0  0  0  0  0  0  0  0  0
   10.6562   -1.7890  -18.2020 H   0  0  0  0  0  0  0  0  0  0  0  0
   12.9572   -1.1892  -19.7465 H   0  0  0  0  0  0  0  0  0  0  0  0
   14.4514    0.9381  -20.1718 H   0  0  0  0  0  0  0  0  0  0  0  0
    9.6851    4.8379  -16.9581 H   0  0  0  0  0  0  0  0  0  0  0  0
    8.7816    3.3841  -16.6035 H   0  0  0  0  0  0  0  0  0  0  0  0
    9.3151    3.6011  -14.1664 H   0  0  0  0  0  0  0  0  0  0  0  0
    8.5726    5.0752  -14.7658 H   0  0  0  0  0  0  0  0  0  0  0  0
   11.6796    9.3626   -9.5365 H   0  0  0  0  0  0  0  0  0  0  0  0
   11.9524    9.9062   -7.1866 H   0  0  0  0  0  0  0  0  0  0  0  0
  2  1  1  0
  3  2  2  0
  4  2  1  0
  5  4  1  0
  6  5  1  0
  7  6  2  0
  8  7  1  0
  9  8  1  0
 10  9  1  0
 11 10  1  0
 12 11  1  0
 13 12  1  0
 14 13  1  0
 15 14  1  0
 16 15  1  0
 17 16  1  0
 18 17  1  0
 19 18  2  0
 20 19  1  0
 21 20  2  0
 22 21  1  0
 23 22  2  0
 24 23  1  0
 25 17  2  0
 25 21  1  0
 25 24  1  0
 26 16  1  0
 27 13  1  0
 27 26  1  0
 28  8  2  0
 29  5  2  0
 29 28  1  0
 30  1  1  0
 31  1  1  0
 32  1  1  0
 33  4  1  0
 34  6  1  0
 35  7  1  0
 36 10  1  0
 37 10  1  0
 38 11  1  0
 39 11  1  0
 40 12  1  0
 41 12  1  0
 42 14  1  0
 43 14  1  0
 44 15  1  0
 45 15  1  0
 46 18  1  0
 47 19  1  0
 48 20  1  0
 49 22  1  0
 50 23  1  0
 51 26  1  0
 52 26  1  0
 53 27  1  0
 54 27  1  0
 55 28  1  0
 56 29  1  0
M  END
>  <b_m_subgroup_collapsed>  (1276) 
0

>  <r_i_docking_score>  (1276) 
-6.2867299050010601

>  <s_m_subgroup_title>  (1276) 
glide-dock_SP_D22_pv

>  <s_m_subgroupid>  (1276) 
glide-dock_SP_D22_pv

>  <Molecule ChEMBL ID>  (1276) 
CHEMBL4764692

>  <Standard Type>  (1276) 
Ki

>  <Standard Value>  (1276) 
16.3

>  <label>  (1276) 
1

$$$$
CHEMBL2336893
     RDKit          3D

 67 72  0  0  1  0  0  0  0  0999 V2000
   11.2855    8.1178   -5.8211 C   0  0  0  0  0  0  0  0  0  0  0  0
   11.6620    8.9071   -6.9229 C   0  0  0  0  0  0  0  0  0  0  0  0
   11.2292    8.5618   -8.2179 C   0  0  0  0  0  0  0  0  0  0  0  0
   10.4091    7.4242   -8.4253 C   0  0  0  0  0  0  0  0  0  0  0  0
    9.9256    7.1043   -9.7246 N   0  0  0  0  0  0  0  0  0  0  0  0
    9.2169    5.9889  -10.1488 C   0  0  0  0  0  0  0  0  0  0  0  0
    8.8605    6.1783  -11.4577 C   0  0  0  0  0  0  0  0  0  0  0  0
    7.9589    5.3307  -12.3292 C   0  0  0  0  0  0  0  0  0  0  0  0
    8.6881    4.3887  -13.2255 N   0  0  0  0  0  0  0  0  0  0  0  0
    7.7906    3.3696  -13.8281 C   0  0  0  0  0  0  0  0  0  0  0  0
    8.6302    2.3086  -14.5653 C   0  0  0  0  0  0  0  0  0  0  0  0
    9.4047    2.9398  -15.6336 N   0  0  0  0  0  0  0  0  0  0  0  0
    9.1352    2.7113  -17.0114 C   0  0  0  0  0  0  0  0  0  0  0  0
    7.9080    2.1222  -17.4289 C   0  0  0  0  0  0  0  0  0  0  0  0
    7.6864    1.7726  -18.7818 C   0  0  0  0  0  0  0  0  0  0  0  0
    8.5185    2.3233  -19.7717 C   0  0  0  0  0  0  0  0  0  0  0  0
    9.7372    2.9048  -19.3883 C   0  0  0  0  0  0  0  0  0  0  0  0
   10.1189    2.9205  -18.0267 C   0  0  0  0  0  0  0  0  0  0  0  0
   11.6304    2.8153  -17.7568 C   0  0  0  0  0  0  0  0  0  0  0  0
   12.0907    1.3716  -17.3739 C   0  0  0  0  0  0  0  0  0  0  0  0
   11.1903    0.2724  -17.9274 C   0  0  0  0  0  0  0  0  0  0  0  0
   10.2148   -0.2998  -17.0845 C   0  0  0  0  0  0  0  0  0  0  0  0
    9.0405   -0.8210  -17.6524 C   0  0  0  0  0  0  0  0  0  0  0  0
    8.8607   -0.7749  -19.0470 C   0  0  0  0  0  0  0  0  0  0  0  0
    9.9692   -0.5096  -19.8833 C   0  0  0  0  0  0  0  0  0  0  0  0
   11.1460    0.0222  -19.3159 C   0  0  0  0  0  0  0  0  0  0  0  0
    7.4400   -0.6726  -19.5983 C   0  0  0  0  0  0  0  0  0  0  0  0
    6.7151    0.6460  -19.1497 C   0  0  0  0  0  0  0  0  0  0  0  0
   10.2252    4.0774  -15.2132 C   0  0  0  0  0  0  0  0  0  0  0  0
    9.4748    5.0591  -14.2889 C   0  0  0  0  0  0  0  0  0  0  0  0
    9.4149    7.4553  -11.7508 C   0  0  0  0  0  0  0  0  0  0  0  0
   10.0840    7.9764  -10.7445 N   0  0  0  0  0  0  0  0  0  0  0  0
   10.0417    6.6372   -7.3096 C   0  0  0  0  0  0  0  0  0  0  0  0
   10.4833    6.9792   -6.0166 C   0  0  0  0  0  0  0  0  0  0  0  0
   11.6221    8.3803   -4.8291 H   0  0  0  0  0  0  0  0  0  0  0  0
   12.2880    9.7740   -6.7755 H   0  0  0  0  0  0  0  0  0  0  0  0
   11.5269    9.1876   -9.0473 H   0  0  0  0  0  0  0  0  0  0  0  0
    8.9669    5.1795   -9.4786 H   0  0  0  0  0  0  0  0  0  0  0  0
    7.2884    4.7541  -11.6897 H   0  0  0  0  0  0  0  0  0  0  0  0
    7.3050    5.9612  -12.9331 H   0  0  0  0  0  0  0  0  0  0  0  0
    7.1845    2.9163  -13.0469 H   0  0  0  0  0  0  0  0  0  0  0  0
    7.0838    3.8383  -14.5131 H   0  0  0  0  0  0  0  0  0  0  0  0
    9.3374    1.8597  -13.8654 H   0  0  0  0  0  0  0  0  0  0  0  0
    8.0140    1.4783  -14.9025 H   0  0  0  0  0  0  0  0  0  0  0  0
    7.1766    1.7929  -16.7087 H   0  0  0  0  0  0  0  0  0  0  0  0
    8.3403    2.1141  -20.8161 H   0  0  0  0  0  0  0  0  0  0  0  0
   10.4576    3.1141  -20.1645 H   0  0  0  0  0  0  0  0  0  0  0  0
   12.1397    3.0778  -18.6845 H   0  0  0  0  0  0  0  0  0  0  0  0
   12.0113    3.5368  -17.0397 H   0  0  0  0  0  0  0  0  0  0  0  0
   13.1219    1.2063  -17.6860 H   0  0  0  0  0  0  0  0  0  0  0  0
   12.0876    1.2867  -16.2863 H   0  0  0  0  0  0  0  0  0  0  0  0
   10.2498   -0.1430  -16.0164 H   0  0  0  0  0  0  0  0  0  0  0  0
    8.1990   -1.0263  -17.0089 H   0  0  0  0  0  0  0  0  0  0  0  0
    9.8563   -0.4949  -20.9570 H   0  0  0  0  0  0  0  0  0  0  0  0
   11.9081    0.4229  -19.9685 H   0  0  0  0  0  0  0  0  0  0  0  0
    7.5026   -0.6874  -20.6870 H   0  0  0  0  0  0  0  0  0  0  0  0
    6.8565   -1.5497  -19.3175 H   0  0  0  0  0  0  0  0  0  0  0  0
    6.1124    0.4262  -18.2673 H   0  0  0  0  0  0  0  0  0  0  0  0
    6.0142    0.9794  -19.9151 H   0  0  0  0  0  0  0  0  0  0  0  0
   11.1125    3.6906  -14.7120 H   0  0  0  0  0  0  0  0  0  0  0  0
   10.5592    4.6602  -16.0695 H   0  0  0  0  0  0  0  0  0  0  0  0
    8.7912    5.6574  -14.8912 H   0  0  0  0  0  0  0  0  0  0  0  0
   10.1935    5.7512  -13.8532 H   0  0  0  0  0  0  0  0  0  0  0  0
    9.3373    8.0440  -12.6467 H   0  0  0  0  0  0  0  0  0  0  0  0
    9.4058    5.7730   -7.4210 H   0  0  0  0  0  0  0  0  0  0  0  0
   10.1963    6.3712   -5.1717 H   0  0  0  0  0  0  0  0  0  0  0  0
    9.3420    3.8845  -12.6439 H   0  0  0  0  0  0  0  0  0  0  0  0
  2  1  2  0
  3  2  1  0
  4  3  2  0
  5  4  1  0
  6  5  1  0
  7  6  2  0
  8  7  1  0
  9  8  1  0
 10  9  1  0
 11 10  1  0
 12 11  1  0
 13 12  1  0
 14 13  1  0
 15 14  2  0
 16 15  1  0
 17 16  2  0
 18 13  2  0
 18 17  1  0
 19 18  1  0
 20 19  1  0
 21 20  1  0
 22 21  1  0
 23 22  2  0
 24 23  1  0
 25 24  2  0
 26 21  2  0
 26 25  1  0
 27 24  1  0
 28 15  1  0
 28 27  1  0
 29 12  1  0
 30  9  1  0
 30 29  1  0
 31  7  1  0
 32  5  1  0
 32 31  2  0
 33  4  1  0
 34  1  1  0
 34 33  2  0
 35  1  1  0
 36  2  1  0
 37  3  1  0
 38  6  1  0
 39  8  1  0
 40  8  1  0
 41 10  1  0
 42 10  1  0
 43 11  1  0
 44 11  1  0
 45 14  1  0
 46 16  1  0
 47 17  1  0
 48 19  1  0
 49 19  1  0
 50 20  1  0
 51 20  1  0
 52 22  1  0
 53 23  1  0
 54 25  1  0
 55 26  1  0
 56 27  1  0
 57 27  1  0
 58 28  1  0
 59 28  1  0
 60 29  1  0
 61 29  1  0
 62 30  1  0
 63 30  1  0
 64 31  1  0
 65 33  1  0
 66 34  1  0
 67  9  1  0
M  CHG  1   9   1
M  END
>  <b_m_subgroup_collapsed>  (1277) 
0

>  <r_i_docking_score>  (1277) 
-6.2851897118700197

>  <s_m_subgroup_title>  (1277) 
glide-dock_SP_D22_pv

>  <s_m_subgroupid>  (1277) 
glide-dock_SP_D22_pv

>  <Molecule ChEMBL ID>  (1277) 
CHEMBL2336893

>  <Standard Type>  (1277) 
Ki

>  <Standard Value>  (1277) 
28.0

>  <label>  (1277) 
1

$$$$
CHEMBL2062848
     RDKit          3D

 61 64  0  0  1  0  0  0  0  0999 V2000
    8.4970    8.1162   -7.0472 C   0  0  0  0  0  0  0  0  0  0  0  0
    8.8167    6.6280   -7.2162 C   0  0  0  0  0  0  0  0  0  0  0  0
   10.1214    6.2887   -7.8443 N   0  0  0  0  0  0  0  0  0  0  0  0
   11.3332    6.4076   -6.9765 C   0  0  0  0  0  0  0  0  0  0  0  0
   11.1547    6.8471   -5.4990 C   0  0  0  0  0  0  0  0  0  0  0  0
   10.3658    6.6088   -9.2968 C   0  0  2  0  0  0  0  0  0  0  0  0
   10.4341    8.0829   -9.7159 C   0  0  1  0  0  0  0  0  0  0  0  0
   11.7367    8.7063  -10.1898 C   0  0  0  0  0  0  0  0  0  0  0  0
   12.7377    8.5722   -9.2132 O   0  0  0  0  0  0  0  0  0  0  0  0
    9.3265    7.7848  -10.7416 C   0  0  1  0  0  0  0  0  0  0  0  0
    9.5069    7.7567  -12.2447 C   0  0  0  0  0  0  0  0  0  0  0  0
    9.9279    6.3793  -12.6266 N   0  0  1  0  0  0  0  0  0  0  0  0
   11.3403    6.1496  -13.0474 C   0  0  0  0  0  0  0  0  0  0  0  0
   11.6895    6.5722  -14.4575 C   0  0  0  0  0  0  0  0  0  0  0  0
   12.4860    7.7134  -14.6829 C   0  0  0  0  0  0  0  0  0  0  0  0
   12.8855    8.0467  -15.9917 C   0  0  0  0  0  0  0  0  0  0  0  0
   12.4878    7.2449  -17.0790 C   0  0  0  0  0  0  0  0  0  0  0  0
   11.6834    6.1106  -16.8586 C   0  0  0  0  0  0  0  0  0  0  0  0
   11.2873    5.7722  -15.5497 C   0  0  0  0  0  0  0  0  0  0  0  0
    9.4579    5.4600  -11.5617 C   0  0  2  0  0  0  0  0  0  0  0  0
    8.2768    4.7257  -12.1791 C   0  0  0  0  0  0  0  0  0  0  0  0
    8.5329    3.7725  -13.1951 C   0  0  0  0  0  0  0  0  0  0  0  0
    7.4737    3.1093  -13.8464 C   0  0  0  0  0  0  0  0  0  0  0  0
    6.1477    3.3710  -13.4595 C   0  0  0  0  0  0  0  0  0  0  0  0
    5.8894    4.3326  -12.4679 C   0  0  0  0  0  0  0  0  0  0  0  0
    6.9407    5.0237  -11.8466 C   0  0  0  0  0  0  0  0  0  0  0  0
    9.2204    6.3337  -10.3041 C   0  0  1  0  0  0  0  0  0  0  0  0
    7.6870    8.1733   -6.3215 H   0  0  0  0  0  0  0  0  0  0  0  0
    8.0946    8.5595   -7.9583 H   0  0  0  0  0  0  0  0  0  0  0  0
    9.3256    8.7258   -6.6947 H   0  0  0  0  0  0  0  0  0  0  0  0
    8.7656    6.1703   -6.2319 H   0  0  0  0  0  0  0  0  0  0  0  0
    8.0045    6.1380   -7.7457 H   0  0  0  0  0  0  0  0  0  0  0  0
   11.7940    5.4181   -6.9716 H   0  0  0  0  0  0  0  0  0  0  0  0
   12.0809    7.0351   -7.4419 H   0  0  0  0  0  0  0  0  0  0  0  0
   12.1177    6.8298   -4.9927 H   0  0  0  0  0  0  0  0  0  0  0  0
   10.5120    6.1821   -4.9182 H   0  0  0  0  0  0  0  0  0  0  0  0
   10.7838    7.8645   -5.4002 H   0  0  0  0  0  0  0  0  0  0  0  0
   11.2862    6.1546   -9.6299 H   0  0  0  0  0  0  0  0  0  0  0  0
   10.0298    8.7165   -8.9337 H   0  0  0  0  0  0  0  0  0  0  0  0
   12.1031    8.2854  -11.1203 H   0  0  0  0  0  0  0  0  0  0  0  0
   11.5974    9.7720  -10.3671 H   0  0  0  0  0  0  0  0  0  0  0  0
   13.4094    9.2198   -9.4211 H   0  0  0  0  0  0  0  0  0  0  0  0
    8.4861    8.3998  -10.4520 H   0  0  0  0  0  0  0  0  0  0  0  0
    8.5153    7.8971  -12.6780 H   0  0  0  0  0  0  0  0  0  0  0  0
   10.0870    8.5719  -12.6465 H   0  0  0  0  0  0  0  0  0  0  0  0
   12.0416    6.5721  -12.3330 H   0  0  0  0  0  0  0  0  0  0  0  0
   11.5336    5.0762  -13.0500 H   0  0  0  0  0  0  0  0  0  0  0  0
   12.8207    8.3211  -13.8553 H   0  0  0  0  0  0  0  0  0  0  0  0
   13.4971    8.9200  -16.1666 H   0  0  0  0  0  0  0  0  0  0  0  0
   12.7919    7.5106  -18.0805 H   0  0  0  0  0  0  0  0  0  0  0  0
   11.3738    5.4965  -17.6921 H   0  0  0  0  0  0  0  0  0  0  0  0
   10.6891    4.8873  -15.3894 H   0  0  0  0  0  0  0  0  0  0  0  0
   10.1786    4.6803  -11.3287 H   0  0  0  0  0  0  0  0  0  0  0  0
    9.5482    3.5391  -13.4830 H   0  0  0  0  0  0  0  0  0  0  0  0
    7.6792    2.3777  -14.6147 H   0  0  0  0  0  0  0  0  0  0  0  0
    5.3299    2.8421  -13.9234 H   0  0  0  0  0  0  0  0  0  0  0  0
    4.8837    4.5562  -12.1682 H   0  0  0  0  0  0  0  0  0  0  0  0
    6.6829    5.7703  -11.1102 H   0  0  0  0  0  0  0  0  0  0  0  0
    8.2767    6.1387   -9.8066 H   0  0  0  0  0  0  0  0  0  0  0  0
   10.0253    5.2846   -7.8855 H   0  0  0  0  0  0  0  0  0  0  0  0
    9.3803    6.1366  -13.4404 H   0  0  0  0  0  0  0  0  0  0  0  0
  2  1  1  0
  3  2  1  0
  4  3  1  0
  5  4  1  0
  6  3  1  0
  7  6  1  0
  8  7  1  0
  9  8  1  0
 10  7  1  0
 11 10  1  0
 12 11  1  0
 13 12  1  0
 14 13  1  0
 15 14  2  0
 16 15  1  0
 17 16  2  0
 18 17  1  0
 19 14  1  0
 19 18  2  0
 20 12  1  0
 21 20  1  0
 22 21  2  0
 23 22  1  0
 24 23  2  0
 25 24  1  0
 26 21  1  0
 26 25  2  0
 27  6  1  0
 27 10  1  0
 27 20  1  0
 28  1  1  0
 29  1  1  0
 30  1  1  0
 31  2  1  0
 32  2  1  0
 33  4  1  0
 34  4  1  0
 35  5  1  0
 36  5  1  0
 37  5  1  0
  6 38  1  6
  7 39  1  1
 40  8  1  0
 41  8  1  0
 42  9  1  0
 10 43  1  6
 44 11  1  0
 45 11  1  0
 46 13  1  0
 47 13  1  0
 48 15  1  0
 49 16  1  0
 50 17  1  0
 51 18  1  0
 52 19  1  0
 20 53  1  1
 54 22  1  0
 55 23  1  0
 56 24  1  0
 57 25  1  0
 58 26  1  0
 27 59  1  1
 60  3  1  0
 12 61  1  6
M  CHG  2   3   1  12   1
M  END
>  <b_m_subgroup_collapsed>  (1278) 
0

>  <r_i_docking_score>  (1278) 
-6.2807054599282797

>  <s_m_subgroup_title>  (1278) 
glide-dock_SP_D22_pv

>  <s_m_subgroupid>  (1278) 
glide-dock_SP_D22_pv

>  <Molecule ChEMBL ID>  (1278) 
CHEMBL2062848

>  <Standard Type>  (1278) 
Ki

>  <Standard Value>  (1278) 
12000.0

>  <label>  (1278) 
0

$$$$
CHEMBL98330
     RDKit          3D

 29 31  0  0  1  0  0  0  0  0999 V2000
   11.9111   10.0394   -5.9710 C   0  0  0  0  0  0  0  0  0  0  0  0
   11.3444    9.0215   -6.8294 N   0  0  0  0  0  0  0  0  0  0  0  0
   10.4580    8.0252   -6.5119 C   0  0  0  0  0  0  0  0  0  0  0  0
   10.2000    7.3166   -7.6507 C   0  0  0  0  0  0  0  0  0  0  0  0
   11.0053    7.9584   -8.6519 C   0  0  0  0  0  0  0  0  0  0  0  0
   11.6860    8.9723   -8.1282 N   0  0  0  0  0  0  0  0  0  0  0  0
   11.1704    7.6644  -10.0939 C   0  0  0  0  0  0  0  0  0  0  0  0
   12.3503    8.0632  -10.7609 C   0  0  0  0  0  0  0  0  0  0  0  0
   12.5455    7.7723  -12.1241 C   0  0  0  0  0  0  0  0  0  0  0  0
   11.5836    7.0471  -12.8443 C   0  0  0  0  0  0  0  0  0  0  0  0
   10.3956    6.6599  -12.2053 C   0  0  0  0  0  0  0  0  0  0  0  0
   10.1864    6.9726  -10.8451 C   0  0  0  0  0  0  0  0  0  0  0  0
    8.8862    6.5674  -10.2049 C   0  0  0  0  0  0  0  0  0  0  0  0
    9.0880    5.5165   -9.1154 C   0  0  0  0  0  0  0  0  0  0  0  0
    9.2498    6.1484   -7.7309 C   0  0  0  0  0  0  0  0  0  0  0  0
   11.3276   10.1216   -5.0537 H   0  0  0  0  0  0  0  0  0  0  0  0
   11.9043   11.0043   -6.4787 H   0  0  0  0  0  0  0  0  0  0  0  0
   12.9365    9.7725   -5.7174 H   0  0  0  0  0  0  0  0  0  0  0  0
   10.0764    7.9021   -5.5096 H   0  0  0  0  0  0  0  0  0  0  0  0
   13.1346    8.5723  -10.2226 H   0  0  0  0  0  0  0  0  0  0  0  0
   13.4576    8.0833  -12.6129 H   0  0  0  0  0  0  0  0  0  0  0  0
   11.7469    6.8099  -13.8854 H   0  0  0  0  0  0  0  0  0  0  0  0
    9.6422    6.1235  -12.7636 H   0  0  0  0  0  0  0  0  0  0  0  0
    8.4860    7.4815   -9.7775 H   0  0  0  0  0  0  0  0  0  0  0  0
    8.1765    6.2144  -10.9545 H   0  0  0  0  0  0  0  0  0  0  0  0
    8.2201    4.8565   -9.0828 H   0  0  0  0  0  0  0  0  0  0  0  0
    9.9400    4.8796   -9.3580 H   0  0  0  0  0  0  0  0  0  0  0  0
    9.5690    5.3723   -7.0469 H   0  0  0  0  0  0  0  0  0  0  0  0
    8.2633    6.4580   -7.3817 H   0  0  0  0  0  0  0  0  0  0  0  0
  2  1  1  0
  3  2  1  0
  4  3  2  0
  5  4  1  0
  6  2  1  0
  6  5  2  0
  7  5  1  0
  8  7  2  0
  9  8  1  0
 10  9  2  0
 11 10  1  0
 12  7  1  0
 12 11  2  0
 13 12  1  0
 14 13  1  0
 15  4  1  0
 15 14  1  0
 16  1  1  0
 17  1  1  0
 18  1  1  0
 19  3  1  0
 20  8  1  0
 21  9  1  0
 22 10  1  0
 23 11  1  0
 24 13  1  0
 25 13  1  0
 26 14  1  0
 27 14  1  0
 28 15  1  0
 29 15  1  0
M  END
>  <b_m_subgroup_collapsed>  (1279) 
0

>  <r_i_docking_score>  (1279) 
-6.2802534362781399

>  <s_m_subgroup_title>  (1279) 
glide-dock_SP_D22_pv

>  <s_m_subgroupid>  (1279) 
glide-dock_SP_D22_pv

>  <Molecule ChEMBL ID>  (1279) 
CHEMBL98330

>  <Standard Type>  (1279) 
Ki

>  <Standard Value>  (1279) 
10000.0

>  <label>  (1279) 
0

$$$$
CHEMBL4466071
     RDKit          3D

 56 59  0  0  1  0  0  0  0  0999 V2000
   10.4756    8.8715   -6.7409 C   0  0  0  0  0  0  0  0  0  0  0  0
    9.4107    7.9528   -7.3617 C   0  0  0  0  0  0  0  0  0  0  0  0
    9.8543    7.2846   -8.6706 C   0  0  0  0  0  0  0  0  0  0  0  0
   11.0209    7.3726   -9.0556 O   0  0  0  0  0  0  0  0  0  0  0  0
    8.8860    6.6122   -9.3122 N   0  0  0  0  0  0  0  0  0  0  0  0
    8.9251    5.9821  -10.5810 C   0  0  0  0  0  0  0  0  0  0  0  0
    7.8385    5.3716  -11.0508 N   0  0  0  0  0  0  0  0  0  0  0  0
    8.1315    4.9216  -12.3276 C   0  0  0  0  0  0  0  0  0  0  0  0
    7.1018    4.2827  -13.2106 C   0  0  0  0  0  0  0  0  0  0  0  0
    5.6860    4.8527  -13.0378 C   0  0  0  0  0  0  0  0  0  0  0  0
    9.4692    5.2226  -12.5298 C   0  0  0  0  0  0  0  0  0  0  0  0
   10.3577    4.9493  -13.6591 C   0  0  0  0  0  0  0  0  0  0  0  0
   11.2805    5.7726  -14.2431 C   0  0  0  0  0  0  0  0  0  0  0  0
   11.8256    5.1658  -15.3628 N   0  0  0  0  0  0  0  0  0  0  0  0
   12.8985    5.9632  -16.4542 S   0  0  0  0  0  0  0  0  0  0  0  0
   13.8407    4.9429  -16.9366 O   0  0  0  0  0  0  0  0  0  0  0  0
   13.3758    7.1569  -15.7387 O   0  0  0  0  0  0  0  0  0  0  0  0
   11.8797    6.5039  -17.8302 C   0  0  0  0  0  0  0  0  0  0  0  0
   12.4475    7.4003  -18.7558 C   0  0  0  0  0  0  0  0  0  0  0  0
   11.6832    7.8636  -19.8442 C   0  0  0  0  0  0  0  0  0  0  0  0
   10.3510    7.4331  -20.0041 C   0  0  0  0  0  0  0  0  0  0  0  0
    9.7828    6.5351  -19.0789 C   0  0  0  0  0  0  0  0  0  0  0  0
   10.5466    6.0648  -17.9928 C   0  0  0  0  0  0  0  0  0  0  0  0
   11.3386    3.8703  -15.4668 C   0  0  0  0  0  0  0  0  0  0  0  0
   11.5778    2.8325  -16.3885 C   0  0  0  0  0  0  0  0  0  0  0  0
   10.8882    1.6141  -16.2621 C   0  0  0  0  0  0  0  0  0  0  0  0
    9.9577    1.4239  -15.2234 C   0  0  0  0  0  0  0  0  0  0  0  0
    9.2871    0.2218  -15.1859 O   0  0  0  0  0  0  0  0  0  0  0  0
    8.0868    0.1725  -14.4246 C   0  0  0  0  0  0  0  0  0  0  0  0
    9.7513    2.4661  -14.2871 C   0  0  0  0  0  0  0  0  0  0  0  0
   10.4070    3.7148  -14.3967 C   0  0  0  0  0  0  0  0  0  0  0  0
    9.9437    5.9481  -11.4304 N   0  0  0  0  0  0  0  0  0  0  0  0
   10.0872    9.3623   -5.8480 H   0  0  0  0  0  0  0  0  0  0  0  0
   11.3624    8.3085   -6.4493 H   0  0  0  0  0  0  0  0  0  0  0  0
   10.7894    9.6502   -7.4372 H   0  0  0  0  0  0  0  0  0  0  0  0
    8.5024    8.5264   -7.5545 H   0  0  0  0  0  0  0  0  0  0  0  0
    9.1372    7.1748   -6.6483 H   0  0  0  0  0  0  0  0  0  0  0  0
    7.9635    6.6715   -8.8952 H   0  0  0  0  0  0  0  0  0  0  0  0
    7.4045    4.4108  -14.2496 H   0  0  0  0  0  0  0  0  0  0  0  0
    7.0703    3.2097  -13.0373 H   0  0  0  0  0  0  0  0  0  0  0  0
    5.0015    4.4221  -13.7689 H   0  0  0  0  0  0  0  0  0  0  0  0
    5.2878    4.6375  -12.0460 H   0  0  0  0  0  0  0  0  0  0  0  0
    5.6747    5.9345  -13.1676 H   0  0  0  0  0  0  0  0  0  0  0  0
   11.5442    6.7866  -13.9765 H   0  0  0  0  0  0  0  0  0  0  0  0
   13.4640    7.7414  -18.6254 H   0  0  0  0  0  0  0  0  0  0  0  0
   12.1165    8.5579  -20.5492 H   0  0  0  0  0  0  0  0  0  0  0  0
    9.7639    7.7937  -20.8361 H   0  0  0  0  0  0  0  0  0  0  0  0
    8.7611    6.2065  -19.2033 H   0  0  0  0  0  0  0  0  0  0  0  0
   10.0887    5.3830  -17.2949 H   0  0  0  0  0  0  0  0  0  0  0  0
   12.2826    2.9664  -17.1956 H   0  0  0  0  0  0  0  0  0  0  0  0
   11.0618    0.8217  -16.9749 H   0  0  0  0  0  0  0  0  0  0  0  0
    7.5382   -0.7402  -14.6475 H   0  0  0  0  0  0  0  0  0  0  0  0
    8.3010    0.1723  -13.3588 H   0  0  0  0  0  0  0  0  0  0  0  0
    7.4264    1.0080  -14.6580 H   0  0  0  0  0  0  0  0  0  0  0  0
    9.0866    2.3268  -13.4516 H   0  0  0  0  0  0  0  0  0  0  0  0
    6.9400    5.3159  -10.5860 H   0  0  0  0  0  0  0  0  0  0  0  0
  2  1  1  0
  3  2  1  0
  4  3  2  0
  5  3  1  0
  6  5  1  0
  7  6  1  0
  8  7  1  0
  9  8  1  0
 10  9  1  0
 11  8  2  0
 12 11  1  0
 13 12  2  0
 14 13  1  0
 15 14  1  0
 16 15  2  0
 17 15  2  0
 18 15  1  0
 19 18  2  0
 20 19  1  0
 21 20  2  0
 22 21  1  0
 23 18  1  0
 23 22  2  0
 24 14  1  0
 25 24  2  0
 26 25  1  0
 27 26  2  0
 28 27  1  0
 29 28  1  0
 30 27  1  0
 31 12  1  0
 31 24  1  0
 31 30  2  0
 32  6  2  0
 32 11  1  0
 33  1  1  0
 34  1  1  0
 35  1  1  0
 36  2  1  0
 37  2  1  0
 38  5  1  0
 39  9  1  0
 40  9  1  0
 41 10  1  0
 42 10  1  0
 43 10  1  0
 44 13  1  0
 45 19  1  0
 46 20  1  0
 47 21  1  0
 48 22  1  0
 49 23  1  0
 50 25  1  0
 51 26  1  0
 52 29  1  0
 53 29  1  0
 54 29  1  0
 55 30  1  0
 56  7  1  0
M  END
>  <b_m_subgroup_collapsed>  (1280) 
0

>  <r_i_docking_score>  (1280) 
-6.27402395456759

>  <s_m_subgroup_title>  (1280) 
glide-dock_SP_D22_pv

>  <s_m_subgroupid>  (1280) 
glide-dock_SP_D22_pv

>  <Molecule ChEMBL ID>  (1280) 
CHEMBL4466071

>  <Standard Type>  (1280) 
Ki

>  <Standard Value>  (1280) 
10000.0

>  <label>  (1280) 
0

$$$$
CHEMBL3890882
     RDKit          3D

 46 49  0  0  1  0  0  0  0  0999 V2000
    9.4927    8.3313  -10.6145 C   0  0  0  0  0  0  0  0  0  0  0  0
    8.4860    7.6512  -11.4478 N   0  0  0  0  0  0  0  0  0  0  0  0
    8.7431    6.2120  -11.6358 C   0  0  2  0  0  0  0  0  0  0  0  0
    9.7740    5.8780  -12.6904 C   0  0  0  0  0  0  0  0  0  0  0  0
   11.1146    6.0492  -13.0468 C   0  0  0  0  0  0  0  0  0  0  0  0
   11.5127    5.4976  -14.3031 C   0  0  0  0  0  0  0  0  0  0  0  0
   12.7639    5.4845  -14.9972 C   0  0  0  0  0  0  0  0  0  0  0  0
   12.5551    4.8578  -16.1922 C   0  0  0  0  0  0  0  0  0  0  0  0
   11.2229    4.4914  -16.3104 N   0  0  0  0  0  0  0  0  0  0  0  0
   10.5732    3.8327  -17.7693 S   0  0  0  0  0  0  0  0  0  0  0  0
    9.1783    4.2899  -17.8425 O   0  0  0  0  0  0  0  0  0  0  0  0
   11.5317    4.2024  -18.8235 O   0  0  0  0  0  0  0  0  0  0  0  0
   10.5942    2.0559  -17.5642 C   0  0  0  0  0  0  0  0  0  0  0  0
   11.5722    1.2898  -18.2316 C   0  0  0  0  0  0  0  0  0  0  0  0
   11.5134   -0.1163  -18.1750 C   0  0  0  0  0  0  0  0  0  0  0  0
   10.4857   -0.7479  -17.4467 C   0  0  0  0  0  0  0  0  0  0  0  0
    9.5298    0.0213  -16.7539 C   0  0  0  0  0  0  0  0  0  0  0  0
    9.5794    1.4276  -16.8149 C   0  0  0  0  0  0  0  0  0  0  0  0
   10.5409    4.8127  -15.1362 C   0  0  0  0  0  0  0  0  0  0  0  0
    9.1891    4.6253  -14.7362 C   0  0  0  0  0  0  0  0  0  0  0  0
    8.8347    5.1974  -13.5125 C   0  0  0  0  0  0  0  0  0  0  0  0
    7.6635    5.5187  -12.6024 C   0  0  1  0  0  0  0  0  0  0  0  0
    6.8377    4.3468  -12.0965 C   0  0  0  0  0  0  0  0  0  0  0  0
    6.1747    3.5198  -13.2100 C   0  0  0  0  0  0  0  0  0  0  0  0
    5.3020    2.5622  -12.6474 O   0  0  0  0  0  0  0  0  0  0  0  0
    9.1747    9.3536  -10.4203 H   0  0  0  0  0  0  0  0  0  0  0  0
   10.4649    8.3526  -11.1070 H   0  0  0  0  0  0  0  0  0  0  0  0
    9.5976    7.8280   -9.6530 H   0  0  0  0  0  0  0  0  0  0  0  0
    7.5743    7.7612  -10.9520 H   0  0  0  0  0  0  0  0  0  0  0  0
    8.9097    5.6617  -10.7081 H   0  0  0  0  0  0  0  0  0  0  0  0
   11.8175    6.5731  -12.4172 H   0  0  0  0  0  0  0  0  0  0  0  0
   13.6866    5.9162  -14.6472 H   0  0  0  0  0  0  0  0  0  0  0  0
   13.2516    4.6825  -17.0000 H   0  0  0  0  0  0  0  0  0  0  0  0
   12.3469    1.7708  -18.8104 H   0  0  0  0  0  0  0  0  0  0  0  0
   12.2500   -0.7103  -18.6963 H   0  0  0  0  0  0  0  0  0  0  0  0
   10.4377   -1.8262  -17.4108 H   0  0  0  0  0  0  0  0  0  0  0  0
    8.7483   -0.4692  -16.1915 H   0  0  0  0  0  0  0  0  0  0  0  0
    8.8251    2.0147  -16.3135 H   0  0  0  0  0  0  0  0  0  0  0  0
    8.4860    4.1172  -15.3677 H   0  0  0  0  0  0  0  0  0  0  0  0
    7.0415    6.2744  -13.0797 H   0  0  0  0  0  0  0  0  0  0  0  0
    7.4548    3.7265  -11.4549 H   0  0  0  0  0  0  0  0  0  0  0  0
    6.0547    4.7393  -11.4471 H   0  0  0  0  0  0  0  0  0  0  0  0
    5.6056    4.1646  -13.8810 H   0  0  0  0  0  0  0  0  0  0  0  0
    6.9242    3.0026  -13.8095 H   0  0  0  0  0  0  0  0  0  0  0  0
    4.6541    3.0139  -12.1284 H   0  0  0  0  0  0  0  0  0  0  0  0
    8.4136    8.1036  -12.3459 H   0  0  0  0  0  0  0  0  0  0  0  0
  2  1  1  0
  3  2  1  0
  4  3  1  0
  5  4  1  0
  6  5  2  0
  7  6  1  0
  8  7  2  0
  9  8  1  0
 10  9  1  0
 11 10  2  0
 12 10  2  0
 13 10  1  0
 14 13  2  0
 15 14  1  0
 16 15  2  0
 17 16  1  0
 18 13  1  0
 18 17  2  0
 19  6  1  0
 19  9  1  0
 20 19  2  0
 21  4  2  0
 21 20  1  0
 22  3  1  0
 22 21  1  0
 23 22  1  0
 24 23  1  0
 25 24  1  0
 26  1  1  0
 27  1  1  0
 28  1  1  0
 29  2  1  0
  3 30  1  1
 31  5  1  0
 32  7  1  0
 33  8  1  0
 34 14  1  0
 35 15  1  0
 36 16  1  0
 37 17  1  0
 38 18  1  0
 39 20  1  0
 22 40  1  6
 41 23  1  0
 42 23  1  0
 43 24  1  0
 44 24  1  0
 45 25  1  0
 46  2  1  0
M  CHG  1   2   1
M  END
>  <b_m_subgroup_collapsed>  (1281) 
0

>  <r_i_docking_score>  (1281) 
-6.2718112563209401

>  <s_m_subgroup_title>  (1281) 
glide-dock_SP_D22_pv

>  <s_m_subgroupid>  (1281) 
glide-dock_SP_D22_pv

>  <Molecule ChEMBL ID>  (1281) 
CHEMBL3890882

>  <Standard Type>  (1281) 
Ki

>  <Standard Value>  (1281) 
15848.93

>  <label>  (1281) 
0

$$$$
CHEMBL65547
     RDKit          3D

 32 33  0  0  1  0  0  0  0  0999 V2000
    7.5516    4.1719  -12.1435 C   0  0  0  0  0  0  0  0  0  0  0  0
    7.5146    5.6348  -12.3467 N   0  0  0  0  0  0  0  0  0  0  0  0
    6.1205    6.1231  -12.4650 C   0  0  0  0  0  0  0  0  0  0  0  0
    8.2536    6.3887  -11.3083 C   0  0  0  0  0  0  0  0  0  0  0  0
    9.7491    6.0522  -11.1962 C   0  0  0  0  0  0  0  0  0  0  0  0
   10.5213    7.0425  -10.3625 C   0  0  0  0  0  0  0  0  0  0  0  0
   11.5822    7.7716  -10.8411 C   0  0  0  0  0  0  0  0  0  0  0  0
   12.0860    8.5723   -9.8354 N   0  0  0  0  0  0  0  0  0  0  0  0
   11.3755    8.3900   -8.6702 C   0  0  0  0  0  0  0  0  0  0  0  0
   11.5171    8.9711   -7.3967 C   0  0  0  0  0  0  0  0  0  0  0  0
   10.6285    8.6124   -6.3724 C   0  0  0  0  0  0  0  0  0  0  0  0
    9.6175    7.6730   -6.6346 C   0  0  0  0  0  0  0  0  0  0  0  0
    9.4882    7.0793   -7.9036 C   0  0  0  0  0  0  0  0  0  0  0  0
    8.4861    6.1724   -8.0758 O   0  0  0  0  0  0  0  0  0  0  0  0
   10.3635    7.4228   -8.9703 C   0  0  0  0  0  0  0  0  0  0  0  0
    7.1414    3.9010  -11.1689 H   0  0  0  0  0  0  0  0  0  0  0  0
    6.9674    3.6613  -12.9098 H   0  0  0  0  0  0  0  0  0  0  0  0
    8.5697    3.7872  -12.2076 H   0  0  0  0  0  0  0  0  0  0  0  0
    5.5679    5.9421  -11.5414 H   0  0  0  0  0  0  0  0  0  0  0  0
    6.0946    7.1954  -12.6634 H   0  0  0  0  0  0  0  0  0  0  0  0
    5.5955    5.6194  -13.2771 H   0  0  0  0  0  0  0  0  0  0  0  0
    7.7579    6.1721  -10.3662 H   0  0  0  0  0  0  0  0  0  0  0  0
    8.1460    7.4549  -11.5132 H   0  0  0  0  0  0  0  0  0  0  0  0
   10.1800    6.0045  -12.1971 H   0  0  0  0  0  0  0  0  0  0  0  0
    9.8693    5.0570  -10.7677 H   0  0  0  0  0  0  0  0  0  0  0  0
   12.0255    7.7805  -11.8269 H   0  0  0  0  0  0  0  0  0  0  0  0
   12.8573    9.2236   -9.9641 H   0  0  0  0  0  0  0  0  0  0  0  0
   12.3019    9.6860   -7.1999 H   0  0  0  0  0  0  0  0  0  0  0  0
   10.7216    9.0524   -5.3905 H   0  0  0  0  0  0  0  0  0  0  0  0
    8.9341    7.3932   -5.8469 H   0  0  0  0  0  0  0  0  0  0  0  0
    7.6199    6.5498   -7.9016 H   0  0  0  0  0  0  0  0  0  0  0  0
    7.9697    5.8283  -13.2267 H   0  0  0  0  0  0  0  0  0  0  0  0
  2  1  1  0
  3  2  1  0
  4  2  1  0
  5  4  1  0
  6  5  1  0
  7  6  2  0
  8  7  1  0
  9  8  1  0
 10  9  2  0
 11 10  1  0
 12 11  2  0
 13 12  1  0
 14 13  1  0
 15  6  1  0
 15  9  1  0
 15 13  2  0
 16  1  1  0
 17  1  1  0
 18  1  1  0
 19  3  1  0
 20  3  1  0
 21  3  1  0
 22  4  1  0
 23  4  1  0
 24  5  1  0
 25  5  1  0
 26  7  1  0
 27  8  1  0
 28 10  1  0
 29 11  1  0
 30 12  1  0
 31 14  1  0
 32  2  1  0
M  CHG  1   2   1
M  END
>  <b_m_subgroup_collapsed>  (1282) 
0

>  <r_i_docking_score>  (1282) 
-6.27116873178307

>  <s_m_subgroup_title>  (1282) 
glide-dock_SP_D22_pv

>  <s_m_subgroupid>  (1282) 
glide-dock_SP_D22_pv

>  <Molecule ChEMBL ID>  (1282) 
CHEMBL65547

>  <Standard Type>  (1282) 
Ki

>  <Standard Value>  (1282) 
10000.0

>  <label>  (1282) 
0

$$$$
CHEMBL531
     RDKit          3D

 49 52  0  0  1  0  0  0  0  0999 V2000
   13.3978    7.4555  -16.7611 C   0  0  0  0  0  0  0  0  0  0  0  0
   12.3552    6.3398  -16.6245 C   0  0  0  0  0  0  0  0  0  0  0  0
   12.8700    5.1584  -15.7737 C   0  0  0  0  0  0  0  0  0  0  0  0
   11.8910    4.0443  -15.6034 N   0  0  2  0  0  0  0  0  0  0  0  0
   11.7277    3.2429  -16.8448 C   0  0  0  0  0  0  0  0  0  0  0  0
   10.9593    1.9368  -16.5757 C   0  0  2  0  0  0  0  0  0  0  0  0
   10.8556    1.0836  -17.8566 C   0  0  0  0  0  0  0  0  0  0  0  0
   10.3353   -0.6276  -17.5333 S   0  0  0  0  0  0  0  0  0  0  0  0
    8.5837   -0.5714  -18.0021 C   0  0  0  0  0  0  0  0  0  0  0  0
    9.5835    2.2691  -15.9729 C   0  0  0  0  0  0  0  0  0  0  0  0
    9.7220    3.1366  -14.7086 C   0  0  2  0  0  0  0  0  0  0  0  0
    8.3674    3.4633  -14.0759 C   0  0  0  0  0  0  0  0  0  0  0  0
    7.1464    2.7637  -14.1797 C   0  0  0  0  0  0  0  0  0  0  0  0
    6.0311    3.2139  -13.4473 C   0  0  0  0  0  0  0  0  0  0  0  0
    6.1397    4.3607  -12.6371 C   0  0  0  0  0  0  0  0  0  0  0  0
    7.3358    5.0514  -12.5466 C   0  0  0  0  0  0  0  0  0  0  0  0
    7.6864    6.1723  -11.8469 N   0  0  0  0  0  0  0  0  0  0  0  0
    9.0148    6.4890  -12.0776 C   0  0  0  0  0  0  0  0  0  0  0  0
    9.4670    5.5336  -12.9485 C   0  0  0  0  0  0  0  0  0  0  0  0
    8.4433    4.6082  -13.2567 C   0  0  0  0  0  0  0  0  0  0  0  0
   10.7516    5.2270  -13.6707 C   0  0  0  0  0  0  0  0  0  0  0  0
   10.5787    4.4086  -14.9804 C   0  0  1  0  0  0  0  0  0  0  0  0
   13.0028    8.2853  -17.3493 H   0  0  0  0  0  0  0  0  0  0  0  0
   14.3011    7.0976  -17.2559 H   0  0  0  0  0  0  0  0  0  0  0  0
   13.6858    7.8504  -15.7861 H   0  0  0  0  0  0  0  0  0  0  0  0
   11.4564    6.7703  -16.1840 H   0  0  0  0  0  0  0  0  0  0  0  0
   12.0772    5.9987  -17.6219 H   0  0  0  0  0  0  0  0  0  0  0  0
   13.7779    4.7576  -16.2269 H   0  0  0  0  0  0  0  0  0  0  0  0
   13.1883    5.5180  -14.7949 H   0  0  0  0  0  0  0  0  0  0  0  0
   11.2112    3.8334  -17.6029 H   0  0  0  0  0  0  0  0  0  0  0  0
   12.7117    3.0010  -17.2495 H   0  0  0  0  0  0  0  0  0  0  0  0
   11.5285    1.3605  -15.8443 H   0  0  0  0  0  0  0  0  0  0  0  0
   10.1961    1.5474  -18.5907 H   0  0  0  0  0  0  0  0  0  0  0  0
   11.8386    1.0179  -18.3237 H   0  0  0  0  0  0  0  0  0  0  0  0
    8.1459   -1.5672  -17.9235 H   0  0  0  0  0  0  0  0  0  0  0  0
    8.4751   -0.2296  -19.0317 H   0  0  0  0  0  0  0  0  0  0  0  0
    8.0190    0.0948  -17.3524 H   0  0  0  0  0  0  0  0  0  0  0  0
    8.9602    2.7765  -16.7110 H   0  0  0  0  0  0  0  0  0  0  0  0
    9.0772    1.3417  -15.7114 H   0  0  0  0  0  0  0  0  0  0  0  0
   10.2482    2.5363  -13.9633 H   0  0  0  0  0  0  0  0  0  0  0  0
    7.0616    1.8758  -14.7883 H   0  0  0  0  0  0  0  0  0  0  0  0
    5.0960    2.6756  -13.4976 H   0  0  0  0  0  0  0  0  0  0  0  0
    5.2861    4.6992  -12.0663 H   0  0  0  0  0  0  0  0  0  0  0  0
    7.0788    6.7269  -11.2269 H   0  0  0  0  0  0  0  0  0  0  0  0
    9.4941    7.3451  -11.6237 H   0  0  0  0  0  0  0  0  0  0  0  0
   11.2501    6.1737  -13.8743 H   0  0  0  0  0  0  0  0  0  0  0  0
   11.4164    4.6764  -13.0081 H   0  0  0  0  0  0  0  0  0  0  0  0
   10.0271    5.0251  -15.6919 H   0  0  0  0  0  0  0  0  0  0  0  0
   12.3317    3.4157  -14.9475 H   0  0  0  0  0  0  0  0  0  0  0  0
  2  1  1  0
  3  2  1  0
  4  3  1  0
  5  4  1  0
  6  5  1  0
  7  6  1  0
  8  7  1  0
  9  8  1  0
 10  6  1  0
 11 10  1  0
 12 11  1  0
 13 12  1  0
 14 13  2  0
 15 14  1  0
 16 15  2  0
 17 16  1  0
 18 17  1  0
 19 18  2  0
 20 12  2  0
 20 16  1  0
 20 19  1  0
 21 19  1  0
 22  4  1  0
 22 11  1  0
 22 21  1  0
 23  1  1  0
 24  1  1  0
 25  1  1  0
 26  2  1  0
 27  2  1  0
 28  3  1  0
 29  3  1  0
 30  5  1  0
 31  5  1  0
  6 32  1  1
 33  7  1  0
 34  7  1  0
 35  9  1  0
 36  9  1  0
 37  9  1  0
 38 10  1  0
 39 10  1  0
 11 40  1  1
 41 13  1  0
 42 14  1  0
 43 15  1  0
 44 17  1  0
 45 18  1  0
 46 21  1  0
 47 21  1  0
 22 48  1  6
  4 49  1  1
M  CHG  1   4   1
M  END
>  <b_m_subgroup_collapsed>  (1283) 
0

>  <r_i_docking_score>  (1283) 
-6.2688080271747397

>  <s_m_subgroup_title>  (1283) 
glide-dock_SP_D22_pv

>  <s_m_subgroupid>  (1283) 
glide-dock_SP_D22_pv

>  <Molecule ChEMBL ID>  (1283) 
CHEMBL531

>  <Standard Type>  (1283) 
Ki

>  <Standard Value>  (1283) 
0.62

>  <label>  (1283) 
1

$$$$
CHEMBL4472434
     RDKit          3D

 60 63  0  0  1  0  0  0  0  0999 V2000
   11.3738    3.9190  -16.4304 C   0  0  0  0  0  0  0  0  0  0  0  0
   11.5411    4.9136  -15.3834 N   0  0  0  0  0  0  0  0  0  0  0  0
   10.9384    4.9719  -14.1802 C   0  0  0  0  0  0  0  0  0  0  0  0
    9.7961    3.7506  -13.6168 S   0  0  0  0  0  0  0  0  0  0  0  0
    8.2523    4.7242  -13.5502 C   0  0  0  0  0  0  0  0  0  0  0  0
    8.2297    5.8392  -12.4859 C   0  0  0  0  0  0  0  0  0  0  0  0
    8.5348    5.3589  -11.0507 C   0  0  0  0  0  0  0  0  0  0  0  0
    8.8860    6.4731  -10.1316 N   0  0  0  0  0  0  0  0  0  0  0  0
    8.6978    6.0911   -8.7127 C   0  0  0  0  0  0  0  0  0  0  0  0
    9.0051    7.2692   -7.7721 C   0  0  0  0  0  0  0  0  0  0  0  0
   10.4563    7.7869   -7.9345 C   0  0  0  0  0  0  0  0  0  0  0  0
   10.6901    9.0987   -7.1673 C   0  0  0  0  0  0  0  0  0  0  0  0
   10.6635    8.9096   -5.6561 C   0  0  0  0  0  0  0  0  0  0  0  0
   11.6506    7.9138   -5.2040 N   0  0  0  0  0  0  0  0  0  0  0  0
   11.4584    6.6047   -5.8682 C   0  0  0  0  0  0  0  0  0  0  0  0
   11.4814    6.7539   -7.4055 C   0  0  0  0  0  0  0  0  0  0  0  0
   10.6447    8.1282   -9.4288 C   0  0  0  0  0  0  0  0  0  0  0  0
   10.2554    6.9913  -10.3745 C   0  0  0  0  0  0  0  0  0  0  0  0
   11.3183    6.0158  -13.4468 N   0  0  0  0  0  0  0  0  0  0  0  0
   12.2037    6.7143  -14.2277 N   0  0  0  0  0  0  0  0  0  0  0  0
   12.3301    6.0135  -15.3601 C   0  0  0  0  0  0  0  0  0  0  0  0
   13.2321    6.4361  -16.4273 C   0  0  0  0  0  0  0  0  0  0  0  0
   14.1365    5.5236  -17.0128 C   0  0  0  0  0  0  0  0  0  0  0  0
   15.0002    5.9428  -18.0433 C   0  0  0  0  0  0  0  0  0  0  0  0
   14.9668    7.2770  -18.4927 C   0  0  0  0  0  0  0  0  0  0  0  0
   14.0705    8.1924  -17.9090 C   0  0  0  0  0  0  0  0  0  0  0  0
   13.2085    7.7735  -16.8776 C   0  0  0  0  0  0  0  0  0  0  0  0
   12.0579    3.0877  -16.2580 H   0  0  0  0  0  0  0  0  0  0  0  0
   10.3507    3.5433  -16.4373 H   0  0  0  0  0  0  0  0  0  0  0  0
   11.5783    4.3576  -17.4070 H   0  0  0  0  0  0  0  0  0  0  0  0
    8.0861    5.1552  -14.5373 H   0  0  0  0  0  0  0  0  0  0  0  0
    7.4304    4.0312  -13.3677 H   0  0  0  0  0  0  0  0  0  0  0  0
    8.9065    6.6274  -12.7981 H   0  0  0  0  0  0  0  0  0  0  0  0
    7.2465    6.3123  -12.4895 H   0  0  0  0  0  0  0  0  0  0  0  0
    7.6576    4.8295  -10.6770 H   0  0  0  0  0  0  0  0  0  0  0  0
    9.3477    4.6327  -11.0325 H   0  0  0  0  0  0  0  0  0  0  0  0
    7.6752    5.7723   -8.5533 H   0  0  0  0  0  0  0  0  0  0  0  0
    9.3069    5.2191   -8.4766 H   0  0  0  0  0  0  0  0  0  0  0  0
    8.3103    8.0830   -7.9805 H   0  0  0  0  0  0  0  0  0  0  0  0
    8.7859    6.9612   -6.7511 H   0  0  0  0  0  0  0  0  0  0  0  0
   11.6306    9.5668   -7.4630 H   0  0  0  0  0  0  0  0  0  0  0  0
    9.8881    9.7723   -7.4467 H   0  0  0  0  0  0  0  0  0  0  0  0
   10.7885    9.8544   -5.1258 H   0  0  0  0  0  0  0  0  0  0  0  0
    9.6860    8.5178   -5.4469 H   0  0  0  0  0  0  0  0  0  0  0  0
   12.5728    8.2678   -5.4123 H   0  0  0  0  0  0  0  0  0  0  0  0
   12.2337    5.9121   -5.5434 H   0  0  0  0  0  0  0  0  0  0  0  0
   10.5151    6.1723   -5.5344 H   0  0  0  0  0  0  0  0  0  0  0  0
   11.2945    5.7768   -7.8469 H   0  0  0  0  0  0  0  0  0  0  0  0
   12.4818    7.0562   -7.7144 H   0  0  0  0  0  0  0  0  0  0  0  0
   10.0361    8.9976   -9.6855 H   0  0  0  0  0  0  0  0  0  0  0  0
   11.6769    8.4229   -9.6252 H   0  0  0  0  0  0  0  0  0  0  0  0
   10.9503    6.1723  -10.2469 H   0  0  0  0  0  0  0  0  0  0  0  0
   10.3615    7.3553  -11.3933 H   0  0  0  0  0  0  0  0  0  0  0  0
   14.1756    4.4999  -16.6696 H   0  0  0  0  0  0  0  0  0  0  0  0
   15.6863    5.2399  -18.4908 H   0  0  0  0  0  0  0  0  0  0  0  0
   15.6268    7.5988  -19.2850 H   0  0  0  0  0  0  0  0  0  0  0  0
   14.0397    9.2171  -18.2515 H   0  0  0  0  0  0  0  0  0  0  0  0
   12.5234    8.4843  -16.4381 H   0  0  0  0  0  0  0  0  0  0  0  0
   11.5702    7.7907   -4.2041 H   0  0  0  0  0  0  0  0  0  0  0  0
    8.2039    7.2123  -10.2931 H   0  0  0  0  0  0  0  0  0  0  0  0
  2  1  1  0
  3  2  1  0
  4  3  1  0
  5  4  1  0
  6  5  1  0
  7  6  1  0
  8  7  1  0
  9  8  1  0
 10  9  1  0
 11 10  1  0
 12 11  1  0
 13 12  1  0
 14 13  1  0
 15 14  1  0
 16 11  1  0
 16 15  1  0
 17 11  1  0
 18  8  1  0
 18 17  1  0
 19  3  2  0
 20 19  1  0
 21  2  1  0
 21 20  2  0
 22 21  1  0
 23 22  2  0
 24 23  1  0
 25 24  2  0
 26 25  1  0
 27 22  1  0
 27 26  2  0
 28  1  1  0
 29  1  1  0
 30  1  1  0
 31  5  1  0
 32  5  1  0
 33  6  1  0
 34  6  1  0
 35  7  1  0
 36  7  1  0
 37  9  1  0
 38  9  1  0
 39 10  1  0
 40 10  1  0
 41 12  1  0
 42 12  1  0
 43 13  1  0
 44 13  1  0
 45 14  1  0
 46 15  1  0
 47 15  1  0
 48 16  1  0
 49 16  1  0
 50 17  1  0
 51 17  1  0
 52 18  1  0
 53 18  1  0
 54 23  1  0
 55 24  1  0
 56 25  1  0
 57 26  1  0
 58 27  1  0
 59 14  1  0
 60  8  1  0
M  CHG  2   8   1  14   1
M  END
>  <b_m_subgroup_collapsed>  (1284) 
0

>  <r_i_docking_score>  (1284) 
-6.2606328412290901

>  <s_m_subgroup_title>  (1284) 
glide-dock_SP_D22_pv

>  <s_m_subgroupid>  (1284) 
glide-dock_SP_D22_pv

>  <Molecule ChEMBL ID>  (1284) 
CHEMBL4472434

>  <Standard Type>  (1284) 
Ki

>  <Standard Value>  (1284) 
225748.0

>  <label>  (1284) 
0

$$$$
CHEMBL426662
     RDKit          3D

 51 54  0  0  1  0  0  0  0  0999 V2000
    7.9744    0.6178  -19.3461 C   0  0  0  0  0  0  0  0  0  0  0  0
    9.1712    1.1146  -18.6277 N   0  0  1  0  0  0  0  0  0  0  0  0
   10.2723    0.1293  -18.5629 C   0  0  0  0  0  0  0  0  0  0  0  0
   10.0897   -0.8279  -17.3726 C   0  0  0  0  0  0  0  0  0  0  0  0
   10.3701   -0.1881  -15.9936 C   0  0  0  0  0  0  0  0  0  0  0  0
    9.1309    0.1933  -15.1607 C   0  0  0  0  0  0  0  0  0  0  0  0
    8.4219    1.5221  -15.5033 C   0  0  1  0  0  0  0  0  0  0  0  0
    7.2456    1.7974  -14.5582 C   0  0  0  0  0  0  0  0  0  0  0  0
    6.3306    0.7531  -14.2767 C   0  0  0  0  0  0  0  0  0  0  0  0
    5.2326    0.9666  -13.4306 C   0  0  0  0  0  0  0  0  0  0  0  0
    5.0232    2.2351  -12.8693 C   0  0  0  0  0  0  0  0  0  0  0  0
    5.9080    3.2956  -13.1459 C   0  0  0  0  0  0  0  0  0  0  0  0
    7.0132    3.0768  -13.9892 C   0  0  0  0  0  0  0  0  0  0  0  0
    9.3983    2.6582  -15.6409 C   0  0  0  0  0  0  0  0  0  0  0  0
   10.2341    3.0100  -14.5893 N   0  0  0  0  0  0  0  0  0  0  0  0
   10.9988    4.1104  -14.9117 C   0  0  0  0  0  0  0  0  0  0  0  0
   11.9434    4.8579  -14.1861 C   0  0  0  0  0  0  0  0  0  0  0  0
   12.5519    5.9750  -14.7874 C   0  0  0  0  0  0  0  0  0  0  0  0
   12.2382    6.3130  -16.1165 C   0  0  0  0  0  0  0  0  0  0  0  0
   11.3041    5.5459  -16.8389 C   0  0  0  0  0  0  0  0  0  0  0  0
   10.6509    4.4353  -16.2517 C   0  0  0  0  0  0  0  0  0  0  0  0
    9.6549    3.5005  -16.7025 C   0  0  0  0  0  0  0  0  0  0  0  0
    9.0021    3.5181  -18.0565 C   0  0  0  0  0  0  0  0  0  0  0  0
    9.5647    2.4827  -19.0385 C   0  0  0  0  0  0  0  0  0  0  0  0
    8.1791    0.4691  -20.4083 H   0  0  0  0  0  0  0  0  0  0  0  0
    7.1529    1.3252  -19.2574 H   0  0  0  0  0  0  0  0  0  0  0  0
    7.6315   -0.3280  -18.9329 H   0  0  0  0  0  0  0  0  0  0  0  0
   10.3245   -0.4352  -19.4947 H   0  0  0  0  0  0  0  0  0  0  0  0
   11.2380    0.6171  -18.4522 H   0  0  0  0  0  0  0  0  0  0  0  0
    9.1099   -1.3057  -17.3952 H   0  0  0  0  0  0  0  0  0  0  0  0
   10.8031   -1.6432  -17.5079 H   0  0  0  0  0  0  0  0  0  0  0  0
   10.8856   -0.9315  -15.3949 H   0  0  0  0  0  0  0  0  0  0  0  0
   11.0812    0.6340  -16.0731 H   0  0  0  0  0  0  0  0  0  0  0  0
    8.4238   -0.6277  -15.2192 H   0  0  0  0  0  0  0  0  0  0  0  0
    9.4321    0.2360  -14.1122 H   0  0  0  0  0  0  0  0  0  0  0  0
    7.9266    1.3853  -16.4588 H   0  0  0  0  0  0  0  0  0  0  0  0
    6.4344   -0.2241  -14.7203 H   0  0  0  0  0  0  0  0  0  0  0  0
    4.5349    0.1655  -13.2339 H   0  0  0  0  0  0  0  0  0  0  0  0
    4.1574    2.3939  -12.2575 H   0  0  0  0  0  0  0  0  0  0  0  0
    5.7323    4.2719  -12.7150 H   0  0  0  0  0  0  0  0  0  0  0  0
    7.6674    3.9116  -14.1916 H   0  0  0  0  0  0  0  0  0  0  0  0
   10.2307    2.5290  -13.7002 H   0  0  0  0  0  0  0  0  0  0  0  0
   12.1980    4.5874  -13.1748 H   0  0  0  0  0  0  0  0  0  0  0  0
   13.2691    6.5687  -14.2378 H   0  0  0  0  0  0  0  0  0  0  0  0
   12.7153    7.1646  -16.5816 H   0  0  0  0  0  0  0  0  0  0  0  0
   11.0772    5.8211  -17.8560 H   0  0  0  0  0  0  0  0  0  0  0  0
    7.9325    3.3712  -17.9357 H   0  0  0  0  0  0  0  0  0  0  0  0
    9.1121    4.5098  -18.4991 H   0  0  0  0  0  0  0  0  0  0  0  0
   10.6461    2.6100  -19.0984 H   0  0  0  0  0  0  0  0  0  0  0  0
    9.1876    2.6956  -20.0407 H   0  0  0  0  0  0  0  0  0  0  0  0
    8.9052    1.2293  -17.6599 H   0  0  0  0  0  0  0  0  0  0  0  0
  2  1  1  0
  3  2  1  0
  4  3  1  0
  5  4  1  0
  6  5  1  0
  7  6  1  0
  8  7  1  0
  9  8  2  0
 10  9  1  0
 11 10  2  0
 12 11  1  0
 13  8  1  0
 13 12  2  0
 14  7  1  0
 15 14  1  0
 16 15  1  0
 17 16  2  0
 18 17  1  0
 19 18  2  0
 20 19  1  0
 21 16  1  0
 21 20  2  0
 22 14  2  0
 22 21  1  0
 23 22  1  0
 24  2  1  0
 24 23  1  0
 25  1  1  0
 26  1  1  0
 27  1  1  0
 28  3  1  0
 29  3  1  0
 30  4  1  0
 31  4  1  0
 32  5  1  0
 33  5  1  0
 34  6  1  0
 35  6  1  0
  7 36  1  6
 37  9  1  0
 38 10  1  0
 39 11  1  0
 40 12  1  0
 41 13  1  0
 42 15  1  0
 43 17  1  0
 44 18  1  0
 45 19  1  0
 46 20  1  0
 47 23  1  0
 48 23  1  0
 49 24  1  0
 50 24  1  0
  2 51  1  1
M  CHG  1   2   1
M  END
>  <b_m_subgroup_collapsed>  (1285) 
0

>  <r_i_docking_score>  (1285) 
-6.25993211082067

>  <s_m_subgroup_title>  (1285) 
glide-dock_SP_D22_pv

>  <s_m_subgroupid>  (1285) 
glide-dock_SP_D22_pv

>  <Molecule ChEMBL ID>  (1285) 
CHEMBL426662

>  <Standard Type>  (1285) 
Ki

>  <Standard Value>  (1285) 
10000.0

>  <label>  (1285) 
0

$$$$
CHEMBL2062858
     RDKit          3D

 59 62  0  0  1  0  0  0  0  0999 V2000
    5.7967   -0.2567  -13.8451 C   0  0  0  0  0  0  0  0  0  0  0  0
    6.6580    0.5389  -14.8362 C   0  0  0  0  0  0  0  0  0  0  0  0
    7.3719    1.7100  -14.2498 N   0  0  0  0  0  0  0  0  0  0  0  0
    6.4997    2.9018  -14.0133 C   0  0  0  0  0  0  0  0  0  0  0  0
    5.4159    2.7540  -12.9323 C   0  0  0  0  0  0  0  0  0  0  0  0
    8.5552    2.1070  -15.0752 C   0  0  2  0  0  0  0  0  0  0  0  0
    9.6906    1.0625  -15.2046 C   0  0  1  0  0  0  0  0  0  0  0  0
   10.0335    0.4492  -16.5643 C   0  0  0  0  0  0  0  0  0  0  0  0
    8.9398   -0.2613  -17.0925 O   0  0  0  0  0  0  0  0  0  0  0  0
   10.6687    2.1024  -14.6240 C   0  0  1  0  0  0  0  0  0  0  0  0
   11.6736    2.8867  -15.4447 C   0  0  0  0  0  0  0  0  0  0  0  0
   10.9948    4.1075  -15.8821 N   0  0  0  0  0  0  0  0  0  0  0  0
   10.5687    4.0184  -17.2785 C   0  0  0  0  0  0  0  0  0  0  0  0
   10.5140    5.3564  -17.9904 C   0  0  0  0  0  0  0  0  0  0  0  0
    9.3497    5.7690  -18.6689 C   0  0  0  0  0  0  0  0  0  0  0  0
    9.3528    6.9717  -19.4064 C   0  0  0  0  0  0  0  0  0  0  0  0
   10.5204    7.7575  -19.4762 C   0  0  0  0  0  0  0  0  0  0  0  0
   11.6847    7.3502  -18.7957 C   0  0  0  0  0  0  0  0  0  0  0  0
   11.6769    6.1556  -18.0498 C   0  0  0  0  0  0  0  0  0  0  0  0
    9.9057    4.4046  -14.9220 C   0  0  2  0  0  0  0  0  0  0  0  0
   10.2872    5.3759  -13.8002 C   0  0  0  0  0  0  0  0  0  0  0  0
    9.3412    5.7261  -12.8087 C   0  0  0  0  0  0  0  0  0  0  0  0
    9.6760    6.6980  -11.8492 C   0  0  0  0  0  0  0  0  0  0  0  0
   10.9431    7.3040  -11.9186 C   0  0  0  0  0  0  0  0  0  0  0  0
   11.8233    6.8965  -12.9398 C   0  0  0  0  0  0  0  0  0  0  0  0
   11.5174    5.9421  -13.8466 N   0  0  0  0  0  0  0  0  0  0  0  0
    9.5363    3.0398  -14.3382 C   0  0  1  0  0  0  0  0  0  0  0  0
    5.6417   -1.2690  -14.2186 H   0  0  0  0  0  0  0  0  0  0  0  0
    4.8042    0.1688  -13.7099 H   0  0  0  0  0  0  0  0  0  0  0  0
    6.2796   -0.3478  -12.8704 H   0  0  0  0  0  0  0  0  0  0  0  0
    7.3914   -0.1830  -15.1806 H   0  0  0  0  0  0  0  0  0  0  0  0
    6.0868    0.8336  -15.7181 H   0  0  0  0  0  0  0  0  0  0  0  0
    7.1251    3.7279  -13.6814 H   0  0  0  0  0  0  0  0  0  0  0  0
    6.0853    3.2386  -14.9597 H   0  0  0  0  0  0  0  0  0  0  0  0
    5.0667    3.7393  -12.6190 H   0  0  0  0  0  0  0  0  0  0  0  0
    5.7823    2.2498  -12.0388 H   0  0  0  0  0  0  0  0  0  0  0  0
    4.5350    2.2258  -13.2915 H   0  0  0  0  0  0  0  0  0  0  0  0
    8.2516    2.4963  -16.0483 H   0  0  0  0  0  0  0  0  0  0  0  0
    9.5593    0.2813  -14.4527 H   0  0  0  0  0  0  0  0  0  0  0  0
   10.3063    1.2136  -17.2904 H   0  0  0  0  0  0  0  0  0  0  0  0
   10.8881   -0.2231  -16.4820 H   0  0  0  0  0  0  0  0  0  0  0  0
    8.7462   -1.0039  -16.5358 H   0  0  0  0  0  0  0  0  0  0  0  0
   11.1188    1.7267  -13.7052 H   0  0  0  0  0  0  0  0  0  0  0  0
   12.4860    3.2104  -14.7958 H   0  0  0  0  0  0  0  0  0  0  0  0
   12.1305    2.3094  -16.2476 H   0  0  0  0  0  0  0  0  0  0  0  0
   11.2951    3.4321  -17.8438 H   0  0  0  0  0  0  0  0  0  0  0  0
    9.6211    3.4955  -17.3774 H   0  0  0  0  0  0  0  0  0  0  0  0
    8.4571    5.1614  -18.6465 H   0  0  0  0  0  0  0  0  0  0  0  0
    8.4591    7.2856  -19.9260 H   0  0  0  0  0  0  0  0  0  0  0  0
   10.5215    8.6780  -20.0419 H   0  0  0  0  0  0  0  0  0  0  0  0
   12.5767    7.9579  -18.8395 H   0  0  0  0  0  0  0  0  0  0  0  0
   12.5729    5.8391  -17.5348 H   0  0  0  0  0  0  0  0  0  0  0  0
    9.0638    4.8561  -15.4476 H   0  0  0  0  0  0  0  0  0  0  0  0
    8.3566    5.2851  -12.7874 H   0  0  0  0  0  0  0  0  0  0  0  0
    8.9655    6.9871  -11.0871 H   0  0  0  0  0  0  0  0  0  0  0  0
   11.2321    8.0644  -11.2076 H   0  0  0  0  0  0  0  0  0  0  0  0
   12.8060    7.3378  -13.0240 H   0  0  0  0  0  0  0  0  0  0  0  0
    9.3343    3.0492  -13.2637 H   0  0  0  0  0  0  0  0  0  0  0  0
    7.7443    1.4186  -13.3594 H   0  0  0  0  0  0  0  0  0  0  0  0
  2  1  1  0
  3  2  1  0
  4  3  1  0
  5  4  1  0
  6  3  1  0
  7  6  1  0
  8  7  1  0
  9  8  1  0
 10  7  1  0
 11 10  1  0
 12 11  1  0
 13 12  1  0
 14 13  1  0
 15 14  2  0
 16 15  1  0
 17 16  2  0
 18 17  1  0
 19 14  1  0
 19 18  2  0
 20 12  1  0
 21 20  1  0
 22 21  2  0
 23 22  1  0
 24 23  2  0
 25 24  1  0
 26 21  1  0
 26 25  2  0
 27  6  1  0
 27 10  1  0
 27 20  1  0
 28  1  1  0
 29  1  1  0
 30  1  1  0
 31  2  1  0
 32  2  1  0
 33  4  1  0
 34  4  1  0
 35  5  1  0
 36  5  1  0
 37  5  1  0
  6 38  1  6
  7 39  1  1
 40  8  1  0
 41  8  1  0
 42  9  1  0
 10 43  1  1
 44 11  1  0
 45 11  1  0
 46 13  1  0
 47 13  1  0
 48 15  1  0
 49 16  1  0
 50 17  1  0
 51 18  1  0
 52 19  1  0
 20 53  1  6
 54 22  1  0
 55 23  1  0
 56 24  1  0
 57 25  1  0
 27 58  1  1
 59  3  1  0
M  CHG  1   3   1
M  END
>  <b_m_subgroup_collapsed>  (1286) 
0

>  <r_i_docking_score>  (1286) 
-6.2564721452831797

>  <s_m_subgroup_title>  (1286) 
glide-dock_SP_D22_pv

>  <s_m_subgroupid>  (1286) 
glide-dock_SP_D22_pv

>  <Molecule ChEMBL ID>  (1286) 
CHEMBL2062858

>  <Standard Type>  (1286) 
Ki

>  <Standard Value>  (1286) 
42000.0

>  <label>  (1286) 
0

$$$$
CHEMBL6023207
     RDKit          3D

 59 62  0  0  1  0  0  0  0  0999 V2000
    4.9995   -2.6107  -17.4384 C   0  0  0  0  0  0  0  0  0  0  0  0
    4.7627   -1.3211  -18.1626 C   0  0  0  0  0  0  0  0  0  0  0  0
    3.6732   -1.1492  -18.9989 N   0  0  0  0  0  0  0  0  0  0  0  0
    3.7846    0.0975  -19.4469 C   0  0  0  0  0  0  0  0  0  0  0  0
    4.8810    0.7549  -18.9924 O   0  0  0  0  0  0  0  0  0  0  0  0
    5.4961   -0.1595  -18.1816 C   0  0  0  0  0  0  0  0  0  0  0  0
    6.7301    0.2425  -17.5326 C   0  0  0  0  0  0  0  0  0  0  0  0
    7.7210    0.8298  -18.2119 N   0  0  0  0  0  0  0  0  0  0  0  0
    8.7323    1.0305  -17.3031 N   0  0  0  0  0  0  0  0  0  0  0  0
    8.2556    0.5718  -16.1461 C   0  0  0  0  0  0  0  0  0  0  0  0
    9.1635    0.5814  -14.6474 S   0  0  0  0  0  0  0  0  0  0  0  0
    9.2487    2.3778  -14.4132 C   0  0  0  0  0  0  0  0  0  0  0  0
    7.8576    3.0145  -14.2241 C   0  0  0  0  0  0  0  0  0  0  0  0
    7.9241    4.5119  -13.9010 C   0  0  0  0  0  0  0  0  0  0  0  0
    8.4864    4.8212  -12.5034 C   0  0  0  0  0  0  0  0  0  0  0  0
    9.3570    5.9913  -12.4517 N   0  0  0  0  0  0  0  0  0  0  0  0
   10.6530    5.7447  -13.0842 C   0  0  0  0  0  0  0  0  0  0  0  0
   11.6097    6.9440  -12.9599 C   0  0  0  0  0  0  0  0  0  0  0  0
   11.7115    7.3723  -11.6062 O   0  0  0  0  0  0  0  0  0  0  0  0
   10.4642    7.6596  -10.9663 C   0  0  2  0  0  0  0  0  0  0  0  0
   10.6800    8.0875   -9.5189 C   0  0  0  0  0  0  0  0  0  0  0  0
   11.9809    8.3831   -9.0632 C   0  0  0  0  0  0  0  0  0  0  0  0
   12.1978    8.7629   -7.7301 C   0  0  0  0  0  0  0  0  0  0  0  0
   11.1252    8.8609   -6.8226 C   0  0  0  0  0  0  0  0  0  0  0  0
   11.3778    9.2578   -5.3756 C   0  0  0  0  0  0  0  0  0  0  0  0
   11.2860    8.1782   -4.6023 F   0  0  0  0  0  0  0  0  0  0  0  0
   12.5948    9.7723   -5.2142 F   0  0  0  0  0  0  0  0  0  0  0  0
   10.4867   10.1673   -4.9785 F   0  0  0  0  0  0  0  0  0  0  0  0
    9.8195    8.5726   -7.2744 C   0  0  0  0  0  0  0  0  0  0  0  0
    9.5973    8.2025   -8.6165 C   0  0  0  0  0  0  0  0  0  0  0  0
    9.5661    6.4092  -11.0725 C   0  0  0  0  0  0  0  0  0  0  0  0
    6.9940    0.1122  -16.2172 N   0  0  0  0  0  0  0  0  0  0  0  0
    6.1507   -0.3965  -15.1466 C   0  0  0  0  0  0  0  0  0  0  0  0
    4.4813   -2.6255  -16.4790 H   0  0  0  0  0  0  0  0  0  0  0  0
    4.6357   -3.4625  -18.0140 H   0  0  0  0  0  0  0  0  0  0  0  0
    6.0605   -2.7711  -17.2458 H   0  0  0  0  0  0  0  0  0  0  0  0
    3.0881    0.5723  -20.1207 H   0  0  0  0  0  0  0  0  0  0  0  0
    9.8793    2.5569  -13.5431 H   0  0  0  0  0  0  0  0  0  0  0  0
    9.7601    2.8263  -15.2654 H   0  0  0  0  0  0  0  0  0  0  0  0
    7.2722    2.8887  -15.1338 H   0  0  0  0  0  0  0  0  0  0  0  0
    7.2989    2.4973  -13.4469 H   0  0  0  0  0  0  0  0  0  0  0  0
    8.4870    5.0195  -14.6836 H   0  0  0  0  0  0  0  0  0  0  0  0
    6.9188    4.9298  -13.9500 H   0  0  0  0  0  0  0  0  0  0  0  0
    7.6348    4.9700  -11.8364 H   0  0  0  0  0  0  0  0  0  0  0  0
    9.0151    3.9603  -12.0929 H   0  0  0  0  0  0  0  0  0  0  0  0
   11.1165    4.8612  -12.6468 H   0  0  0  0  0  0  0  0  0  0  0  0
   10.5247    5.5164  -14.1413 H   0  0  0  0  0  0  0  0  0  0  0  0
   12.6018    6.6665  -13.3154 H   0  0  0  0  0  0  0  0  0  0  0  0
   11.2861    7.7724  -13.5839 H   0  0  0  0  0  0  0  0  0  0  0  0
    9.9900    8.4933  -11.4870 H   0  0  0  0  0  0  0  0  0  0  0  0
   12.8298    8.3289   -9.7288 H   0  0  0  0  0  0  0  0  0  0  0  0
   13.2072    8.9816   -7.4144 H   0  0  0  0  0  0  0  0  0  0  0  0
    8.9815    8.6374   -6.5949 H   0  0  0  0  0  0  0  0  0  0  0  0
    8.5859    7.9983   -8.9394 H   0  0  0  0  0  0  0  0  0  0  0  0
    8.5958    6.6148  -10.6194 H   0  0  0  0  0  0  0  0  0  0  0  0
   10.0103    5.5938  -10.4991 H   0  0  0  0  0  0  0  0  0  0  0  0
    6.2807    0.2088  -14.2498 H   0  0  0  0  0  0  0  0  0  0  0  0
    5.1005   -0.3544  -15.4335 H   0  0  0  0  0  0  0  0  0  0  0  0
    6.4197   -1.4275  -14.9197 H   0  0  0  0  0  0  0  0  0  0  0  0
  2  1  1  0
  3  2  1  0
  4  3  2  0
  5  4  1  0
  6  2  2  0
  6  5  1  0
  7  6  1  0
  8  7  2  0
  9  8  1  0
 10  9  2  0
 11 10  1  0
 12 11  1  0
 13 12  1  0
 14 13  1  0
 15 14  1  0
 16 15  1  0
 17 16  1  0
 18 17  1  0
 19 18  1  0
 20 19  1  0
 21 20  1  0
 22 21  1  0
 23 22  2  0
 24 23  1  0
 25 24  1  0
 26 25  1  0
 27 25  1  0
 28 25  1  0
 29 24  2  0
 30 21  2  0
 30 29  1  0
 31 16  1  0
 31 20  1  0
 32  7  1  0
 32 10  1  0
 33 32  1  0
 34  1  1  0
 35  1  1  0
 36  1  1  0
 37  4  1  0
 38 12  1  0
 39 12  1  0
 40 13  1  0
 41 13  1  0
 42 14  1  0
 43 14  1  0
 44 15  1  0
 45 15  1  0
 46 17  1  0
 47 17  1  0
 48 18  1  0
 49 18  1  0
 20 50  1  6
 51 22  1  0
 52 23  1  0
 53 29  1  0
 54 30  1  0
 55 31  1  0
 56 31  1  0
 57 33  1  0
 58 33  1  0
 59 33  1  0
M  END
>  <b_m_subgroup_collapsed>  (1287) 
0

>  <r_i_docking_score>  (1287) 
-6.2533325165258304

>  <s_m_subgroup_title>  (1287) 
glide-dock_SP_D22_pv

>  <s_m_subgroupid>  (1287) 
glide-dock_SP_D22_pv

>  <Molecule ChEMBL ID>  (1287) 
CHEMBL6023207

>  <Standard Type>  (1287) 
Ki

>  <Standard Value>  (1287) 
10000.0

>  <label>  (1287) 
0

$$$$
CHEMBL4447975
     RDKit          3D

 38 40  0  0  1  0  0  0  0  0999 V2000
   11.6865    9.5380   -5.6177 C   0  0  0  0  0  0  0  0  0  0  0  0
   10.8685    8.4032   -5.8670 O   0  0  0  0  0  0  0  0  0  0  0  0
   10.6533    8.0346   -7.1786 C   0  0  0  0  0  0  0  0  0  0  0  0
   11.3298    8.6043   -8.2833 C   0  0  0  0  0  0  0  0  0  0  0  0
   11.0217    8.2072   -9.5997 C   0  0  0  0  0  0  0  0  0  0  0  0
   11.6271    8.8453  -10.6457 O   0  0  0  0  0  0  0  0  0  0  0  0
   12.8860    8.3069  -11.0031 C   0  0  0  0  0  0  0  0  0  0  0  0
   10.0437    7.2169   -9.8375 C   0  0  0  0  0  0  0  0  0  0  0  0
    9.3916    6.6174   -8.7360 C   0  0  0  0  0  0  0  0  0  0  0  0
    9.6904    7.0366   -7.4244 C   0  0  0  0  0  0  0  0  0  0  0  0
    8.4310    5.6566   -8.9017 O   0  0  0  0  0  0  0  0  0  0  0  0
    8.5533    4.8430  -10.0553 C   0  0  0  0  0  0  0  0  0  0  0  0
    8.7068    5.6190  -11.3826 C   0  0  1  0  0  0  0  0  0  0  0  0
    9.2328    4.6322  -12.4504 C   0  0  0  0  0  0  0  0  0  0  0  0
    7.4136    6.1721  -11.8469 N   0  0  0  0  0  0  0  0  0  0  0  0
    7.7104    7.3387  -12.6709 C   0  0  0  0  0  0  0  0  0  0  0  0
    8.8872    8.0026  -11.9647 C   0  0  0  0  0  0  0  0  0  0  0  0
    9.6418    6.8523  -11.2660 C   0  0  1  0  0  0  0  0  0  0  0  0
   11.7017    9.7388   -4.5464 H   0  0  0  0  0  0  0  0  0  0  0  0
   12.7171    9.3725   -5.9343 H   0  0  0  0  0  0  0  0  0  0  0  0
   11.2958   10.4272   -6.1136 H   0  0  0  0  0  0  0  0  0  0  0  0
   12.0751    9.3719   -8.1494 H   0  0  0  0  0  0  0  0  0  0  0  0
   13.3860    8.9726  -11.7052 H   0  0  0  0  0  0  0  0  0  0  0  0
   13.5378    8.1722  -10.1376 H   0  0  0  0  0  0  0  0  0  0  0  0
   12.7524    7.3555  -11.5116 H   0  0  0  0  0  0  0  0  0  0  0  0
    9.1616    6.5908   -6.5942 H   0  0  0  0  0  0  0  0  0  0  0  0
    7.6919    4.1726  -10.1089 H   0  0  0  0  0  0  0  0  0  0  0  0
    9.4273    4.2084   -9.8959 H   0  0  0  0  0  0  0  0  0  0  0  0
   10.1917    4.2059  -12.1554 H   0  0  0  0  0  0  0  0  0  0  0  0
    8.5421    3.8016  -12.5975 H   0  0  0  0  0  0  0  0  0  0  0  0
    9.3834    5.1076  -13.4196 H   0  0  0  0  0  0  0  0  0  0  0  0
    6.9381    6.6089  -11.0449 H   0  0  0  0  0  0  0  0  0  0  0  0
    6.8471    7.9976  -12.7692 H   0  0  0  0  0  0  0  0  0  0  0  0
    7.9933    6.9722  -13.6531 H   0  0  0  0  0  0  0  0  0  0  0  0
    8.4896    8.6999  -11.2247 H   0  0  0  0  0  0  0  0  0  0  0  0
    9.5203    8.5730  -12.6451 H   0  0  0  0  0  0  0  0  0  0  0  0
   10.5625    6.6513  -11.8150 H   0  0  0  0  0  0  0  0  0  0  0  0
    6.8099    5.4947  -12.2876 H   0  0  0  0  0  0  0  0  0  0  0  0
  2  1  1  0
  3  2  1  0
  4  3  2  0
  5  4  1  0
  6  5  1  0
  7  6  1  0
  8  5  2  0
  9  8  1  0
 10  3  1  0
 10  9  2  0
 11  9  1  0
 12 11  1  0
 13 12  1  0
 13 14  1  6
 15 13  1  0
 16 15  1  0
 17 16  1  0
 18  8  1  0
 18 13  1  0
 18 17  1  0
 19  1  1  0
 20  1  1  0
 21  1  1  0
 22  4  1  0
 23  7  1  0
 24  7  1  0
 25  7  1  0
 26 10  1  0
 27 12  1  0
 28 12  1  0
 29 14  1  0
 30 14  1  0
 31 14  1  0
 32 15  1  0
 33 16  1  0
 34 16  1  0
 35 17  1  0
 36 17  1  0
 18 37  1  6
 38 15  1  0
M  CHG  1  15   1
M  END
>  <b_m_subgroup_collapsed>  (1288) 
0

>  <r_i_docking_score>  (1288) 
-6.2523896502027299

>  <s_m_subgroup_title>  (1288) 
glide-dock_SP_D22_pv

>  <s_m_subgroupid>  (1288) 
glide-dock_SP_D22_pv

>  <Molecule ChEMBL ID>  (1288) 
CHEMBL4447975

>  <Standard Type>  (1288) 
Ki

>  <Standard Value>  (1288) 
10000.0

>  <label>  (1288) 
0

$$$$
CHEMBL1200517
     RDKit          3D

 81 88  0  0  1  0  0  0  0  0999 V2000
    6.4998    5.3265  -12.2104 C   0  0  0  0  0  0  0  0  0  0  0  0
    7.6474    4.4452  -11.8563 N   0  0  1  0  0  0  0  0  0  0  0  0
    8.2448    3.7776  -13.0491 C   0  0  0  0  0  0  0  0  0  0  0  0
    9.0708    4.7716  -13.8985 C   0  0  2  0  0  0  0  0  0  0  0  0
    9.6858    4.1863  -15.1796 C   0  0  0  0  0  0  0  0  0  0  0  0
    9.9476    4.9724  -16.0829 O   0  0  0  0  0  0  0  0  0  0  0  0
    9.8291    2.8472  -15.2893 N   0  0  0  0  0  0  0  0  0  0  0  0
   10.0807    2.1107  -16.5288 C   0  0  2  0  0  0  0  0  0  0  0  0
    9.7676    0.6259  -16.2763 C   0  0  0  0  0  0  0  0  0  0  0  0
   11.4239    2.1984  -16.9337 O   0  0  0  0  0  0  0  0  0  0  0  0
   11.5361    2.9738  -18.0994 C   0  0  1  0  0  0  0  0  0  0  0  0
   12.0873    4.2367  -17.8061 O   0  0  0  0  0  0  0  0  0  0  0  0
   12.3528    2.2244  -19.1740 C   0  0  2  0  0  0  0  0  0  0  0  0
   13.8627    2.1601  -18.9453 C   0  0  0  0  0  0  0  0  0  0  0  0
   14.3937    1.8980  -20.3532 C   0  0  0  0  0  0  0  0  0  0  0  0
   13.4029    2.6064  -21.2897 C   0  0  0  0  0  0  0  0  0  0  0  0
   12.1818    2.7920  -20.5113 N   0  0  0  0  0  0  0  0  0  0  0  0
   11.0987    3.4898  -20.9222 C   0  0  0  0  0  0  0  0  0  0  0  0
   11.0217    3.9682  -22.0515 O   0  0  0  0  0  0  0  0  0  0  0  0
    9.9310    3.6900  -19.9225 C   0  0  2  0  0  0  0  0  0  0  0  0
    9.4718    5.1588  -19.7151 C   0  0  0  0  0  0  0  0  0  0  0  0
    8.5408    5.8199  -20.7268 C   0  0  0  0  0  0  0  0  0  0  0  0
    8.0746    7.1220  -20.4403 C   0  0  0  0  0  0  0  0  0  0  0  0
    7.1911    7.7777  -21.3178 C   0  0  0  0  0  0  0  0  0  0  0  0
    6.7661    7.1355  -22.4953 C   0  0  0  0  0  0  0  0  0  0  0  0
    7.2253    5.8374  -22.7907 C   0  0  0  0  0  0  0  0  0  0  0  0
    8.1069    5.1805  -21.9110 C   0  0  0  0  0  0  0  0  0  0  0  0
   10.2001    3.0767  -18.6159 N   0  0  0  0  0  0  0  0  0  0  0  0
    9.3096    2.5948  -17.7575 C   0  0  0  0  0  0  0  0  0  0  0  0
    8.0854    2.5618  -17.8782 O   0  0  0  0  0  0  0  0  0  0  0  0
   10.1224    5.5011  -13.0491 C   0  0  0  0  0  0  0  0  0  0  0  0
    9.4708    6.1647  -11.8125 C   0  0  2  0  0  0  0  0  0  0  0  0
   10.4860    6.9208  -10.9741 C   0  0  0  0  0  0  0  0  0  0  0  0
   11.6360    7.5771  -11.4369 C   0  0  0  0  0  0  0  0  0  0  0  0
   12.4868    8.1722  -10.5029 C   0  0  0  0  0  0  0  0  0  0  0  0
   12.1695    8.1725   -9.1331 C   0  0  0  0  0  0  0  0  0  0  0  0
   11.0367    7.5230   -8.6826 C   0  0  0  0  0  0  0  0  0  0  0  0
   10.5370    7.3542   -7.4231 N   0  0  0  0  0  0  0  0  0  0  0  0
    9.3971    6.5715   -7.4631 C   0  0  0  0  0  0  0  0  0  0  0  0
    9.2329    6.2534   -8.7853 C   0  0  0  0  0  0  0  0  0  0  0  0
   10.2117    6.8745   -9.5899 C   0  0  0  0  0  0  0  0  0  0  0  0
    8.2627    5.4437   -9.5901 C   0  0  0  0  0  0  0  0  0  0  0  0
    8.7144    5.0700  -11.0213 C   0  0  1  0  0  0  0  0  0  0  0  0
    6.7904    6.1701  -12.8351 H   0  0  0  0  0  0  0  0  0  0  0  0
    5.7453    4.7586  -12.7565 H   0  0  0  0  0  0  0  0  0  0  0  0
    6.0019    5.7443  -11.3409 H   0  0  0  0  0  0  0  0  0  0  0  0
    7.4595    3.3114  -13.6461 H   0  0  0  0  0  0  0  0  0  0  0  0
    8.8992    2.9739  -12.7122 H   0  0  0  0  0  0  0  0  0  0  0  0
    8.3820    5.5311  -14.2665 H   0  0  0  0  0  0  0  0  0  0  0  0
    9.7566    2.2810  -14.4572 H   0  0  0  0  0  0  0  0  0  0  0  0
    8.7333    0.5041  -15.9507 H   0  0  0  0  0  0  0  0  0  0  0  0
    9.9194    0.0468  -17.1882 H   0  0  0  0  0  0  0  0  0  0  0  0
   10.4313    0.2321  -15.5057 H   0  0  0  0  0  0  0  0  0  0  0  0
   12.8117    4.1045  -17.2151 H   0  0  0  0  0  0  0  0  0  0  0  0
   11.9654    1.2048  -19.2245 H   0  0  0  0  0  0  0  0  0  0  0  0
   14.1335    1.3716  -18.2466 H   0  0  0  0  0  0  0  0  0  0  0  0
   14.2590    3.1065  -18.5745 H   0  0  0  0  0  0  0  0  0  0  0  0
   14.3786    0.8264  -20.5556 H   0  0  0  0  0  0  0  0  0  0  0  0
   15.4185    2.2423  -20.4868 H   0  0  0  0  0  0  0  0  0  0  0  0
   13.2154    2.0261  -22.1951 H   0  0  0  0  0  0  0  0  0  0  0  0
   13.7909    3.5834  -21.5870 H   0  0  0  0  0  0  0  0  0  0  0  0
    9.0933    3.1252  -20.3327 H   0  0  0  0  0  0  0  0  0  0  0  0
    8.9479    5.2404  -18.7610 H   0  0  0  0  0  0  0  0  0  0  0  0
   10.3532    5.7933  -19.6047 H   0  0  0  0  0  0  0  0  0  0  0  0
    8.3906    7.6190  -19.5347 H   0  0  0  0  0  0  0  0  0  0  0  0
    6.8374    8.7719  -21.0841 H   0  0  0  0  0  0  0  0  0  0  0  0
    6.0869    7.6349  -23.1701 H   0  0  0  0  0  0  0  0  0  0  0  0
    6.8980    5.3428  -23.6931 H   0  0  0  0  0  0  0  0  0  0  0  0
    8.4380    4.1851  -22.1639 H   0  0  0  0  0  0  0  0  0  0  0  0
   10.8863    4.7929  -12.7263 H   0  0  0  0  0  0  0  0  0  0  0  0
   10.6331    6.2360  -13.6692 H   0  0  0  0  0  0  0  0  0  0  0  0
    8.7654    6.9275  -12.1440 H   0  0  0  0  0  0  0  0  0  0  0  0
   11.8895    7.6106  -12.4861 H   0  0  0  0  0  0  0  0  0  0  0  0
   13.3912    8.6482  -10.8498 H   0  0  0  0  0  0  0  0  0  0  0  0
   12.8304    8.6624   -8.4342 H   0  0  0  0  0  0  0  0  0  0  0  0
   10.9393    7.7343   -6.5798 H   0  0  0  0  0  0  0  0  0  0  0  0
    8.8252    6.3093   -6.5839 H   0  0  0  0  0  0  0  0  0  0  0  0
    8.0670    4.5200   -9.0463 H   0  0  0  0  0  0  0  0  0  0  0  0
    7.3336    5.9942   -9.6232 H   0  0  0  0  0  0  0  0  0  0  0  0
    9.4529    4.2840  -10.8429 H   0  0  0  0  0  0  0  0  0  0  0  0
    7.2479    3.7163  -11.2819 H   0  0  0  0  0  0  0  0  0  0  0  0
  2  1  1  0
  3  2  1  0
  4  3  1  0
  5  4  1  0
  6  5  2  0
  7  5  1  0
  8  7  1  1
  9  8  1  0
 10  8  1  0
 11 10  1  0
 11 12  1  1
 13 11  1  0
 14 13  1  0
 15 14  1  0
 16 15  1  0
 17 13  1  0
 17 16  1  0
 18 17  1  0
 19 18  2  0
 20 18  1  0
 21 20  1  0
 22 21  1  0
 23 22  2  0
 24 23  1  0
 25 24  2  0
 26 25  1  0
 27 22  1  0
 27 26  2  0
 28 11  1  0
 28 20  1  0
 29  8  1  0
 29 28  1  0
 30 29  2  0
 31  4  1  0
 32 31  1  0
 33 32  1  0
 34 33  1  0
 35 34  2  0
 36 35  1  0
 37 36  2  0
 38 37  1  0
 39 38  1  0
 40 39  2  0
 41 33  2  0
 41 37  1  0
 41 40  1  0
 42 40  1  0
 43  2  1  0
 43 32  1  0
 43 42  1  0
 44  1  1  0
 45  1  1  0
 46  1  1  0
 47  3  1  0
 48  3  1  0
  4 49  1  6
 50  7  1  0
 51  9  1  0
 52  9  1  0
 53  9  1  0
 54 12  1  0
 13 55  1  6
 56 14  1  0
 57 14  1  0
 58 15  1  0
 59 15  1  0
 60 16  1  0
 61 16  1  0
 20 62  1  6
 63 21  1  0
 64 21  1  0
 65 23  1  0
 66 24  1  0
 67 25  1  0
 68 26  1  0
 69 27  1  0
 70 31  1  0
 71 31  1  0
 32 72  1  6
 73 34  1  0
 74 35  1  0
 75 36  1  0
 76 38  1  0
 77 39  1  0
 78 42  1  0
 79 42  1  0
 43 80  1  1
  2 81  1  1
M  CHG  1   2   1
M  END
>  <b_m_subgroup_collapsed>  (1289) 
0

>  <r_i_docking_score>  (1289) 
-6.2510052914086804

>  <s_m_subgroup_title>  (1289) 
glide-dock_SP_D22_pv

>  <s_m_subgroupid>  (1289) 
glide-dock_SP_D22_pv

>  <Molecule ChEMBL ID>  (1289) 
CHEMBL1200517

>  <Standard Type>  (1289) 
Ki

>  <Standard Value>  (1289) 
60.92

>  <label>  (1289) 
1

$$$$
CHEMBL43475
     RDKit          3D

 47 48  0  0  1  0  0  0  0  0999 V2000
    6.2194    3.6194  -13.4465 C   0  0  0  0  0  0  0  0  0  0  0  0
    6.3854    4.5976  -12.2782 C   0  0  0  0  0  0  0  0  0  0  0  0
    7.5540    5.5947  -12.4273 C   0  0  0  0  0  0  0  0  0  0  0  0
    8.8649    5.0139  -12.0058 N   0  0  0  0  0  0  0  0  0  0  0  0
    9.9092    5.0296  -13.0701 C   0  0  0  0  0  0  0  0  0  0  0  0
    9.6058    4.0716  -14.2343 C   0  0  0  0  0  0  0  0  0  0  0  0
   10.7361    4.0406  -15.2687 C   0  0  0  0  0  0  0  0  0  0  0  0
    9.3744    5.4616  -10.6669 C   0  0  2  0  0  0  0  0  0  0  0  0
    8.3237    5.3775   -9.5601 C   0  0  0  0  0  0  0  0  0  0  0  0
    8.8991    5.5725   -8.1640 C   0  0  0  0  0  0  0  0  0  0  0  0
    9.9454    6.6670   -8.0681 C   0  0  0  0  0  0  0  0  0  0  0  0
   10.2852    7.1347   -6.7831 C   0  0  0  0  0  0  0  0  0  0  0  0
   11.2858    8.1055   -6.6208 C   0  0  0  0  0  0  0  0  0  0  0  0
   11.9937    8.5726   -7.7426 C   0  0  0  0  0  0  0  0  0  0  0  0
   11.6621    8.1177   -9.0332 C   0  0  0  0  0  0  0  0  0  0  0  0
   12.3843    8.5722  -10.1019 O   0  0  0  0  0  0  0  0  0  0  0  0
   10.6007    7.1933   -9.2150 C   0  0  0  0  0  0  0  0  0  0  0  0
   10.1509    6.8174  -10.6334 C   0  0  2  0  0  0  0  0  0  0  0  0
    9.3882    8.0149  -11.2404 C   0  0  0  0  0  0  0  0  0  0  0  0
    5.3399    2.9930  -13.2983 H   0  0  0  0  0  0  0  0  0  0  0  0
    6.0885    4.1474  -14.3896 H   0  0  0  0  0  0  0  0  0  0  0  0
    7.0751    2.9532  -13.5397 H   0  0  0  0  0  0  0  0  0  0  0  0
    6.4718    4.0313  -11.3536 H   0  0  0  0  0  0  0  0  0  0  0  0
    5.4619    5.1721  -12.1859 H   0  0  0  0  0  0  0  0  0  0  0  0
    7.3106    6.4825  -11.8470 H   0  0  0  0  0  0  0  0  0  0  0  0
    7.6048    5.9654  -13.4469 H   0  0  0  0  0  0  0  0  0  0  0  0
   10.0509    6.0431  -13.4444 H   0  0  0  0  0  0  0  0  0  0  0  0
   10.8649    4.7242  -12.6467 H   0  0  0  0  0  0  0  0  0  0  0  0
    9.4506    3.0628  -13.8506 H   0  0  0  0  0  0  0  0  0  0  0  0
    8.6860    4.3658  -14.7385 H   0  0  0  0  0  0  0  0  0  0  0  0
   10.4800    3.3885  -16.1067 H   0  0  0  0  0  0  0  0  0  0  0  0
   10.9314    5.0369  -15.6713 H   0  0  0  0  0  0  0  0  0  0  0  0
   11.6648    3.6687  -14.8318 H   0  0  0  0  0  0  0  0  0  0  0  0
   10.0860    4.6855  -10.3958 H   0  0  0  0  0  0  0  0  0  0  0  0
    7.6016    6.1699   -9.7051 H   0  0  0  0  0  0  0  0  0  0  0  0
    7.8002    4.4241   -9.5968 H   0  0  0  0  0  0  0  0  0  0  0  0
    9.3587    4.6391   -7.8468 H   0  0  0  0  0  0  0  0  0  0  0  0
    8.0883    5.7756   -7.4619 H   0  0  0  0  0  0  0  0  0  0  0  0
    9.7763    6.7428   -5.9143 H   0  0  0  0  0  0  0  0  0  0  0  0
   11.5391    8.4597   -5.6319 H   0  0  0  0  0  0  0  0  0  0  0  0
   12.7938    9.2843   -7.6015 H   0  0  0  0  0  0  0  0  0  0  0  0
   13.0081    9.2649   -9.8981 H   0  0  0  0  0  0  0  0  0  0  0  0
   11.0555    6.6933  -11.2258 H   0  0  0  0  0  0  0  0  0  0  0  0
    9.9985    8.9172  -11.2285 H   0  0  0  0  0  0  0  0  0  0  0  0
    9.1083    7.8523  -12.2791 H   0  0  0  0  0  0  0  0  0  0  0  0
    8.4861    8.2435  -10.6750 H   0  0  0  0  0  0  0  0  0  0  0  0
    8.6610    4.0349  -11.8661 H   0  0  0  0  0  0  0  0  0  0  0  0
  2  1  1  0
  3  2  1  0
  4  3  1  0
  5  4  1  0
  6  5  1  0
  7  6  1  0
  8  4  1  0
  9  8  1  0
 10  9  1  0
 11 10  1  0
 12 11  2  0
 13 12  1  0
 14 13  2  0
 15 14  1  0
 16 15  1  0
 17 11  1  0
 17 15  2  0
 18  8  1  0
 18 17  1  0
 19 18  1  0
 20  1  1  0
 21  1  1  0
 22  1  1  0
 23  2  1  0
 24  2  1  0
 25  3  1  0
 26  3  1  0
 27  5  1  0
 28  5  1  0
 29  6  1  0
 30  6  1  0
 31  7  1  0
 32  7  1  0
 33  7  1  0
  8 34  1  1
 35  9  1  0
 36  9  1  0
 37 10  1  0
 38 10  1  0
 39 12  1  0
 40 13  1  0
 41 14  1  0
 42 16  1  0
 18 43  1  6
 44 19  1  0
 45 19  1  0
 46 19  1  0
 47  4  1  0
M  CHG  1   4   1
M  END
>  <b_m_subgroup_collapsed>  (1290) 
0

>  <r_i_docking_score>  (1290) 
-6.25099209517332

>  <s_m_subgroup_title>  (1290) 
glide-dock_SP_D22_pv

>  <s_m_subgroupid>  (1290) 
glide-dock_SP_D22_pv

>  <Molecule ChEMBL ID>  (1290) 
CHEMBL43475

>  <Standard Type>  (1290) 
Ki

>  <Standard Value>  (1290) 
30.0

>  <label>  (1290) 
1

$$$$
CHEMBL3764586
     RDKit          3D

 56 59  0  0  1  0  0  0  0  0999 V2000
    5.3301    1.1363  -13.2459 C   0  0  0  0  0  0  0  0  0  0  0  0
    5.0534    0.1703  -14.3545 C   0  0  0  0  0  0  0  0  0  0  0  0
    3.9837   -0.7116  -14.2940 N   0  0  0  0  0  0  0  0  0  0  0  0
    4.0337   -1.3804  -15.4468 C   0  0  0  0  0  0  0  0  0  0  0  0
    5.0531   -0.9957  -16.2600 O   0  0  0  0  0  0  0  0  0  0  0  0
    5.7000   -0.0153  -15.5541 C   0  0  0  0  0  0  0  0  0  0  0  0
    6.8856    0.5938  -16.1518 C   0  0  0  0  0  0  0  0  0  0  0  0
    6.8891    1.1258  -17.3798 N   0  0  0  0  0  0  0  0  0  0  0  0
    8.1841    1.5437  -17.6105 N   0  0  0  0  0  0  0  0  0  0  0  0
    8.8631    1.2162  -16.5088 C   0  0  0  0  0  0  0  0  0  0  0  0
   10.5993    1.4658  -16.2778 S   0  0  0  0  0  0  0  0  0  0  0  0
   10.7812    3.1696  -16.8948 C   0  0  0  0  0  0  0  0  0  0  0  0
    9.9233    4.1839  -16.1230 C   0  0  0  0  0  0  0  0  0  0  0  0
   10.3021    4.3432  -14.6384 C   0  0  0  0  0  0  0  0  0  0  0  0
    9.2639    4.9723  -13.8227 N   0  0  0  0  0  0  0  0  0  0  0  0
    8.1555    4.0585  -13.5448 C   0  0  0  0  0  0  0  0  0  0  0  0
    7.0802    4.6926  -12.6460 C   0  0  0  0  0  0  0  0  0  0  0  0
    7.6843    5.1549  -11.4466 O   0  0  0  0  0  0  0  0  0  0  0  0
    8.7156    6.1101  -11.6756 C   0  0  1  0  0  0  0  0  0  0  0  0
    9.2863    6.6695  -10.3804 C   0  0  0  0  0  0  0  0  0  0  0  0
    9.6959    8.0190  -10.3416 C   0  0  0  0  0  0  0  0  0  0  0  0
   10.2289    8.5680   -9.1603 C   0  0  0  0  0  0  0  0  0  0  0  0
   10.3580    7.7760   -8.0008 C   0  0  0  0  0  0  0  0  0  0  0  0
   10.9403    8.3842   -6.7362 C   0  0  0  0  0  0  0  0  0  0  0  0
   11.1792    7.4647   -5.7999 F   0  0  0  0  0  0  0  0  0  0  0  0
   12.0861    8.9958   -7.0290 F   0  0  0  0  0  0  0  0  0  0  0  0
   10.0935    9.2840   -6.2428 F   0  0  0  0  0  0  0  0  0  0  0  0
    9.9504    6.4267   -8.0384 C   0  0  0  0  0  0  0  0  0  0  0  0
    9.4253    5.8729   -9.2206 C   0  0  0  0  0  0  0  0  0  0  0  0
    9.0754    4.5669   -9.2275 F   0  0  0  0  0  0  0  0  0  0  0  0
    9.8010    5.4496  -12.5504 C   0  0  0  0  0  0  0  0  0  0  0  0
    8.0979    0.6432  -15.5611 N   0  0  0  0  0  0  0  0  0  0  0  0
    8.4862    0.1763  -14.2462 C   0  0  0  0  0  0  0  0  0  0  0  0
    5.5933    0.6183  -12.3233 H   0  0  0  0  0  0  0  0  0  0  0  0
    6.1508    1.8063  -13.4949 H   0  0  0  0  0  0  0  0  0  0  0  0
    4.4571    1.7576  -13.0469 H   0  0  0  0  0  0  0  0  0  0  0  0
    3.3439   -2.1619  -15.7348 H   0  0  0  0  0  0  0  0  0  0  0  0
   11.8337    3.4476  -16.8352 H   0  0  0  0  0  0  0  0  0  0  0  0
   10.5135    3.1857  -17.9519 H   0  0  0  0  0  0  0  0  0  0  0  0
    9.9954    5.1588  -16.6062 H   0  0  0  0  0  0  0  0  0  0  0  0
    8.8858    3.8924  -16.2273 H   0  0  0  0  0  0  0  0  0  0  0  0
   10.5618    3.3775  -14.2030 H   0  0  0  0  0  0  0  0  0  0  0  0
   11.2152    4.9384  -14.5955 H   0  0  0  0  0  0  0  0  0  0  0  0
    7.6860    3.7228  -14.4678 H   0  0  0  0  0  0  0  0  0  0  0  0
    8.5424    3.1683  -13.0518 H   0  0  0  0  0  0  0  0  0  0  0  0
    6.5807    5.5193  -13.1521 H   0  0  0  0  0  0  0  0  0  0  0  0
    6.3116    3.9628  -12.3925 H   0  0  0  0  0  0  0  0  0  0  0  0
    8.2754    6.9465  -12.2223 H   0  0  0  0  0  0  0  0  0  0  0  0
    9.5950    8.6396  -11.2197 H   0  0  0  0  0  0  0  0  0  0  0  0
   10.5409    9.6015   -9.1441 H   0  0  0  0  0  0  0  0  0  0  0  0
   10.0415    5.8013   -7.1630 H   0  0  0  0  0  0  0  0  0  0  0  0
   10.2484    4.6185  -12.0031 H   0  0  0  0  0  0  0  0  0  0  0  0
   10.5984    6.1694  -12.7377 H   0  0  0  0  0  0  0  0  0  0  0  0
    9.4965   -0.2282  -14.2724 H   0  0  0  0  0  0  0  0  0  0  0  0
    8.4750    1.0044  -13.5435 H   0  0  0  0  0  0  0  0  0  0  0  0
    7.7860   -0.5870  -13.9064 H   0  0  0  0  0  0  0  0  0  0  0  0
  2  1  1  0
  3  2  1  0
  4  3  2  0
  5  4  1  0
  6  2  2  0
  6  5  1  0
  7  6  1  0
  8  7  2  0
  9  8  1  0
 10  9  2  0
 11 10  1  0
 12 11  1  0
 13 12  1  0
 14 13  1  0
 15 14  1  0
 16 15  1  0
 17 16  1  0
 18 17  1  0
 19 18  1  0
 20 19  1  0
 21 20  1  0
 22 21  2  0
 23 22  1  0
 24 23  1  0
 25 24  1  0
 26 24  1  0
 27 24  1  0
 28 23  2  0
 29 20  2  0
 29 28  1  0
 30 29  1  0
 31 15  1  0
 31 19  1  0
 32  7  1  0
 32 10  1  0
 33 32  1  0
 34  1  1  0
 35  1  1  0
 36  1  1  0
 37  4  1  0
 38 12  1  0
 39 12  1  0
 40 13  1  0
 41 13  1  0
 42 14  1  0
 43 14  1  0
 44 16  1  0
 45 16  1  0
 46 17  1  0
 47 17  1  0
 19 48  1  6
 49 21  1  0
 50 22  1  0
 51 28  1  0
 52 31  1  0
 53 31  1  0
 54 33  1  0
 55 33  1  0
 56 33  1  0
M  END
>  <b_m_subgroup_collapsed>  (1291) 
0

>  <r_i_docking_score>  (1291) 
-6.25088123390164

>  <s_m_subgroup_title>  (1291) 
glide-dock_SP_D22_pv

>  <s_m_subgroupid>  (1291) 
glide-dock_SP_D22_pv

>  <Molecule ChEMBL ID>  (1291) 
CHEMBL3764586

>  <Standard Type>  (1291) 
Ki

>  <Standard Value>  (1291) 
10000.0

>  <label>  (1291) 
0

$$$$
CHEMBL4442337
     RDKit          3D

 29 31  0  0  1  0  0  0  0  0999 V2000
   11.8804    6.7453   -2.9220 C   0  0  0  0  0  0  0  0  0  0  0  0
   11.3817    6.7093   -4.3796 C   0  0  0  0  0  0  0  0  0  0  0  0
   11.4396    8.0022   -5.0597 N   0  0  0  0  0  0  0  0  0  0  0  0
   11.9978    9.1352   -4.5955 C   0  0  0  0  0  0  0  0  0  0  0  0
   12.0073   10.1479   -5.4469 N   0  0  0  0  0  0  0  0  0  0  0  0
   11.3929    9.6335   -6.5768 C   0  0  0  0  0  0  0  0  0  0  0  0
   10.9998    8.3357   -6.3510 C   0  0  0  0  0  0  0  0  0  0  0  0
   10.2737    7.4388   -7.2460 C   0  0  0  0  0  0  0  0  0  0  0  0
    9.2733    6.5688   -6.9025 C   0  0  0  0  0  0  0  0  0  0  0  0
    8.8074    5.9073   -8.0229 N   0  0  0  0  0  0  0  0  0  0  0  0
    9.4462    6.3650   -9.1512 C   0  0  0  0  0  0  0  0  0  0  0  0
    9.2933    6.0468  -10.5124 C   0  0  0  0  0  0  0  0  0  0  0  0
   10.0852    6.7068  -11.4688 C   0  0  0  0  0  0  0  0  0  0  0  0
   11.0318    7.6575  -11.0448 C   0  0  0  0  0  0  0  0  0  0  0  0
   11.1757    7.9676   -9.6782 C   0  0  0  0  0  0  0  0  0  0  0  0
   12.0873    8.8919   -9.3103 F   0  0  0  0  0  0  0  0  0  0  0  0
   10.3859    7.3345   -8.6876 C   0  0  0  0  0  0  0  0  0  0  0  0
   11.7445    5.7746   -2.4436 H   0  0  0  0  0  0  0  0  0  0  0  0
   12.9416    6.9879   -2.8665 H   0  0  0  0  0  0  0  0  0  0  0  0
   11.3295    7.4731   -2.3254 H   0  0  0  0  0  0  0  0  0  0  0  0
   10.3611    6.3291   -4.4026 H   0  0  0  0  0  0  0  0  0  0  0  0
   11.9884    6.0094   -4.9553 H   0  0  0  0  0  0  0  0  0  0  0  0
   12.4492    9.2302   -3.6187 H   0  0  0  0  0  0  0  0  0  0  0  0
   11.2853   10.2364   -7.4594 H   0  0  0  0  0  0  0  0  0  0  0  0
    8.8416    6.3666   -5.9341 H   0  0  0  0  0  0  0  0  0  0  0  0
    8.0223    5.2700   -8.0114 H   0  0  0  0  0  0  0  0  0  0  0  0
    8.5579    5.3168  -10.8204 H   0  0  0  0  0  0  0  0  0  0  0  0
    9.9756    6.4798  -12.5188 H   0  0  0  0  0  0  0  0  0  0  0  0
   11.6568    8.1611  -11.7658 H   0  0  0  0  0  0  0  0  0  0  0  0
  2  1  1  0
  3  2  1  0
  4  3  1  0
  5  4  2  0
  6  5  1  0
  7  3  1  0
  7  6  2  0
  8  7  1  0
  9  8  2  0
 10  9  1  0
 11 10  1  0
 12 11  2  0
 13 12  1  0
 14 13  2  0
 15 14  1  0
 16 15  1  0
 17  8  1  0
 17 11  1  0
 17 15  2  0
 18  1  1  0
 19  1  1  0
 20  1  1  0
 21  2  1  0
 22  2  1  0
 23  4  1  0
 24  6  1  0
 25  9  1  0
 26 10  1  0
 27 12  1  0
 28 13  1  0
 29 14  1  0
M  END
>  <b_m_subgroup_collapsed>  (1292) 
0

>  <r_i_docking_score>  (1292) 
-6.25084166970891

>  <s_m_subgroup_title>  (1292) 
glide-dock_SP_D22_pv

>  <s_m_subgroupid>  (1292) 
glide-dock_SP_D22_pv

>  <Molecule ChEMBL ID>  (1292) 
CHEMBL4442337

>  <Standard Type>  (1292) 
Ki

>  <Standard Value>  (1292) 
10000.0

>  <label>  (1292) 
0

$$$$
CHEMBL2016625
     RDKit          3D

 79 82  0  0  1  0  0  0  0  0999 V2000
   12.4891    6.2735   -2.2474 C   0  0  0  0  0  0  0  0  0  0  0  0
   12.6275    7.2637   -3.3938 C   0  0  0  0  0  0  0  0  0  0  0  0
   12.0314    8.6311   -3.0294 C   0  0  0  0  0  0  0  0  0  0  0  0
   12.0093    9.6192   -4.1968 C   0  0  0  0  0  0  0  0  0  0  0  0
   11.0109    9.2523   -5.2987 C   0  0  0  0  0  0  0  0  0  0  0  0
   11.4548    9.6154   -6.7180 C   0  0  0  0  0  0  0  0  0  0  0  0
   10.4497    9.0610   -7.7352 C   0  0  0  0  0  0  0  0  0  0  0  0
   10.8261    9.2939   -9.2094 C   0  0  0  0  0  0  0  0  0  0  0  0
    9.7957    8.6532  -10.1596 C   0  0  0  0  0  0  0  0  0  0  0  0
    9.8872    7.1350  -10.1910 C   0  0  0  0  0  0  0  0  0  0  0  0
   10.8860    6.5723   -9.7624 O   0  0  0  0  0  0  0  0  0  0  0  0
    8.8750    6.4780  -10.7564 N   0  0  0  0  0  0  0  0  0  0  0  0
    8.9492    5.1069  -11.2382 C   0  0  0  0  0  0  0  0  0  0  0  0
    9.6259    5.0931  -12.6179 C   0  0  0  0  0  0  0  0  0  0  0  0
    9.6132    3.7045  -13.2793 C   0  0  0  0  0  0  0  0  0  0  0  0
   10.2271    3.6523  -14.6087 N   0  0  0  0  0  0  0  0  0  0  0  0
    9.7321    4.6904  -15.5099 C   0  0  0  0  0  0  0  0  0  0  0  0
   10.1907    4.3646  -16.9376 C   0  0  0  0  0  0  0  0  0  0  0  0
   11.6562    4.3313  -17.0190 N   0  0  0  0  0  0  0  0  0  0  0  0
   12.4425    5.2952  -17.6725 C   0  0  0  0  0  0  0  0  0  0  0  0
   13.6411    5.5896  -17.2591 N   0  0  0  0  0  0  0  0  0  0  0  0
   14.4701    6.5900  -17.8001 C   0  0  0  0  0  0  0  0  0  0  0  0
   15.8571    6.3285  -17.8113 C   0  0  0  0  0  0  0  0  0  0  0  0
   16.7779    7.3030  -18.2469 C   0  0  0  0  0  0  0  0  0  0  0  0
   18.4702    6.9723  -18.2201 Cl  0  0  0  0  0  0  0  0  0  0  0  0
   16.3212    8.5685  -18.6525 C   0  0  0  0  0  0  0  0  0  0  0  0
   14.9446    8.8525  -18.6376 C   0  0  0  0  0  0  0  0  0  0  0  0
   14.0216    7.8706  -18.2249 C   0  0  0  0  0  0  0  0  0  0  0  0
   12.6674    8.1722  -18.3091 N   0  0  0  0  0  0  0  0  0  0  0  0
   11.8275    7.3606  -19.0670 C   0  0  0  0  0  0  0  0  0  0  0  0
   11.0724    7.9524  -20.1007 C   0  0  0  0  0  0  0  0  0  0  0  0
   10.3249    7.1544  -20.9839 C   0  0  0  0  0  0  0  0  0  0  0  0
   10.3429    5.7559  -20.8432 C   0  0  0  0  0  0  0  0  0  0  0  0
   11.0771    5.1633  -19.7978 C   0  0  0  0  0  0  0  0  0  0  0  0
   11.7943    5.9576  -18.8694 C   0  0  0  0  0  0  0  0  0  0  0  0
   12.1932    3.3883  -16.0336 C   0  0  0  0  0  0  0  0  0  0  0  0
   11.6895    3.7111  -14.6069 C   0  0  0  0  0  0  0  0  0  0  0  0
   13.0598    5.3723   -2.4556 H   0  0  0  0  0  0  0  0  0  0  0  0
   12.8861    6.7057   -1.3363 H   0  0  0  0  0  0  0  0  0  0  0  0
   11.4479    6.0025   -2.0749 H   0  0  0  0  0  0  0  0  0  0  0  0
   12.1540    6.8370   -4.2771 H   0  0  0  0  0  0  0  0  0  0  0  0
   13.6827    7.3744   -3.6392 H   0  0  0  0  0  0  0  0  0  0  0  0
   12.6123    9.0656   -2.2145 H   0  0  0  0  0  0  0  0  0  0  0  0
   11.0194    8.5137   -2.6465 H   0  0  0  0  0  0  0  0  0  0  0  0
   13.0151    9.7503   -4.5962 H   0  0  0  0  0  0  0  0  0  0  0  0
   11.6862   10.5718   -3.7884 H   0  0  0  0  0  0  0  0  0  0  0  0
   10.0860    9.7753   -5.0863 H   0  0  0  0  0  0  0  0  0  0  0  0
   10.7668    8.1921   -5.2647 H   0  0  0  0  0  0  0  0  0  0  0  0
   12.4434    9.1946   -6.9175 H   0  0  0  0  0  0  0  0  0  0  0  0
   11.5451   10.6978   -6.8126 H   0  0  0  0  0  0  0  0  0  0  0  0
    9.4597    9.4747   -7.5441 H   0  0  0  0  0  0  0  0  0  0  0  0
   10.3541    7.9884   -7.5585 H   0  0  0  0  0  0  0  0  0  0  0  0
   11.8250    8.8993   -9.4027 H   0  0  0  0  0  0  0  0  0  0  0  0
   10.9029   10.3495   -9.4469 H   0  0  0  0  0  0  0  0  0  0  0  0
    9.9804    8.9724  -11.1831 H   0  0  0  0  0  0  0  0  0  0  0  0
    8.7834    8.9698   -9.9017 H   0  0  0  0  0  0  0  0  0  0  0  0
    8.0005    6.9825  -10.8956 H   0  0  0  0  0  0  0  0  0  0  0  0
    7.9331    4.7175  -11.3083 H   0  0  0  0  0  0  0  0  0  0  0  0
    9.4849    4.4716  -10.5314 H   0  0  0  0  0  0  0  0  0  0  0  0
   10.6493    5.4559  -12.5322 H   0  0  0  0  0  0  0  0  0  0  0  0
    9.0953    5.8115  -13.2438 H   0  0  0  0  0  0  0  0  0  0  0  0
    8.5770    3.3804  -13.3839 H   0  0  0  0  0  0  0  0  0  0  0  0
   10.0859    2.9721  -12.6271 H   0  0  0  0  0  0  0  0  0  0  0  0
   10.1049    5.6749  -15.2223 H   0  0  0  0  0  0  0  0  0  0  0  0
    8.6478    4.7276  -15.4454 H   0  0  0  0  0  0  0  0  0  0  0  0
    9.7547    5.1119  -17.5974 H   0  0  0  0  0  0  0  0  0  0  0  0
    9.7917    3.4010  -17.2537 H   0  0  0  0  0  0  0  0  0  0  0  0
   16.2179    5.3730  -17.4620 H   0  0  0  0  0  0  0  0  0  0  0  0
   17.0251    9.3231  -18.9740 H   0  0  0  0  0  0  0  0  0  0  0  0
   14.5980    9.8247  -18.9596 H   0  0  0  0  0  0  0  0  0  0  0  0
   12.4663    9.1693  -18.3753 H   0  0  0  0  0  0  0  0  0  0  0  0
   11.0903    9.0219  -20.2415 H   0  0  0  0  0  0  0  0  0  0  0  0
    9.7561    7.6122  -21.7803 H   0  0  0  0  0  0  0  0  0  0  0  0
    9.7848    5.1365  -21.5300 H   0  0  0  0  0  0  0  0  0  0  0  0
   11.0583    4.0877  -19.6924 H   0  0  0  0  0  0  0  0  0  0  0  0
   11.8860    2.3798  -16.3150 H   0  0  0  0  0  0  0  0  0  0  0  0
   13.2829    3.3816  -16.0494 H   0  0  0  0  0  0  0  0  0  0  0  0
   12.0435    4.6907  -14.2833 H   0  0  0  0  0  0  0  0  0  0  0  0
   12.0817    2.9754  -13.9052 H   0  0  0  0  0  0  0  0  0  0  0  0
  2  1  1  0
  3  2  1  0
  4  3  1  0
  5  4  1  0
  6  5  1  0
  7  6  1  0
  8  7  1  0
  9  8  1  0
 10  9  1  0
 11 10  2  0
 12 10  1  0
 13 12  1  0
 14 13  1  0
 15 14  1  0
 16 15  1  0
 17 16  1  0
 18 17  1  0
 19 18  1  0
 20 19  1  0
 21 20  2  0
 22 21  1  0
 23 22  1  0
 24 23  2  0
 25 24  1  0
 26 24  1  0
 27 26  2  0
 28 22  2  0
 28 27  1  0
 29 28  1  0
 30 29  1  0
 31 30  2  0
 32 31  1  0
 33 32  2  0
 34 33  1  0
 35 20  1  0
 35 30  1  0
 35 34  2  0
 36 19  1  0
 37 16  1  0
 37 36  1  0
 38  1  1  0
 39  1  1  0
 40  1  1  0
 41  2  1  0
 42  2  1  0
 43  3  1  0
 44  3  1  0
 45  4  1  0
 46  4  1  0
 47  5  1  0
 48  5  1  0
 49  6  1  0
 50  6  1  0
 51  7  1  0
 52  7  1  0
 53  8  1  0
 54  8  1  0
 55  9  1  0
 56  9  1  0
 57 12  1  0
 58 13  1  0
 59 13  1  0
 60 14  1  0
 61 14  1  0
 62 15  1  0
 63 15  1  0
 64 17  1  0
 65 17  1  0
 66 18  1  0
 67 18  1  0
 68 23  1  0
 69 26  1  0
 70 27  1  0
 71 29  1  0
 72 31  1  0
 73 32  1  0
 74 33  1  0
 75 34  1  0
 76 36  1  0
 77 36  1  0
 78 37  1  0
 79 37  1  0
M  END
>  <b_m_subgroup_collapsed>  (1293) 
0

>  <r_i_docking_score>  (1293) 
-6.2503833092221504

>  <s_m_subgroup_title>  (1293) 
glide-dock_SP_D22_pv

>  <s_m_subgroupid>  (1293) 
glide-dock_SP_D22_pv

>  <Molecule ChEMBL ID>  (1293) 
CHEMBL2016625

>  <Standard Type>  (1293) 
Ki

>  <Standard Value>  (1293) 
8.913

>  <label>  (1293) 
1

$$$$
CHEMBL598759
     RDKit          3D

 50 53  0  0  1  0  0  0  0  0999 V2000
    9.5671    0.2002  -15.0490 C   0  0  0  0  0  0  0  0  0  0  0  0
   10.0786    1.4271  -15.2267 C   0  0  0  0  0  0  0  0  0  0  0  0
    9.4318    2.5201  -16.0540 C   0  0  0  0  0  0  0  0  0  0  0  0
    9.3130    3.7362  -15.3218 O   0  0  0  0  0  0  0  0  0  0  0  0
    8.4548    3.8118  -14.2468 C   0  0  0  0  0  0  0  0  0  0  0  0
    7.2226    3.1085  -14.2750 C   0  0  0  0  0  0  0  0  0  0  0  0
    6.2485    3.3082  -13.2919 C   0  0  0  0  0  0  0  0  0  0  0  0
    6.5425    4.1390  -12.2096 C   0  0  0  0  0  0  0  0  0  0  0  0
    7.8072    4.7488  -12.1049 C   0  0  0  0  0  0  0  0  0  0  0  0
    8.7669    4.6669  -13.1426 C   0  0  0  0  0  0  0  0  0  0  0  0
   10.0091    5.5016  -13.0146 C   0  0  0  0  0  0  0  0  0  0  0  0
   11.1325    5.3839  -13.8789 C   0  0  0  0  0  0  0  0  0  0  0  0
   12.2338    6.2527  -13.8441 C   0  0  0  0  0  0  0  0  0  0  0  0
   12.3214    7.2464  -12.8637 C   0  0  0  0  0  0  0  0  0  0  0  0
   11.3028    7.3723  -11.9111 C   0  0  0  0  0  0  0  0  0  0  0  0
   10.1639    6.5224  -12.0225 C   0  0  0  0  0  0  0  0  0  0  0  0
    8.9732    6.7362  -11.0726 C   0  0  1  0  0  0  0  0  0  0  0  0
    8.1615    5.4663  -10.8290 C   0  0  0  0  0  0  0  0  0  0  0  0
    9.2738    7.4670   -9.8074 N   0  0  1  0  0  0  0  0  0  0  0  0
    9.8128    6.6420   -8.6839 C   0  0  0  0  0  0  0  0  0  0  0  0
   10.0372    7.4059   -7.3605 C   0  0  0  0  0  0  0  0  0  0  0  0
   11.4649    7.9395   -7.1718 C   0  0  0  0  0  0  0  0  0  0  0  0
   10.0208    8.6922  -10.1223 C   0  0  0  0  0  0  0  0  0  0  0  0
   11.3758    8.3126  -10.7112 C   0  0  0  0  0  0  0  0  0  0  0  0
    8.6293   -0.0947  -15.4981 H   0  0  0  0  0  0  0  0  0  0  0  0
   10.0860   -0.5288  -14.4466 H   0  0  0  0  0  0  0  0  0  0  0  0
   11.0189    1.6797  -14.7575 H   0  0  0  0  0  0  0  0  0  0  0  0
   10.0960    2.7216  -16.8945 H   0  0  0  0  0  0  0  0  0  0  0  0
    8.4936    2.1938  -16.5010 H   0  0  0  0  0  0  0  0  0  0  0  0
    6.9567    2.4679  -15.0997 H   0  0  0  0  0  0  0  0  0  0  0  0
    5.2908    2.8130  -13.3584 H   0  0  0  0  0  0  0  0  0  0  0  0
    5.7968    4.2660  -11.4436 H   0  0  0  0  0  0  0  0  0  0  0  0
   11.1976    4.6214  -14.6317 H   0  0  0  0  0  0  0  0  0  0  0  0
   13.0421    6.1263  -14.5497 H   0  0  0  0  0  0  0  0  0  0  0  0
   13.1986    7.8755  -12.8152 H   0  0  0  0  0  0  0  0  0  0  0  0
    8.3123    7.3975  -11.6361 H   0  0  0  0  0  0  0  0  0  0  0  0
    7.2852    5.7206  -10.2465 H   0  0  0  0  0  0  0  0  0  0  0  0
    8.7316    4.7397  -10.2507 H   0  0  0  0  0  0  0  0  0  0  0  0
    9.0729    5.8791   -8.4441 H   0  0  0  0  0  0  0  0  0  0  0  0
   10.7110    6.1034   -8.9887 H   0  0  0  0  0  0  0  0  0  0  0  0
    9.2977    8.1972   -7.2271 H   0  0  0  0  0  0  0  0  0  0  0  0
    9.8550    6.7044   -6.5445 H   0  0  0  0  0  0  0  0  0  0  0  0
   11.6372    8.2153   -6.1309 H   0  0  0  0  0  0  0  0  0  0  0  0
   11.6684    8.8241   -7.7722 H   0  0  0  0  0  0  0  0  0  0  0  0
   12.1987    7.1813   -7.4455 H   0  0  0  0  0  0  0  0  0  0  0  0
    9.4408    9.2647  -10.8464 H   0  0  0  0  0  0  0  0  0  0  0  0
   10.1194    9.3417   -9.2549 H   0  0  0  0  0  0  0  0  0  0  0  0
   11.9988    7.8291   -9.9600 H   0  0  0  0  0  0  0  0  0  0  0  0
   11.9219    9.2154  -10.9811 H   0  0  0  0  0  0  0  0  0  0  0  0
    8.3514    7.7706   -9.5026 H   0  0  0  0  0  0  0  0  0  0  0  0
  2  1  2  0
  3  2  1  0
  4  3  1  0
  5  4  1  0
  6  5  1  0
  7  6  2  0
  8  7  1  0
  9  8  2  0
 10  5  2  0
 10  9  1  0
 11 10  1  0
 12 11  1  0
 13 12  2  0
 14 13  1  0
 15 14  2  0
 16 11  2  0
 16 15  1  0
 17 16  1  0
 18  9  1  0
 18 17  1  0
 19 17  1  0
 20 19  1  0
 21 20  1  0
 22 21  1  0
 23 19  1  0
 24 15  1  0
 24 23  1  0
 25  1  1  0
 26  1  1  0
 27  2  1  0
 28  3  1  0
 29  3  1  0
 30  6  1  0
 31  7  1  0
 32  8  1  0
 33 12  1  0
 34 13  1  0
 35 14  1  0
 17 36  1  6
 37 18  1  0
 38 18  1  0
 39 20  1  0
 40 20  1  0
 41 21  1  0
 42 21  1  0
 43 22  1  0
 44 22  1  0
 45 22  1  0
 46 23  1  0
 47 23  1  0
 48 24  1  0
 49 24  1  0
 19 50  1  1
M  CHG  1  19   1
M  END
>  <b_m_subgroup_collapsed>  (1294) 
0

>  <r_i_docking_score>  (1294) 
-6.2468613350727997

>  <s_m_subgroup_title>  (1294) 
glide-dock_SP_D22_pv

>  <s_m_subgroupid>  (1294) 
glide-dock_SP_D22_pv

>  <Molecule ChEMBL ID>  (1294) 
CHEMBL598759

>  <Standard Type>  (1294) 
Ki

>  <Standard Value>  (1294) 
10000.0

>  <label>  (1294) 
0

$$$$
CHEMBL148042
     RDKit          3D

 45 48  0  0  1  0  0  0  0  0999 V2000
   12.3688    8.4443   -8.3503 C   0  0  0  0  0  0  0  0  0  0  0  0
   11.2435    7.7977   -9.0581 N   0  0  1  0  0  0  0  0  0  0  0  0
   10.3215    7.0863   -8.1385 C   0  0  0  0  0  0  0  0  0  0  0  0
    9.8823    5.7421   -8.7450 C   0  0  0  0  0  0  0  0  0  0  0  0
    8.9184    5.8492   -9.9374 C   0  0  0  0  0  0  0  0  0  0  0  0
    9.3918    6.7504  -10.9968 N   0  0  0  0  0  0  0  0  0  0  0  0
    9.9518    6.3146  -12.2032 C   0  0  0  0  0  0  0  0  0  0  0  0
   11.0507    6.8457  -12.6443 N   0  0  0  0  0  0  0  0  0  0  0  0
   11.7434    6.4819  -13.8117 C   0  0  0  0  0  0  0  0  0  0  0  0
   12.4864    7.4958  -14.4589 C   0  0  0  0  0  0  0  0  0  0  0  0
   13.2778    7.1839  -15.5795 C   0  0  0  0  0  0  0  0  0  0  0  0
   13.3322    5.8475  -16.0012 C   0  0  0  0  0  0  0  0  0  0  0  0
   12.6434    4.8602  -15.3969 N   0  0  0  0  0  0  0  0  0  0  0  0
   11.8579    5.1727  -14.3469 C   0  0  0  0  0  0  0  0  0  0  0  0
   11.1547    4.0879  -13.8467 N   0  0  0  0  0  0  0  0  0  0  0  0
    9.7858    4.1449  -13.6026 C   0  0  0  0  0  0  0  0  0  0  0  0
    8.9977    3.1019  -14.1317 C   0  0  0  0  0  0  0  0  0  0  0  0
    7.6025    3.1101  -13.9747 C   0  0  0  0  0  0  0  0  0  0  0  0
    6.9889    4.1728  -13.2930 C   0  0  0  0  0  0  0  0  0  0  0  0
    5.2867    4.1696  -13.0477 Cl  0  0  0  0  0  0  0  0  0  0  0  0
    7.7645    5.2275  -12.7854 C   0  0  0  0  0  0  0  0  0  0  0  0
    9.1783    5.2166  -12.8974 C   0  0  0  0  0  0  0  0  0  0  0  0
    9.3199    8.1736  -10.6625 C   0  0  0  0  0  0  0  0  0  0  0  0
   10.5790    8.7409   -9.9846 C   0  0  0  0  0  0  0  0  0  0  0  0
   12.0123    9.1610   -7.6099 H   0  0  0  0  0  0  0  0  0  0  0  0
   12.9619    7.6872   -7.8472 H   0  0  0  0  0  0  0  0  0  0  0  0
   13.0260    8.9643   -9.0461 H   0  0  0  0  0  0  0  0  0  0  0  0
    9.4653    7.7050   -7.8687 H   0  0  0  0  0  0  0  0  0  0  0  0
   10.8363    6.8676   -7.2029 H   0  0  0  0  0  0  0  0  0  0  0  0
    9.3905    5.1536   -7.9698 H   0  0  0  0  0  0  0  0  0  0  0  0
   10.7592    5.1693   -9.0337 H   0  0  0  0  0  0  0  0  0  0  0  0
    7.9375    6.1727   -9.5859 H   0  0  0  0  0  0  0  0  0  0  0  0
    8.7583    4.8428  -10.3322 H   0  0  0  0  0  0  0  0  0  0  0  0
   12.4732    8.5126  -14.0959 H   0  0  0  0  0  0  0  0  0  0  0  0
   13.8466    7.9476  -16.0862 H   0  0  0  0  0  0  0  0  0  0  0  0
   13.9408    5.5635  -16.8447 H   0  0  0  0  0  0  0  0  0  0  0  0
   11.4523    3.2321  -14.2917 H   0  0  0  0  0  0  0  0  0  0  0  0
    9.4594    2.2840  -14.6651 H   0  0  0  0  0  0  0  0  0  0  0  0
    7.0041    2.3009  -14.3666 H   0  0  0  0  0  0  0  0  0  0  0  0
    7.2567    6.0265  -12.2612 H   0  0  0  0  0  0  0  0  0  0  0  0
    9.0704    8.7542  -11.5530 H   0  0  0  0  0  0  0  0  0  0  0  0
    8.4860    8.3279   -9.9815 H   0  0  0  0  0  0  0  0  0  0  0  0
   10.3157    9.6572   -9.4526 H   0  0  0  0  0  0  0  0  0  0  0  0
   11.3033    9.0160  -10.7500 H   0  0  0  0  0  0  0  0  0  0  0  0
   11.6442    7.0820   -9.6478 H   0  0  0  0  0  0  0  0  0  0  0  0
  2  1  1  0
  3  2  1  0
  4  3  1  0
  5  4  1  0
  6  5  1  0
  7  6  1  0
  8  7  2  0
  9  8  1  0
 10  9  1  0
 11 10  2  0
 12 11  1  0
 13 12  2  0
 14  9  2  0
 14 13  1  0
 15 14  1  0
 16 15  1  0
 17 16  1  0
 18 17  2  0
 19 18  1  0
 20 19  1  0
 21 19  2  0
 22  7  1  0
 22 16  2  0
 22 21  1  0
 23  6  1  0
 24  2  1  0
 24 23  1  0
 25  1  1  0
 26  1  1  0
 27  1  1  0
 28  3  1  0
 29  3  1  0
 30  4  1  0
 31  4  1  0
 32  5  1  0
 33  5  1  0
 34 10  1  0
 35 11  1  0
 36 12  1  0
 37 15  1  0
 38 17  1  0
 39 18  1  0
 40 21  1  0
 41 23  1  0
 42 23  1  0
 43 24  1  0
 44 24  1  0
  2 45  1  6
M  CHG  1   2   1
M  END
>  <b_m_subgroup_collapsed>  (1295) 
0

>  <r_i_docking_score>  (1295) 
-6.2461028333662902

>  <s_m_subgroup_title>  (1295) 
glide-dock_SP_D22_pv

>  <s_m_subgroupid>  (1295) 
glide-dock_SP_D22_pv

>  <Molecule ChEMBL ID>  (1295) 
CHEMBL148042

>  <Standard Type>  (1295) 
Ki

>  <Standard Value>  (1295) 
19117.0

>  <label>  (1295) 
0

$$$$
CHEMBL2031874
     RDKit          3D

 59 62  0  0  1  0  0  0  0  0999 V2000
   12.5560    8.4386   -8.6907 C   0  0  0  0  0  0  0  0  0  0  0  0
   11.4315    8.7923   -7.8225 N   0  0  0  0  0  0  0  0  0  0  0  0
   11.7602    9.6269   -6.6607 C   0  0  0  0  0  0  0  0  0  0  0  0
   10.1689    8.3279   -7.9859 C   0  0  0  0  0  0  0  0  0  0  0  0
    9.2788    8.5704   -7.1699 O   0  0  0  0  0  0  0  0  0  0  0  0
    9.8589    7.4400   -9.1649 C   0  0  0  0  0  0  0  0  0  0  0  0
   10.0944    7.8486  -10.4998 C   0  0  0  0  0  0  0  0  0  0  0  0
    9.7445    7.0097  -11.5810 C   0  0  0  0  0  0  0  0  0  0  0  0
    9.1215    5.7612  -11.3592 C   0  0  0  0  0  0  0  0  0  0  0  0
    8.7034    4.8762  -12.4670 C   0  0  0  0  0  0  0  0  0  0  0  0
    9.5973    4.4836  -13.4887 C   0  0  0  0  0  0  0  0  0  0  0  0
    9.2167    3.5270  -14.4580 C   0  0  0  0  0  0  0  0  0  0  0  0
    7.9333    2.9330  -14.4200 C   0  0  0  0  0  0  0  0  0  0  0  0
    7.0206    3.3723  -13.4412 C   0  0  0  0  0  0  0  0  0  0  0  0
    7.3990    4.3398  -12.4871 C   0  0  0  0  0  0  0  0  0  0  0  0
    5.6860    2.6773  -13.3009 C   0  0  0  0  0  0  0  0  0  0  0  0
    5.7582    1.2155  -13.7900 C   0  0  0  0  0  0  0  0  0  0  0  0
    6.4862    1.0500  -15.0685 N   0  0  0  0  0  0  0  0  0  0  0  0
    6.0688   -0.0063  -16.0300 C   0  0  0  0  0  0  0  0  0  0  0  0
    4.8752   -0.9237  -15.6272 C   0  0  0  0  0  0  0  0  0  0  0  0
    4.4741   -1.9448  -16.6398 N   0  0  0  0  0  0  0  0  0  0  0  0
    3.8682   -1.4387  -17.8844 C   0  0  0  0  0  0  0  0  0  0  0  0
    3.8078   -2.6597  -18.8052 C   0  0  0  0  0  0  0  0  0  0  0  0
    4.8969   -3.6160  -18.2877 C   0  0  0  0  0  0  0  0  0  0  0  0
    5.4840   -2.9398  -17.0446 C   0  0  0  0  0  0  0  0  0  0  0  0
    7.5386    1.8508  -15.3985 C   0  0  0  0  0  0  0  0  0  0  0  0
    8.1722    1.7179  -16.4475 O   0  0  0  0  0  0  0  0  0  0  0  0
    8.8862    5.3678  -10.0225 C   0  0  0  0  0  0  0  0  0  0  0  0
    9.2471    6.1903   -8.9401 C   0  0  0  0  0  0  0  0  0  0  0  0
   12.5575    7.3727   -8.9082 H   0  0  0  0  0  0  0  0  0  0  0  0
   12.4868    8.9738   -9.6365 H   0  0  0  0  0  0  0  0  0  0  0  0
   13.5244    8.6757   -8.2508 H   0  0  0  0  0  0  0  0  0  0  0  0
   11.1421   10.5242   -6.6411 H   0  0  0  0  0  0  0  0  0  0  0  0
   11.5827    9.0784   -5.7359 H   0  0  0  0  0  0  0  0  0  0  0  0
   12.8010    9.9528   -6.6470 H   0  0  0  0  0  0  0  0  0  0  0  0
   10.5270    8.8162  -10.7069 H   0  0  0  0  0  0  0  0  0  0  0  0
    9.9257    7.3440  -12.5908 H   0  0  0  0  0  0  0  0  0  0  0  0
   10.6006    4.8818  -13.5057 H   0  0  0  0  0  0  0  0  0  0  0  0
    9.9344    3.2239  -15.2067 H   0  0  0  0  0  0  0  0  0  0  0  0
    6.7005    4.6241  -11.7102 H   0  0  0  0  0  0  0  0  0  0  0  0
    5.3691    2.6927  -12.2575 H   0  0  0  0  0  0  0  0  0  0  0  0
    4.9426    3.2514  -13.8467 H   0  0  0  0  0  0  0  0  0  0  0  0
    6.2941    0.6191  -13.0487 H   0  0  0  0  0  0  0  0  0  0  0  0
    4.7406    0.8353  -13.8109 H   0  0  0  0  0  0  0  0  0  0  0  0
    5.8362    0.4888  -16.9733 H   0  0  0  0  0  0  0  0  0  0  0  0
    6.9452   -0.6285  -16.2148 H   0  0  0  0  0  0  0  0  0  0  0  0
    5.1103   -1.4458  -14.6984 H   0  0  0  0  0  0  0  0  0  0  0  0
    3.9848   -0.3215  -15.4403 H   0  0  0  0  0  0  0  0  0  0  0  0
    2.8860   -1.0055  -17.7067 H   0  0  0  0  0  0  0  0  0  0  0  0
    4.5041   -0.6771  -18.3401 H   0  0  0  0  0  0  0  0  0  0  0  0
    2.8313   -3.1436  -18.7212 H   0  0  0  0  0  0  0  0  0  0  0  0
    3.9540   -2.3915  -19.8529 H   0  0  0  0  0  0  0  0  0  0  0  0
    4.4489   -4.5753  -18.0222 H   0  0  0  0  0  0  0  0  0  0  0  0
    5.6657   -3.8091  -19.0403 H   0  0  0  0  0  0  0  0  0  0  0  0
    6.4184   -2.4541  -17.3245 H   0  0  0  0  0  0  0  0  0  0  0  0
    5.6884   -3.6503  -16.2428 H   0  0  0  0  0  0  0  0  0  0  0  0
    8.4010    4.4257   -9.8180 H   0  0  0  0  0  0  0  0  0  0  0  0
    9.0292    5.8672   -7.9334 H   0  0  0  0  0  0  0  0  0  0  0  0
    3.7371   -2.5127  -16.2334 H   0  0  0  0  0  0  0  0  0  0  0  0
  2  1  1  0
  3  2  1  0
  4  2  1  0
  5  4  2  0
  6  4  1  0
  7  6  1  0
  8  7  2  0
  9  8  1  0
 10  9  1  0
 11 10  1  0
 12 11  2  0
 13 12  1  0
 14 13  2  0
 15 10  2  0
 15 14  1  0
 16 14  1  0
 17 16  1  0
 18 17  1  0
 19 18  1  0
 20 19  1  0
 21 20  1  0
 22 21  1  0
 23 22  1  0
 24 23  1  0
 25 21  1  0
 25 24  1  0
 26 13  1  0
 26 18  1  0
 27 26  2  0
 28  9  2  0
 29  6  2  0
 29 28  1  0
 30  1  1  0
 31  1  1  0
 32  1  1  0
 33  3  1  0
 34  3  1  0
 35  3  1  0
 36  7  1  0
 37  8  1  0
 38 11  1  0
 39 12  1  0
 40 15  1  0
 41 16  1  0
 42 16  1  0
 43 17  1  0
 44 17  1  0
 45 19  1  0
 46 19  1  0
 47 20  1  0
 48 20  1  0
 49 22  1  0
 50 22  1  0
 51 23  1  0
 52 23  1  0
 53 24  1  0
 54 24  1  0
 55 25  1  0
 56 25  1  0
 57 28  1  0
 58 29  1  0
 59 21  1  0
M  CHG  1  21   1
M  END
>  <b_m_subgroup_collapsed>  (1296) 
0

>  <r_i_docking_score>  (1296) 
-6.2321996370474499

>  <s_m_subgroup_title>  (1296) 
glide-dock_SP_D22_pv

>  <s_m_subgroupid>  (1296) 
glide-dock_SP_D22_pv

>  <Molecule ChEMBL ID>  (1296) 
CHEMBL2031874

>  <Standard Type>  (1296) 
Ki

>  <Standard Value>  (1296) 
10000.0

>  <label>  (1296) 
0

$$$$
CHEMBL3799120
     RDKit          3D

 58 61  0  0  1  0  0  0  0  0999 V2000
   11.4218    6.2066  -18.2063 C   0  0  0  0  0  0  0  0  0  0  0  0
   11.0142    4.7345  -18.3588 C   0  0  0  0  0  0  0  0  0  0  0  0
    9.4983    4.5206  -18.2305 C   0  0  0  0  0  0  0  0  0  0  0  0
   11.9863    3.6403  -17.2104 S   0  0  0  0  0  0  0  0  0  0  0  0
   13.4230    3.8604  -17.4422 O   0  0  0  0  0  0  0  0  0  0  0  0
   11.4169    2.2832  -17.1858 O   0  0  0  0  0  0  0  0  0  0  0  0
   11.6449    4.3508  -15.6733 N   0  0  0  0  0  0  0  0  0  0  0  0
   12.4930    5.2399  -15.0257 C   0  0  0  0  0  0  0  0  0  0  0  0
   11.9269    5.6475  -13.8472 C   0  0  0  0  0  0  0  0  0  0  0  0
   10.6522    4.9962  -13.7555 C   0  0  0  0  0  0  0  0  0  0  0  0
    9.5684    4.9894  -12.8414 C   0  0  0  0  0  0  0  0  0  0  0  0
    9.6009    5.7855  -11.5972 C   0  0  0  0  0  0  0  0  0  0  0  0
    9.2072    5.2048  -10.3695 C   0  0  0  0  0  0  0  0  0  0  0  0
    9.2803    5.9294   -9.1635 C   0  0  0  0  0  0  0  0  0  0  0  0
    9.7439    7.2602   -9.1632 C   0  0  0  0  0  0  0  0  0  0  0  0
    9.8477    8.0557   -7.8710 C   0  0  0  0  0  0  0  0  0  0  0  0
    9.7301    7.2763   -6.7964 F   0  0  0  0  0  0  0  0  0  0  0  0
   11.0281    8.6737   -7.8130 F   0  0  0  0  0  0  0  0  0  0  0  0
    8.8867    8.9719   -7.8454 F   0  0  0  0  0  0  0  0  0  0  0  0
   10.1147    7.8592  -10.3843 C   0  0  0  0  0  0  0  0  0  0  0  0
   10.0448    7.1264  -11.5873 C   0  0  0  0  0  0  0  0  0  0  0  0
    8.4577    4.1624  -13.1256 C   0  0  0  0  0  0  0  0  0  0  0  0
    8.4496    3.3244  -14.2701 C   0  0  0  0  0  0  0  0  0  0  0  0
    7.3880    2.4216  -14.5517 N   0  0  0  0  0  0  0  0  0  0  0  0
    7.2842    1.7461  -15.8519 C   0  0  0  0  0  0  0  0  0  0  0  0
    6.9696    0.2515  -15.6719 C   0  0  0  0  0  0  0  0  0  0  0  0
    5.7675    0.0640  -14.8266 N   0  0  0  0  0  0  0  0  0  0  0  0
    5.3557   -1.3551  -14.7231 C   0  0  0  0  0  0  0  0  0  0  0  0
    5.9159    0.7193  -13.5036 C   0  0  0  0  0  0  0  0  0  0  0  0
    6.2642    2.2175  -13.6370 C   0  0  0  0  0  0  0  0  0  0  0  0
    9.4613    3.3363  -15.1630 N   0  0  0  0  0  0  0  0  0  0  0  0
   10.5148    4.1551  -14.8922 C   0  0  0  0  0  0  0  0  0  0  0  0
   10.9368    6.8287  -18.9599 H   0  0  0  0  0  0  0  0  0  0  0  0
   11.1412    6.5943  -17.2267 H   0  0  0  0  0  0  0  0  0  0  0  0
   12.4983    6.3304  -18.3196 H   0  0  0  0  0  0  0  0  0  0  0  0
   11.3036    4.4094  -19.3580 H   0  0  0  0  0  0  0  0  0  0  0  0
    8.9671    5.0336  -19.0332 H   0  0  0  0  0  0  0  0  0  0  0  0
    9.2375    3.4632  -18.2804 H   0  0  0  0  0  0  0  0  0  0  0  0
    9.1177    4.9160  -17.2890 H   0  0  0  0  0  0  0  0  0  0  0  0
   13.4482    5.5110  -15.4585 H   0  0  0  0  0  0  0  0  0  0  0  0
   12.3556    6.3353  -13.1309 H   0  0  0  0  0  0  0  0  0  0  0  0
    8.8601    4.1826  -10.3401 H   0  0  0  0  0  0  0  0  0  0  0  0
    8.9772    5.4566   -8.2407 H   0  0  0  0  0  0  0  0  0  0  0  0
   10.4604    8.8820  -10.4006 H   0  0  0  0  0  0  0  0  0  0  0  0
   10.3375    7.6052  -12.5116 H   0  0  0  0  0  0  0  0  0  0  0  0
    7.6300    4.1953  -12.4344 H   0  0  0  0  0  0  0  0  0  0  0  0
    6.4877    2.2273  -16.4226 H   0  0  0  0  0  0  0  0  0  0  0  0
    8.1804    1.8247  -16.4647 H   0  0  0  0  0  0  0  0  0  0  0  0
    6.8133   -0.2079  -16.6476 H   0  0  0  0  0  0  0  0  0  0  0  0
    7.8224   -0.2554  -15.2143 H   0  0  0  0  0  0  0  0  0  0  0  0
    6.0789   -1.9333  -14.1451 H   0  0  0  0  0  0  0  0  0  0  0  0
    4.3837   -1.4312  -14.2356 H   0  0  0  0  0  0  0  0  0  0  0  0
    5.2679   -1.8137  -15.7097 H   0  0  0  0  0  0  0  0  0  0  0  0
    4.9973    0.6073  -12.9280 H   0  0  0  0  0  0  0  0  0  0  0  0
    6.7029    0.2029  -12.9491 H   0  0  0  0  0  0  0  0  0  0  0  0
    6.4696    2.5936  -12.6395 H   0  0  0  0  0  0  0  0  0  0  0  0
    5.4051    2.7795  -14.0064 H   0  0  0  0  0  0  0  0  0  0  0  0
    5.0140    0.5410  -15.3026 H   0  0  0  0  0  0  0  0  0  0  0  0
  2  1  1  0
  3  2  1  0
  4  2  1  0
  5  4  2  0
  6  4  2  0
  7  4  1  0
  8  7  1  0
  9  8  2  0
 10  9  1  0
 11 10  1  0
 12 11  1  0
 13 12  1  0
 14 13  2  0
 15 14  1  0
 16 15  1  0
 17 16  1  0
 18 16  1  0
 19 16  1  0
 20 15  2  0
 21 12  2  0
 21 20  1  0
 22 11  2  0
 23 22  1  0
 24 23  1  0
 25 24  1  0
 26 25  1  0
 27 26  1  0
 28 27  1  0
 29 27  1  0
 30 24  1  0
 30 29  1  0
 31 23  2  0
 32  7  1  0
 32 10  2  0
 32 31  1  0
 33  1  1  0
 34  1  1  0
 35  1  1  0
 36  2  1  0
 37  3  1  0
 38  3  1  0
 39  3  1  0
 40  8  1  0
 41  9  1  0
 42 13  1  0
 43 14  1  0
 44 20  1  0
 45 21  1  0
 46 22  1  0
 47 25  1  0
 48 25  1  0
 49 26  1  0
 50 26  1  0
 51 28  1  0
 52 28  1  0
 53 28  1  0
 54 29  1  0
 55 29  1  0
 56 30  1  0
 57 30  1  0
 58 27  1  0
M  CHG  1  27   1
M  END
>  <b_m_subgroup_collapsed>  (1297) 
0

>  <r_i_docking_score>  (1297) 
-6.22529419263648

>  <s_m_subgroup_title>  (1297) 
glide-dock_SP_D22_pv

>  <s_m_subgroupid>  (1297) 
glide-dock_SP_D22_pv

>  <Molecule ChEMBL ID>  (1297) 
CHEMBL3799120

>  <Standard Type>  (1297) 
Ki

>  <Standard Value>  (1297) 
25.0

>  <label>  (1297) 
1

$$$$
CHEMBL3753266
     RDKit          3D

 44 47  0  0  1  0  0  0  0  0999 V2000
    9.5071    4.3835  -18.3109 C   0  0  0  0  0  0  0  0  0  0  0  0
   10.4537    3.7193  -17.3816 N   0  0  2  0  0  0  0  0  0  0  0  0
   11.7959    3.5528  -18.0023 C   0  0  0  0  0  0  0  0  0  0  0  0
   12.9465    3.8353  -17.0232 C   0  0  0  0  0  0  0  0  0  0  0  0
   12.9015    5.2543  -16.4693 C   0  0  0  0  0  0  0  0  0  0  0  0
   13.2880    6.2951  -17.3429 C   0  0  0  0  0  0  0  0  0  0  0  0
   13.2798    7.6337  -16.9180 C   0  0  0  0  0  0  0  0  0  0  0  0
   12.8853    7.9444  -15.6066 C   0  0  0  0  0  0  0  0  0  0  0  0
   12.4928    6.9197  -14.7277 C   0  0  0  0  0  0  0  0  0  0  0  0
   12.4993    5.5693  -15.1397 C   0  0  0  0  0  0  0  0  0  0  0  0
   12.1285    4.5227  -14.0944 C   0  0  0  0  0  0  0  0  0  0  0  0
   10.6542    4.3360  -13.9086 C   0  0  0  0  0  0  0  0  0  0  0  0
    9.8240    5.4265  -12.8373 S   0  0  0  0  0  0  0  0  0  0  0  0
    8.3118    4.5823  -13.0614 C   0  0  0  0  0  0  0  0  0  0  0  0
    7.0730    4.8722  -12.4579 C   0  0  0  0  0  0  0  0  0  0  0  0
    5.9582    4.0648  -12.7346 C   0  0  0  0  0  0  0  0  0  0  0  0
    6.0860    2.9852  -13.6249 C   0  0  0  0  0  0  0  0  0  0  0  0
    7.3205    2.7147  -14.2451 C   0  0  0  0  0  0  0  0  0  0  0  0
    8.4762    3.4863  -13.9672 C   0  0  0  0  0  0  0  0  0  0  0  0
    9.8440    3.3491  -14.4375 C   0  0  0  0  0  0  0  0  0  0  0  0
   10.2926    2.2357  -15.3459 C   0  0  0  0  0  0  0  0  0  0  0  0
    9.8916    2.4625  -16.8136 C   0  0  0  0  0  0  0  0  0  0  0  0
    9.3587    3.7848  -19.2126 H   0  0  0  0  0  0  0  0  0  0  0  0
    9.8843    5.3646  -18.6087 H   0  0  0  0  0  0  0  0  0  0  0  0
    8.5342    4.5464  -17.8469 H   0  0  0  0  0  0  0  0  0  0  0  0
   11.9017    2.5581  -18.4384 H   0  0  0  0  0  0  0  0  0  0  0  0
   11.9014    4.2426  -18.8431 H   0  0  0  0  0  0  0  0  0  0  0  0
   12.9903    3.0741  -16.2531 H   0  0  0  0  0  0  0  0  0  0  0  0
   13.8872    3.7210  -17.5622 H   0  0  0  0  0  0  0  0  0  0  0  0
   13.5996    6.0699  -18.3518 H   0  0  0  0  0  0  0  0  0  0  0  0
   13.5763    8.4232  -17.5931 H   0  0  0  0  0  0  0  0  0  0  0  0
   12.8861    8.9700  -15.2729 H   0  0  0  0  0  0  0  0  0  0  0  0
   12.2071    7.1772  -13.7183 H   0  0  0  0  0  0  0  0  0  0  0  0
   12.6079    3.5730  -14.2810 H   0  0  0  0  0  0  0  0  0  0  0  0
   12.5630    4.8432  -13.1453 H   0  0  0  0  0  0  0  0  0  0  0  0
    6.9828    5.7026  -11.7678 H   0  0  0  0  0  0  0  0  0  0  0  0
    5.0121    4.2671  -12.2555 H   0  0  0  0  0  0  0  0  0  0  0  0
    5.2331    2.3557  -13.8319 H   0  0  0  0  0  0  0  0  0  0  0  0
    7.3929    1.8715  -14.9134 H   0  0  0  0  0  0  0  0  0  0  0  0
   11.3596    2.0467  -15.2618 H   0  0  0  0  0  0  0  0  0  0  0  0
    9.8384    1.3018  -15.0125 H   0  0  0  0  0  0  0  0  0  0  0  0
    8.8016    2.4986  -16.8526 H   0  0  0  0  0  0  0  0  0  0  0  0
   10.1724    1.6025  -17.4249 H   0  0  0  0  0  0  0  0  0  0  0  0
   10.5617    4.3632  -16.6065 H   0  0  0  0  0  0  0  0  0  0  0  0
  2  1  1  0
  3  2  1  0
  4  3  1  0
  5  4  1  0
  6  5  2  0
  7  6  1  0
  8  7  2  0
  9  8  1  0
 10  5  1  0
 10  9  2  0
 11 10  1  0
 12 11  1  0
 13 12  1  0
 14 13  1  0
 15 14  2  0
 16 15  1  0
 17 16  2  0
 18 17  1  0
 19 14  1  0
 19 18  2  0
 20 12  2  0
 20 19  1  0
 21 20  1  0
 22  2  1  0
 22 21  1  0
 23  1  1  0
 24  1  1  0
 25  1  1  0
 26  3  1  0
 27  3  1  0
 28  4  1  0
 29  4  1  0
 30  6  1  0
 31  7  1  0
 32  8  1  0
 33  9  1  0
 34 11  1  0
 35 11  1  0
 36 15  1  0
 37 16  1  0
 38 17  1  0
 39 18  1  0
 40 21  1  0
 41 21  1  0
 42 22  1  0
 43 22  1  0
  2 44  1  1
M  CHG  1   2   1
M  END
>  <b_m_subgroup_collapsed>  (1298) 
0

>  <r_i_docking_score>  (1298) 
-6.2230908200908601

>  <s_m_subgroup_title>  (1298) 
glide-dock_SP_D22_pv

>  <s_m_subgroupid>  (1298) 
glide-dock_SP_D22_pv

>  <Molecule ChEMBL ID>  (1298) 
CHEMBL3753266

>  <Standard Type>  (1298) 
Ki

>  <Standard Value>  (1298) 
1.5

>  <label>  (1298) 
1

$$$$
CHEMBL4085752
     RDKit          3D

 63 67  0  0  1  0  0  0  0  0999 V2000
   12.3614    6.1724   -2.1616 O   0  0  0  0  0  0  0  0  0  0  0  0
   12.3487    7.3354   -2.9768 N   0  0  0  0  0  0  0  0  0  0  0  0
   11.6861    7.0894   -4.0256 C   0  0  0  0  0  0  0  0  0  0  0  0
   11.5484    8.0670   -5.1079 C   0  0  0  0  0  0  0  0  0  0  0  0
   12.0861    9.3733   -5.1055 C   0  0  0  0  0  0  0  0  0  0  0  0
   11.9258   10.0022   -6.2468 N   0  0  0  0  0  0  0  0  0  0  0  0
   11.2863    9.0832   -7.0432 N   0  0  0  0  0  0  0  0  0  0  0  0
   10.9820    9.2564   -8.3531 C   0  0  0  0  0  0  0  0  0  0  0  0
   10.3013    8.2809   -9.0217 C   0  0  0  0  0  0  0  0  0  0  0  0
    9.9199    7.0781   -8.3636 C   0  0  0  0  0  0  0  0  0  0  0  0
    9.2175    6.0803   -8.9946 O   0  0  0  0  0  0  0  0  0  0  0  0
    9.0265    6.2165  -10.3993 C   0  0  0  0  0  0  0  0  0  0  0  0
    8.2151    5.0308  -10.8938 C   0  0  0  0  0  0  0  0  0  0  0  0
    8.3892    4.7411  -12.3927 C   0  0  0  0  0  0  0  0  0  0  0  0
    9.7285    4.0415  -12.7036 C   0  0  0  0  0  0  0  0  0  0  0  0
   10.1484    4.2690  -14.0831 N   0  0  0  0  0  0  0  0  0  0  0  0
   11.5540    3.8783  -14.2401 C   0  0  0  0  0  0  0  0  0  0  0  0
   12.0402    4.2218  -15.6632 C   0  0  0  0  0  0  0  0  0  0  0  0
   11.1921    3.5688  -16.6534 N   0  0  0  0  0  0  0  0  0  0  0  0
   11.7199    2.5127  -17.4206 C   0  0  0  0  0  0  0  0  0  0  0  0
   12.8778    2.7682  -18.1892 C   0  0  0  0  0  0  0  0  0  0  0  0
   13.4469    1.7682  -18.9981 C   0  0  0  0  0  0  0  0  0  0  0  0
   12.8621    0.4914  -19.0489 C   0  0  0  0  0  0  0  0  0  0  0  0
   13.4172   -0.4809  -19.8325 O   0  0  0  0  0  0  0  0  0  0  0  0
   11.7021    0.2162  -18.2969 C   0  0  0  0  0  0  0  0  0  0  0  0
   11.1402    1.2159  -17.4553 C   0  0  0  0  0  0  0  0  0  0  0  0
   10.0456    0.9223  -16.6691 O   0  0  0  0  0  0  0  0  0  0  0  0
    9.7497   -0.4598  -16.5208 C   0  0  0  0  0  0  0  0  0  0  0  0
    9.8096   -1.1293  -17.8982 C   0  0  0  0  0  0  0  0  0  0  0  0
   11.1365   -1.0342  -18.3923 O   0  0  0  0  0  0  0  0  0  0  0  0
    9.7589    3.7745  -16.4680 C   0  0  0  0  0  0  0  0  0  0  0  0
    9.3422    3.4704  -15.0126 C   0  0  0  0  0  0  0  0  0  0  0  0
   10.2707    6.8841   -7.0436 C   0  0  0  0  0  0  0  0  0  0  0  0
   10.9840    7.8963   -6.3437 C   0  0  0  0  0  0  0  0  0  0  0  0
   11.7344    5.6012   -2.5836 H   0  0  0  0  0  0  0  0  0  0  0  0
   11.1976    6.1227   -4.1799 H   0  0  0  0  0  0  0  0  0  0  0  0
   12.6276    9.8502   -4.3004 H   0  0  0  0  0  0  0  0  0  0  0  0
   11.2859   10.1726   -8.8319 H   0  0  0  0  0  0  0  0  0  0  0  0
   10.0591    8.4730  -10.0605 H   0  0  0  0  0  0  0  0  0  0  0  0
    8.4867    7.1289  -10.6524 H   0  0  0  0  0  0  0  0  0  0  0  0
   10.0002    6.2524  -10.8881 H   0  0  0  0  0  0  0  0  0  0  0  0
    8.5009    4.1725  -10.3051 H   0  0  0  0  0  0  0  0  0  0  0  0
    7.1730    5.2295  -10.6616 H   0  0  0  0  0  0  0  0  0  0  0  0
    7.5673    4.1125  -12.7353 H   0  0  0  0  0  0  0  0  0  0  0  0
    8.3062    5.6792  -12.9444 H   0  0  0  0  0  0  0  0  0  0  0  0
   10.4857    4.4606  -12.0458 H   0  0  0  0  0  0  0  0  0  0  0  0
    9.6856    2.9756  -12.4731 H   0  0  0  0  0  0  0  0  0  0  0  0
   12.1717    4.4131  -13.5169 H   0  0  0  0  0  0  0  0  0  0  0  0
   11.6802    2.8119  -14.0425 H   0  0  0  0  0  0  0  0  0  0  0  0
   12.0031    5.3003  -15.8249 H   0  0  0  0  0  0  0  0  0  0  0  0
   13.0810    3.9212  -15.7768 H   0  0  0  0  0  0  0  0  0  0  0  0
   13.3313    3.7487  -18.1687 H   0  0  0  0  0  0  0  0  0  0  0  0
   14.3309    1.9890  -19.5776 H   0  0  0  0  0  0  0  0  0  0  0  0
   14.1941   -0.2017  -20.2916 H   0  0  0  0  0  0  0  0  0  0  0  0
   10.4551   -0.9194  -15.8263 H   0  0  0  0  0  0  0  0  0  0  0  0
    8.7550   -0.5644  -16.0877 H   0  0  0  0  0  0  0  0  0  0  0  0
    9.5303   -2.1813  -17.8372 H   0  0  0  0  0  0  0  0  0  0  0  0
    9.1168   -0.6518  -18.5937 H   0  0  0  0  0  0  0  0  0  0  0  0
    9.5336    4.8162  -16.7009 H   0  0  0  0  0  0  0  0  0  0  0  0
    9.1821    3.1749  -17.1715 H   0  0  0  0  0  0  0  0  0  0  0  0
    9.4568    2.4094  -14.7875 H   0  0  0  0  0  0  0  0  0  0  0  0
    8.2851    3.7047  -14.8912 H   0  0  0  0  0  0  0  0  0  0  0  0
   10.0049    5.9638   -6.5377 H   0  0  0  0  0  0  0  0  0  0  0  0
  2  1  1  0
  3  2  2  0
  4  3  1  0
  5  4  1  0
  6  5  2  0
  7  6  1  0
  8  7  1  0
  9  8  2  0
 10  9  1  0
 11 10  1  0
 12 11  1  0
 13 12  1  0
 14 13  1  0
 15 14  1  0
 16 15  1  0
 17 16  1  0
 18 17  1  0
 19 18  1  0
 20 19  1  0
 21 20  1  0
 22 21  2  0
 23 22  1  0
 24 23  1  0
 25 23  2  0
 26 20  2  0
 26 25  1  0
 27 26  1  0
 28 27  1  0
 29 28  1  0
 30 25  1  0
 30 29  1  0
 31 19  1  0
 32 16  1  0
 32 31  1  0
 33 10  2  0
 34  4  2  0
 34  7  1  0
 34 33  1  0
 35  1  1  0
 36  3  1  0
 37  5  1  0
 38  8  1  0
 39  9  1  0
 40 12  1  0
 41 12  1  0
 42 13  1  0
 43 13  1  0
 44 14  1  0
 45 14  1  0
 46 15  1  0
 47 15  1  0
 48 17  1  0
 49 17  1  0
 50 18  1  0
 51 18  1  0
 52 21  1  0
 53 22  1  0
 54 24  1  0
 55 28  1  0
 56 28  1  0
 57 29  1  0
 58 29  1  0
 59 31  1  0
 60 31  1  0
 61 32  1  0
 62 32  1  0
 63 33  1  0
M  END
>  <b_m_subgroup_collapsed>  (1299) 
0

>  <r_i_docking_score>  (1299) 
-6.2228151550198598

>  <s_m_subgroup_title>  (1299) 
glide-dock_SP_D22_pv

>  <s_m_subgroupid>  (1299) 
glide-dock_SP_D22_pv

>  <Molecule ChEMBL ID>  (1299) 
CHEMBL4085752

>  <Standard Type>  (1299) 
Ki

>  <Standard Value>  (1299) 
16.0

>  <label>  (1299) 
1

$$$$
CHEMBL328595
     RDKit          3D

 44 46  0  0  1  0  0  0  0  0999 V2000
    9.3156    7.9037   -8.6000 C   0  0  0  0  0  0  0  0  0  0  0  0
    9.9027    7.5254   -9.9696 C   0  0  0  0  0  0  0  0  0  0  0  0
    8.8865    7.5507  -11.0538 N   0  0  1  0  0  0  0  0  0  0  0  0
    8.4934    8.9260  -11.4448 C   0  0  0  0  0  0  0  0  0  0  0  0
    9.2718    6.8029  -12.2763 C   0  0  0  0  0  0  0  0  0  0  0  0
    9.4567    5.2829  -12.1392 C   0  0  0  0  0  0  0  0  0  0  0  0
    9.7088    4.6587  -13.4909 C   0  0  0  0  0  0  0  0  0  0  0  0
    8.8772    3.8225  -14.2045 C   0  0  0  0  0  0  0  0  0  0  0  0
    7.5568    3.2926  -13.8922 C   0  0  0  0  0  0  0  0  0  0  0  0
    6.6124    4.0842  -13.2044 C   0  0  0  0  0  0  0  0  0  0  0  0
    5.3931    3.5358  -12.7814 C   0  0  0  0  0  0  0  0  0  0  0  0
    5.1015    2.1870  -13.0469 C   0  0  0  0  0  0  0  0  0  0  0  0
    5.9990    1.4077  -13.8022 C   0  0  0  0  0  0  0  0  0  0  0  0
    5.6976    0.1191  -14.0882 F   0  0  0  0  0  0  0  0  0  0  0  0
    7.2132    1.9663  -14.2468 C   0  0  0  0  0  0  0  0  0  0  0  0
    9.4949    3.4694  -15.3913 N   0  0  0  0  0  0  0  0  0  0  0  0
   10.7246    4.0757  -15.5031 C   0  0  0  0  0  0  0  0  0  0  0  0
   11.7049    4.0395  -16.5103 C   0  0  0  0  0  0  0  0  0  0  0  0
   12.8855    4.7852  -16.3496 C   0  0  0  0  0  0  0  0  0  0  0  0
   13.0695    5.5528  -15.1848 C   0  0  0  0  0  0  0  0  0  0  0  0
   12.0860    5.5723  -14.1754 C   0  0  0  0  0  0  0  0  0  0  0  0
   10.8841    4.8378  -14.3085 C   0  0  0  0  0  0  0  0  0  0  0  0
   10.0723    7.8126   -7.8207 H   0  0  0  0  0  0  0  0  0  0  0  0
    8.9460    8.9281   -8.5701 H   0  0  0  0  0  0  0  0  0  0  0  0
    8.4917    7.2428   -8.3298 H   0  0  0  0  0  0  0  0  0  0  0  0
   10.3196    6.5246   -9.8696 H   0  0  0  0  0  0  0  0  0  0  0  0
   10.7358    8.1824  -10.2249 H   0  0  0  0  0  0  0  0  0  0  0  0
    9.2859    9.3724  -12.0385 H   0  0  0  0  0  0  0  0  0  0  0  0
    7.5958    8.9075  -12.0636 H   0  0  0  0  0  0  0  0  0  0  0  0
    8.2783    9.5667  -10.5908 H   0  0  0  0  0  0  0  0  0  0  0  0
   10.1961    7.2444  -12.6469 H   0  0  0  0  0  0  0  0  0  0  0  0
    8.5007    6.9723  -13.0308 H   0  0  0  0  0  0  0  0  0  0  0  0
    8.6003    4.8347  -11.6385 H   0  0  0  0  0  0  0  0  0  0  0  0
   10.2989    5.0630  -11.4930 H   0  0  0  0  0  0  0  0  0  0  0  0
    6.8227    5.1170  -12.9735 H   0  0  0  0  0  0  0  0  0  0  0  0
    4.6930    4.1558  -12.2463 H   0  0  0  0  0  0  0  0  0  0  0  0
    4.1638    1.7722  -12.7168 H   0  0  0  0  0  0  0  0  0  0  0  0
    7.9087    1.3418  -14.7880 H   0  0  0  0  0  0  0  0  0  0  0  0
    9.0760    2.8497  -16.0689 H   0  0  0  0  0  0  0  0  0  0  0  0
   11.5540    3.4471  -17.4002 H   0  0  0  0  0  0  0  0  0  0  0  0
   13.6499    4.7664  -17.1130 H   0  0  0  0  0  0  0  0  0  0  0  0
   13.9793    6.1215  -15.0538 H   0  0  0  0  0  0  0  0  0  0  0  0
   12.2625    6.1586  -13.2865 H   0  0  0  0  0  0  0  0  0  0  0  0
    8.0169    7.1671  -10.6768 H   0  0  0  0  0  0  0  0  0  0  0  0
  2  1  1  0
  3  2  1  0
  4  3  1  0
  5  3  1  0
  6  5  1  0
  7  6  1  0
  8  7  2  0
  9  8  1  0
 10  9  2  0
 11 10  1  0
 12 11  2  0
 13 12  1  0
 14 13  1  0
 15  9  1  0
 15 13  2  0
 16  8  1  0
 17 16  1  0
 18 17  2  0
 19 18  1  0
 20 19  2  0
 21 20  1  0
 22  7  1  0
 22 17  1  0
 22 21  2  0
 23  1  1  0
 24  1  1  0
 25  1  1  0
 26  2  1  0
 27  2  1  0
 28  4  1  0
 29  4  1  0
 30  4  1  0
 31  5  1  0
 32  5  1  0
 33  6  1  0
 34  6  1  0
 35 10  1  0
 36 11  1  0
 37 12  1  0
 38 15  1  0
 39 16  1  0
 40 18  1  0
 41 19  1  0
 42 20  1  0
 43 21  1  0
  3 44  1  1
M  CHG  1   3   1
M  END
>  <b_m_subgroup_collapsed>  (1300) 
0

>  <r_i_docking_score>  (1300) 
-6.2102982480997797

>  <s_m_subgroup_title>  (1300) 
glide-dock_SP_D22_pv

>  <s_m_subgroupid>  (1300) 
glide-dock_SP_D22_pv

>  <Molecule ChEMBL ID>  (1300) 
CHEMBL328595

>  <Standard Type>  (1300) 
Ki

>  <Standard Value>  (1300) 
68.0

>  <label>  (1300) 
1

$$$$
CHEMBL4440402
     RDKit          3D

 53 56  0  0  1  0  0  0  0  0999 V2000
    3.8440   -1.7577  -16.4279 C   0  0  0  0  0  0  0  0  0  0  0  0
    5.1581   -1.7285  -15.6336 C   0  0  0  0  0  0  0  0  0  0  0  0
    5.2353   -0.5156  -14.7054 C   0  0  0  0  0  0  0  0  0  0  0  0
    4.3252   -0.2921  -13.9026 O   0  0  0  0  0  0  0  0  0  0  0  0
    6.3392    0.2423  -14.8234 N   0  0  0  0  0  0  0  0  0  0  0  0
    6.5765    1.5096  -14.2401 C   0  0  0  0  0  0  0  0  0  0  0  0
    5.6860    2.1637  -13.4902 N   0  0  0  0  0  0  0  0  0  0  0  0
    6.2392    3.3937  -13.1908 C   0  0  0  0  0  0  0  0  0  0  0  0
    5.5219    4.4422  -12.4179 C   0  0  0  0  0  0  0  0  0  0  0  0
    7.5190    3.3747  -13.7077 C   0  0  0  0  0  0  0  0  0  0  0  0
    8.5883    4.3532  -13.5042 C   0  0  0  0  0  0  0  0  0  0  0  0
    8.5756    5.4531  -12.6882 C   0  0  0  0  0  0  0  0  0  0  0  0
    9.8256    6.0388  -12.6460 N   0  0  0  0  0  0  0  0  0  0  0  0
   10.1717    7.4146  -11.6565 S   0  0  0  0  0  0  0  0  0  0  0  0
    9.2862    8.4789  -12.1563 O   0  0  0  0  0  0  0  0  0  0  0  0
   11.6334    7.5772  -11.6615 O   0  0  0  0  0  0  0  0  0  0  0  0
    9.6887    7.0261   -9.9754 C   0  0  0  0  0  0  0  0  0  0  0  0
    9.6860    8.0896   -9.0503 C   0  0  0  0  0  0  0  0  0  0  0  0
    9.2863    7.8618   -7.7201 C   0  0  0  0  0  0  0  0  0  0  0  0
    8.8873    6.5718   -7.3226 C   0  0  0  0  0  0  0  0  0  0  0  0
    8.8978    5.5073   -8.2470 C   0  0  0  0  0  0  0  0  0  0  0  0
    9.3184    5.7256   -9.5718 C   0  0  0  0  0  0  0  0  0  0  0  0
   10.6606    5.3989  -13.5582 C   0  0  0  0  0  0  0  0  0  0  0  0
   11.9838    5.6401  -13.9792 C   0  0  0  0  0  0  0  0  0  0  0  0
   12.5619    4.8321  -14.9717 C   0  0  0  0  0  0  0  0  0  0  0  0
   11.8433    3.7634  -15.5358 C   0  0  0  0  0  0  0  0  0  0  0  0
   12.4856    3.0205  -16.5028 O   0  0  0  0  0  0  0  0  0  0  0  0
   11.8578    1.8325  -16.9621 C   0  0  0  0  0  0  0  0  0  0  0  0
   10.5218    3.5164  -15.0908 C   0  0  0  0  0  0  0  0  0  0  0  0
    9.8925    4.3298  -14.1155 C   0  0  0  0  0  0  0  0  0  0  0  0
    7.7071    2.1785  -14.4143 N   0  0  0  0  0  0  0  0  0  0  0  0
    3.8190   -2.6179  -17.0979 H   0  0  0  0  0  0  0  0  0  0  0  0
    2.9776   -1.8300  -15.7697 H   0  0  0  0  0  0  0  0  0  0  0  0
    3.7258   -0.8612  -17.0376 H   0  0  0  0  0  0  0  0  0  0  0  0
    5.9980   -1.7221  -16.3291 H   0  0  0  0  0  0  0  0  0  0  0  0
    5.2618   -2.6360  -15.0405 H   0  0  0  0  0  0  0  0  0  0  0  0
    7.0558   -0.0908  -15.4509 H   0  0  0  0  0  0  0  0  0  0  0  0
    5.9862    4.5888  -11.4468 H   0  0  0  0  0  0  0  0  0  0  0  0
    5.5373    5.3943  -12.9487 H   0  0  0  0  0  0  0  0  0  0  0  0
    4.4862    4.1700  -12.2574 H   0  0  0  0  0  0  0  0  0  0  0  0
    7.7855    5.8523  -12.0674 H   0  0  0  0  0  0  0  0  0  0  0  0
    9.9701    9.0818   -9.3679 H   0  0  0  0  0  0  0  0  0  0  0  0
    9.2615    8.6766   -7.0124 H   0  0  0  0  0  0  0  0  0  0  0  0
    8.5598    6.3990   -6.3087 H   0  0  0  0  0  0  0  0  0  0  0  0
    8.5857    4.5207   -7.9401 H   0  0  0  0  0  0  0  0  0  0  0  0
    9.3403    4.8938  -10.2578 H   0  0  0  0  0  0  0  0  0  0  0  0
   12.5652    6.4504  -13.5669 H   0  0  0  0  0  0  0  0  0  0  0  0
   13.5715    5.0303  -15.3012 H   0  0  0  0  0  0  0  0  0  0  0  0
   12.5272    1.3170  -17.6504 H   0  0  0  0  0  0  0  0  0  0  0  0
   11.6449    1.1488  -16.1392 H   0  0  0  0  0  0  0  0  0  0  0  0
   10.9352    2.0522  -17.5002 H   0  0  0  0  0  0  0  0  0  0  0  0
    9.9484    2.7075  -15.5121 H   0  0  0  0  0  0  0  0  0  0  0  0
    4.7630    1.8273  -13.2509 H   0  0  0  0  0  0  0  0  0  0  0  0
  2  1  1  0
  3  2  1  0
  4  3  2  0
  5  3  1  0
  6  5  1  0
  7  6  1  0
  8  7  1  0
  9  8  1  0
 10  8  2  0
 11 10  1  0
 12 11  2  0
 13 12  1  0
 14 13  1  0
 15 14  2  0
 16 14  2  0
 17 14  1  0
 18 17  2  0
 19 18  1  0
 20 19  2  0
 21 20  1  0
 22 17  1  0
 22 21  2  0
 23 13  1  0
 24 23  2  0
 25 24  1  0
 26 25  2  0
 27 26  1  0
 28 27  1  0
 29 26  1  0
 30 11  1  0
 30 23  1  0
 30 29  2  0
 31  6  2  0
 31 10  1  0
 32  1  1  0
 33  1  1  0
 34  1  1  0
 35  2  1  0
 36  2  1  0
 37  5  1  0
 38  9  1  0
 39  9  1  0
 40  9  1  0
 41 12  1  0
 42 18  1  0
 43 19  1  0
 44 20  1  0
 45 21  1  0
 46 22  1  0
 47 24  1  0
 48 25  1  0
 49 28  1  0
 50 28  1  0
 51 28  1  0
 52 29  1  0
 53  7  1  0
M  END
>  <b_m_subgroup_collapsed>  (1301) 
0

>  <r_i_docking_score>  (1301) 
-6.20679930984506

>  <s_m_subgroup_title>  (1301) 
glide-dock_SP_D22_pv

>  <s_m_subgroupid>  (1301) 
glide-dock_SP_D22_pv

>  <Molecule ChEMBL ID>  (1301) 
CHEMBL4440402

>  <Standard Type>  (1301) 
Ki

>  <Standard Value>  (1301) 
10000.0

>  <label>  (1301) 
0

$$$$
CHEMBL92887
     RDKit          3D

 40 41  0  0  1  0  0  0  0  0999 V2000
    8.1956    5.2769  -13.1924 C   0  0  0  0  0  0  0  0  0  0  0  0
    8.5318    6.2779  -12.0807 C   0  0  0  0  0  0  0  0  0  0  0  0
    8.6566    5.5929  -10.7080 C   0  0  0  0  0  0  0  0  0  0  0  0
    8.8860    6.5381   -9.5843 N   0  0  0  0  0  0  0  0  0  0  0  0
   10.1990    7.2400   -9.6488 C   0  0  0  0  0  0  0  0  0  0  0  0
   10.4375    8.1689   -8.4421 C   0  0  0  0  0  0  0  0  0  0  0  0
   10.1621    7.4799   -7.1863 N   0  0  0  0  0  0  0  0  0  0  0  0
   10.8524    7.7759   -5.9892 C   0  0  0  0  0  0  0  0  0  0  0  0
   11.0204    6.7413   -5.0470 C   0  0  0  0  0  0  0  0  0  0  0  0
   11.6866    6.9344   -3.8269 C   0  0  0  0  0  0  0  0  0  0  0  0
   12.2186    8.1924   -3.5284 C   0  0  0  0  0  0  0  0  0  0  0  0
   12.0739    9.2363   -4.4544 C   0  0  0  0  0  0  0  0  0  0  0  0
   11.3848    9.0551   -5.6860 C   0  0  0  0  0  0  0  0  0  0  0  0
   11.1876   10.0755   -6.5908 O   0  0  0  0  0  0  0  0  0  0  0  0
   11.8191   11.3062   -6.3293 C   0  0  0  0  0  0  0  0  0  0  0  0
    8.8590    6.8346   -7.0992 C   0  0  0  0  0  0  0  0  0  0  0  0
    8.6797    5.8652   -8.2744 C   0  0  0  0  0  0  0  0  0  0  0  0
    8.1458    5.7721  -14.1617 H   0  0  0  0  0  0  0  0  0  0  0  0
    8.9516    4.4940  -13.2608 H   0  0  0  0  0  0  0  0  0  0  0  0
    7.2322    4.7981  -13.0133 H   0  0  0  0  0  0  0  0  0  0  0  0
    7.7562    7.0442  -12.0434 H   0  0  0  0  0  0  0  0  0  0  0  0
    9.4599    6.7832  -12.3454 H   0  0  0  0  0  0  0  0  0  0  0  0
    9.4516    4.8454  -10.7275 H   0  0  0  0  0  0  0  0  0  0  0  0
    7.7278    5.0514  -10.5204 H   0  0  0  0  0  0  0  0  0  0  0  0
   10.2748    7.8302  -10.5611 H   0  0  0  0  0  0  0  0  0  0  0  0
   10.9941    6.4953   -9.6862 H   0  0  0  0  0  0  0  0  0  0  0  0
    9.7894    9.0437   -8.5120 H   0  0  0  0  0  0  0  0  0  0  0  0
   11.4686    8.5237   -8.4666 H   0  0  0  0  0  0  0  0  0  0  0  0
   10.6232    5.7724   -5.2603 H   0  0  0  0  0  0  0  0  0  0  0  0
   11.7886    6.1181   -3.1267 H   0  0  0  0  0  0  0  0  0  0  0  0
   12.7389    8.3586   -2.5962 H   0  0  0  0  0  0  0  0  0  0  0  0
   12.5118   10.1723   -4.1712 H   0  0  0  0  0  0  0  0  0  0  0  0
   11.6860   12.0223   -7.1343 H   0  0  0  0  0  0  0  0  0  0  0  0
   11.4105   11.7481   -5.4302 H   0  0  0  0  0  0  0  0  0  0  0  0
   12.8861   11.1541   -6.2468 H   0  0  0  0  0  0  0  0  0  0  0  0
    8.7235    6.2954   -6.1640 H   0  0  0  0  0  0  0  0  0  0  0  0
    8.0860    7.6043   -7.1191 H   0  0  0  0  0  0  0  0  0  0  0  0
    7.6860    5.4262   -8.2283 H   0  0  0  0  0  0  0  0  0  0  0  0
    9.3882    5.0407   -8.1785 H   0  0  0  0  0  0  0  0  0  0  0  0
    8.1496    7.2371   -9.6572 H   0  0  0  0  0  0  0  0  0  0  0  0
  2  1  1  0
  3  2  1  0
  4  3  1  0
  5  4  1  0
  6  5  1  0
  7  6  1  0
  8  7  1  0
  9  8  2  0
 10  9  1  0
 11 10  2  0
 12 11  1  0
 13  8  1  0
 13 12  2  0
 14 13  1  0
 15 14  1  0
 16  7  1  0
 17  4  1  0
 17 16  1  0
 18  1  1  0
 19  1  1  0
 20  1  1  0
 21  2  1  0
 22  2  1  0
 23  3  1  0
 24  3  1  0
 25  5  1  0
 26  5  1  0
 27  6  1  0
 28  6  1  0
 29  9  1  0
 30 10  1  0
 31 11  1  0
 32 12  1  0
 33 15  1  0
 34 15  1  0
 35 15  1  0
 36 16  1  0
 37 16  1  0
 38 17  1  0
 39 17  1  0
 40  4  1  0
M  CHG  1   4   1
M  END
>  <b_m_subgroup_collapsed>  (1302) 
0

>  <r_i_docking_score>  (1302) 
-6.2033491473136504

>  <s_m_subgroup_title>  (1302) 
glide-dock_SP_D22_pv

>  <s_m_subgroupid>  (1302) 
glide-dock_SP_D22_pv

>  <Molecule ChEMBL ID>  (1302) 
CHEMBL92887

>  <Standard Type>  (1302) 
Ki

>  <Standard Value>  (1302) 
22.0

>  <label>  (1302) 
1

$$$$
CHEMBL92416
     RDKit          3D

 41 43  0  0  1  0  0  0  0  0999 V2000
    8.4368    9.0025  -12.0570 C   0  0  0  0  0  0  0  0  0  0  0  0
    9.5048    8.1299  -11.3826 C   0  0  0  0  0  0  0  0  0  0  0  0
    8.8860    6.9723  -10.6877 N   0  0  2  0  0  0  0  0  0  0  0  0
    9.3291    6.8363   -9.2821 C   0  0  0  0  0  0  0  0  0  0  0  0
    8.9637    5.6814  -11.4255 C   0  0  0  0  0  0  0  0  0  0  0  0
    8.2807    5.7125  -12.8086 C   0  0  0  0  0  0  0  0  0  0  0  0
    8.3458    4.3899  -13.5153 C   0  0  0  0  0  0  0  0  0  0  0  0
    9.3654    3.8688  -14.2890 C   0  0  0  0  0  0  0  0  0  0  0  0
   10.6628    4.4012  -14.6753 C   0  0  0  0  0  0  0  0  0  0  0  0
   11.3177    5.5174  -14.2179 C   0  0  0  0  0  0  0  0  0  0  0  0
   12.5780    5.7363  -14.8445 C   0  0  0  0  0  0  0  0  0  0  0  0
   12.8860    4.7776  -15.7697 C   0  0  0  0  0  0  0  0  0  0  0  0
   11.6212    3.5905  -15.8973 S   0  0  0  0  0  0  0  0  0  0  0  0
    8.9854    2.6036  -14.7086 N   0  0  0  0  0  0  0  0  0  0  0  0
    7.7333    2.2734  -14.2469 C   0  0  0  0  0  0  0  0  0  0  0  0
    6.9488    1.1143  -14.3853 C   0  0  0  0  0  0  0  0  0  0  0  0
    5.6860    1.0633  -13.7708 C   0  0  0  0  0  0  0  0  0  0  0  0
    5.2182    2.1778  -13.0469 C   0  0  0  0  0  0  0  0  0  0  0  0
    6.0107    3.3356  -12.9165 C   0  0  0  0  0  0  0  0  0  0  0  0
    7.2959    3.4060  -13.5032 C   0  0  0  0  0  0  0  0  0  0  0  0
    8.8862    9.7723  -12.6816 H   0  0  0  0  0  0  0  0  0  0  0  0
    7.7664    8.4269  -12.6925 H   0  0  0  0  0  0  0  0  0  0  0  0
    7.8171    9.5015  -11.3115 H   0  0  0  0  0  0  0  0  0  0  0  0
   10.0535    8.7536  -10.6751 H   0  0  0  0  0  0  0  0  0  0  0  0
   10.2432    7.7944  -12.1088 H   0  0  0  0  0  0  0  0  0  0  0  0
   10.3910    6.5942   -9.2237 H   0  0  0  0  0  0  0  0  0  0  0  0
    9.1511    7.7619   -8.7328 H   0  0  0  0  0  0  0  0  0  0  0  0
    8.7665    6.0508   -8.7753 H   0  0  0  0  0  0  0  0  0  0  0  0
    8.4775    4.9105  -10.8246 H   0  0  0  0  0  0  0  0  0  0  0  0
   10.0075    5.3804  -11.5193 H   0  0  0  0  0  0  0  0  0  0  0  0
    8.7138    6.4751  -13.4468 H   0  0  0  0  0  0  0  0  0  0  0  0
    7.2387    6.0076  -12.6788 H   0  0  0  0  0  0  0  0  0  0  0  0
   10.9535    6.1909  -13.4638 H   0  0  0  0  0  0  0  0  0  0  0  0
   13.2136    6.5723  -14.5896 H   0  0  0  0  0  0  0  0  0  0  0  0
   13.7759    4.6907  -16.3765 H   0  0  0  0  0  0  0  0  0  0  0  0
    9.5815    2.0156  -15.2725 H   0  0  0  0  0  0  0  0  0  0  0  0
    7.3132    0.2682  -14.9501 H   0  0  0  0  0  0  0  0  0  0  0  0
    5.0703    0.1813  -13.8709 H   0  0  0  0  0  0  0  0  0  0  0  0
    4.2378    2.1561  -12.5964 H   0  0  0  0  0  0  0  0  0  0  0  0
    5.6383    4.1723  -12.3436 H   0  0  0  0  0  0  0  0  0  0  0  0
    7.8923    7.2167  -10.6062 H   0  0  0  0  0  0  0  0  0  0  0  0
  2  1  1  0
  3  2  1  0
  4  3  1  0
  5  3  1  0
  6  5  1  0
  7  6  1  0
  8  7  2  0
  9  8  1  0
 10  9  2  0
 11 10  1  0
 12 11  2  0
 13  9  1  0
 13 12  1  0
 14  8  1  0
 15 14  1  0
 16 15  2  0
 17 16  1  0
 18 17  2  0
 19 18  1  0
 20  7  1  0
 20 15  1  0
 20 19  2  0
 21  1  1  0
 22  1  1  0
 23  1  1  0
 24  2  1  0
 25  2  1  0
 26  4  1  0
 27  4  1  0
 28  4  1  0
 29  5  1  0
 30  5  1  0
 31  6  1  0
 32  6  1  0
 33 10  1  0
 34 11  1  0
 35 12  1  0
 36 14  1  0
 37 16  1  0
 38 17  1  0
 39 18  1  0
 40 19  1  0
  3 41  1  1
M  CHG  1   3   1
M  END
>  <b_m_subgroup_collapsed>  (1303) 
0

>  <r_i_docking_score>  (1303) 
-6.1913384221480197

>  <s_m_subgroup_title>  (1303) 
glide-dock_SP_D22_pv

>  <s_m_subgroupid>  (1303) 
glide-dock_SP_D22_pv

>  <Molecule ChEMBL ID>  (1303) 
CHEMBL92416

>  <Standard Type>  (1303) 
Ki

>  <Standard Value>  (1303) 
78.0

>  <label>  (1303) 
1

$$$$
CHEMBL4531898
     RDKit          3D

 29 31  0  0  1  0  0  0  0  0999 V2000
   11.8244    6.7225   -3.6072 C   0  0  0  0  0  0  0  0  0  0  0  0
   11.0857    6.6342   -4.9549 C   0  0  0  0  0  0  0  0  0  0  0  0
   11.1736    7.8455   -5.7622 N   0  0  0  0  0  0  0  0  0  0  0  0
   11.6842    9.0360   -5.3976 C   0  0  0  0  0  0  0  0  0  0  0  0
   11.6926    9.9562   -6.3506 N   0  0  0  0  0  0  0  0  0  0  0  0
   11.1384    9.2979   -7.4426 C   0  0  0  0  0  0  0  0  0  0  0  0
   10.7465    8.0357   -7.0806 C   0  0  0  0  0  0  0  0  0  0  0  0
    9.9978    7.0703   -7.8771 C   0  0  0  0  0  0  0  0  0  0  0  0
    8.9893    6.2483   -7.4432 C   0  0  0  0  0  0  0  0  0  0  0  0
    8.4860    5.5178   -8.4992 N   0  0  0  0  0  0  0  0  0  0  0  0
    9.0951    5.8891   -9.6719 C   0  0  0  0  0  0  0  0  0  0  0  0
    8.8856    5.4867  -11.0004 C   0  0  0  0  0  0  0  0  0  0  0  0
    9.7029    6.0119  -12.0131 C   0  0  0  0  0  0  0  0  0  0  0  0
    9.5483    5.5795  -13.2873 F   0  0  0  0  0  0  0  0  0  0  0  0
   10.7208    6.9336  -11.6876 C   0  0  0  0  0  0  0  0  0  0  0  0
   11.8763    7.3722  -12.8910 Cl  0  0  0  0  0  0  0  0  0  0  0  0
   10.8854    7.3724  -10.3546 C   0  0  0  0  0  0  0  0  0  0  0  0
   10.0806    6.8549   -9.3063 C   0  0  0  0  0  0  0  0  0  0  0  0
   11.7785    5.7726   -3.0758 H   0  0  0  0  0  0  0  0  0  0  0  0
   12.8772    6.9722   -3.7423 H   0  0  0  0  0  0  0  0  0  0  0  0
   11.3807    7.4757   -2.9555 H   0  0  0  0  0  0  0  0  0  0  0  0
   10.0369    6.4062   -4.7782 H   0  0  0  0  0  0  0  0  0  0  0  0
   11.4999    5.8137   -5.5416 H   0  0  0  0  0  0  0  0  0  0  0  0
   12.0826    9.2413   -4.4151 H   0  0  0  0  0  0  0  0  0  0  0  0
   11.0063    9.7725   -8.4005 H   0  0  0  0  0  0  0  0  0  0  0  0
    8.5545    6.1565   -6.4595 H   0  0  0  0  0  0  0  0  0  0  0  0
    7.6916    4.8968   -8.4223 H   0  0  0  0  0  0  0  0  0  0  0  0
    8.1173    4.7663  -11.2369 H   0  0  0  0  0  0  0  0  0  0  0  0
   11.6729    8.0736  -10.1226 H   0  0  0  0  0  0  0  0  0  0  0  0
  2  1  1  0
  3  2  1  0
  4  3  1  0
  5  4  2  0
  6  5  1  0
  7  3  1  0
  7  6  2  0
  8  7  1  0
  9  8  2  0
 10  9  1  0
 11 10  1  0
 12 11  2  0
 13 12  1  0
 14 13  1  0
 15 13  2  0
 16 15  1  0
 17 15  1  0
 18  8  1  0
 18 11  1  0
 18 17  2  0
 19  1  1  0
 20  1  1  0
 21  1  1  0
 22  2  1  0
 23  2  1  0
 24  4  1  0
 25  6  1  0
 26  9  1  0
 27 10  1  0
 28 12  1  0
 29 17  1  0
M  END
>  <b_m_subgroup_collapsed>  (1304) 
0

>  <r_i_docking_score>  (1304) 
-6.1905386773905997

>  <s_m_subgroup_title>  (1304) 
glide-dock_SP_D22_pv

>  <s_m_subgroupid>  (1304) 
glide-dock_SP_D22_pv

>  <Molecule ChEMBL ID>  (1304) 
CHEMBL4531898

>  <Standard Type>  (1304) 
Ki

>  <Standard Value>  (1304) 
10000.0

>  <label>  (1304) 
0

$$$$
CHEMBL107973
     RDKit          3D

 60 63  0  0  1  0  0  0  0  0999 V2000
   17.7526    9.0626  -18.6663 C   0  0  0  0  0  0  0  0  0  0  0  0
   17.2580    7.8149  -19.4116 C   0  0  0  0  0  0  0  0  0  0  0  0
   15.9771    7.4163  -18.9439 O   0  0  0  0  0  0  0  0  0  0  0  0
   15.8459    6.6080  -17.8691 C   0  0  0  0  0  0  0  0  0  0  0  0
   16.8014    6.1472  -17.2405 O   0  0  0  0  0  0  0  0  0  0  0  0
   14.4185    6.3575  -17.5107 C   0  0  0  0  0  0  0  0  0  0  0  0
   14.1141    5.7734  -16.2627 C   0  0  0  0  0  0  0  0  0  0  0  0
   12.7817    5.5042  -15.8956 C   0  0  0  0  0  0  0  0  0  0  0  0
   12.4924    4.8686  -14.5479 C   0  0  0  0  0  0  0  0  0  0  0  0
   11.6381    6.0533  -13.4507 S   0  0  0  0  0  0  0  0  0  0  0  0
   10.0122    5.3551  -13.3607 C   0  0  0  0  0  0  0  0  0  0  0  0
    9.6562    4.2342  -13.9908 N   0  0  0  0  0  0  0  0  0  0  0  0
    8.3324    4.0787  -13.6311 C   0  0  0  0  0  0  0  0  0  0  0  0
    7.4039    3.0767  -13.9874 C   0  0  0  0  0  0  0  0  0  0  0  0
    6.0882    3.1171  -13.4859 C   0  0  0  0  0  0  0  0  0  0  0  0
    5.6866    4.1643  -12.6341 C   0  0  0  0  0  0  0  0  0  0  0  0
    6.5928    5.1831  -12.2777 C   0  0  0  0  0  0  0  0  0  0  0  0
    7.9083    5.1343  -12.7767 C   0  0  0  0  0  0  0  0  0  0  0  0
    9.0276    5.9499  -12.6421 N   0  0  0  0  0  0  0  0  0  0  0  0
    9.0945    7.2063  -11.9065 C   0  0  0  0  0  0  0  0  0  0  0  0
    9.6856    7.0626  -10.5120 C   0  0  0  0  0  0  0  0  0  0  0  0
    9.0702    6.2157   -9.5636 C   0  0  0  0  0  0  0  0  0  0  0  0
    9.5415    6.1760   -8.2370 C   0  0  0  0  0  0  0  0  0  0  0  0
   10.6354    6.9754   -7.8519 C   0  0  0  0  0  0  0  0  0  0  0  0
   11.1730    6.9734   -6.2121 Cl  0  0  0  0  0  0  0  0  0  0  0  0
   11.2795    7.7894   -8.8031 C   0  0  0  0  0  0  0  0  0  0  0  0
   10.8040    7.8337  -10.1304 C   0  0  0  0  0  0  0  0  0  0  0  0
   11.7346    5.8169  -16.7904 C   0  0  0  0  0  0  0  0  0  0  0  0
   12.0154    6.4154  -18.0450 C   0  0  0  0  0  0  0  0  0  0  0  0
   10.9373    6.7762  -19.0149 C   0  0  0  0  0  0  0  0  0  0  0  0
   11.1593    7.3005  -20.1104 O   0  0  0  0  0  0  0  0  0  0  0  0
    9.6959    6.4797  -18.5692 O   0  0  0  0  0  0  0  0  0  0  0  0
    8.5470    6.8073  -19.3395 C   0  0  0  0  0  0  0  0  0  0  0  0
    8.2326    5.7064  -20.3591 C   0  0  0  0  0  0  0  0  0  0  0  0
   13.3599    6.6829  -18.3888 C   0  0  0  0  0  0  0  0  0  0  0  0
   18.6918    9.4171  -19.0934 H   0  0  0  0  0  0  0  0  0  0  0  0
   17.0284    9.8751  -18.7338 H   0  0  0  0  0  0  0  0  0  0  0  0
   17.9297    8.8537  -17.6114 H   0  0  0  0  0  0  0  0  0  0  0  0
   17.9783    7.0001  -19.3269 H   0  0  0  0  0  0  0  0  0  0  0  0
   17.1686    8.0425  -20.4738 H   0  0  0  0  0  0  0  0  0  0  0  0
   14.9097    5.5286  -15.5756 H   0  0  0  0  0  0  0  0  0  0  0  0
   13.4262    4.5807  -14.0676 H   0  0  0  0  0  0  0  0  0  0  0  0
   11.9613    3.9274  -14.6956 H   0  0  0  0  0  0  0  0  0  0  0  0
    7.7114    2.2700  -14.6365 H   0  0  0  0  0  0  0  0  0  0  0  0
    5.3844    2.3436  -13.7524 H   0  0  0  0  0  0  0  0  0  0  0  0
    4.6821    4.1734  -12.2467 H   0  0  0  0  0  0  0  0  0  0  0  0
    6.2867    5.9815  -11.6163 H   0  0  0  0  0  0  0  0  0  0  0  0
    8.0875    7.6188  -11.8327 H   0  0  0  0  0  0  0  0  0  0  0  0
    9.6669    7.9315  -12.4853 H   0  0  0  0  0  0  0  0  0  0  0  0
    8.2021    5.6347   -9.8370 H   0  0  0  0  0  0  0  0  0  0  0  0
    9.0416    5.5541   -7.5088 H   0  0  0  0  0  0  0  0  0  0  0  0
   12.1218    8.4009   -8.5133 H   0  0  0  0  0  0  0  0  0  0  0  0
   11.2870    8.4864  -10.8443 H   0  0  0  0  0  0  0  0  0  0  0  0
   10.7185    5.5946  -16.4961 H   0  0  0  0  0  0  0  0  0  0  0  0
    7.7068    6.9260  -18.6576 H   0  0  0  0  0  0  0  0  0  0  0  0
    8.6725    7.7683  -19.8427 H   0  0  0  0  0  0  0  0  0  0  0  0
    7.3134    5.9318  -20.9008 H   0  0  0  0  0  0  0  0  0  0  0  0
    9.0326    5.5988  -21.0930 H   0  0  0  0  0  0  0  0  0  0  0  0
    8.0982    4.7427  -19.8654 H   0  0  0  0  0  0  0  0  0  0  0  0
   13.5754    7.1372  -19.3468 H   0  0  0  0  0  0  0  0  0  0  0  0
  2  1  1  0
  3  2  1  0
  4  3  1  0
  5  4  2  0
  6  4  1  0
  7  6  1  0
  8  7  2  0
  9  8  1  0
 10  9  1  0
 11 10  1  0
 12 11  2  0
 13 12  1  0
 14 13  2  0
 15 14  1  0
 16 15  2  0
 17 16  1  0
 18 13  1  0
 18 17  2  0
 19 11  1  0
 19 18  1  0
 20 19  1  0
 21 20  1  0
 22 21  1  0
 23 22  2  0
 24 23  1  0
 25 24  1  0
 26 24  2  0
 27 21  2  0
 27 26  1  0
 28  8  1  0
 29 28  2  0
 30 29  1  0
 31 30  2  0
 32 30  1  0
 33 32  1  0
 34 33  1  0
 35  6  2  0
 35 29  1  0
 36  1  1  0
 37  1  1  0
 38  1  1  0
 39  2  1  0
 40  2  1  0
 41  7  1  0
 42  9  1  0
 43  9  1  0
 44 14  1  0
 45 15  1  0
 46 16  1  0
 47 17  1  0
 48 20  1  0
 49 20  1  0
 50 22  1  0
 51 23  1  0
 52 26  1  0
 53 27  1  0
 54 28  1  0
 55 33  1  0
 56 33  1  0
 57 34  1  0
 58 34  1  0
 59 34  1  0
 60 35  1  0
M  END
>  <b_m_subgroup_collapsed>  (1305) 
0

>  <r_i_docking_score>  (1305) 
-6.1884831706423302

>  <s_m_subgroup_title>  (1305) 
glide-dock_SP_D22_pv

>  <s_m_subgroupid>  (1305) 
glide-dock_SP_D22_pv

>  <Molecule ChEMBL ID>  (1305) 
CHEMBL107973

>  <Standard Type>  (1305) 
Ki

>  <Standard Value>  (1305) 
43000.0

>  <label>  (1305) 
0

$$$$
CHEMBL4469847
     RDKit          3D

 33 35  0  0  1  0  0  0  0  0999 V2000
    8.4852    5.2571   -8.2490 C   0  0  0  0  0  0  0  0  0  0  0  0
    9.9536    5.6244   -8.5119 C   0  0  0  0  0  0  0  0  0  0  0  0
   10.2145    7.0416   -8.3127 N   0  0  0  0  0  0  0  0  0  0  0  0
   10.0137    7.7092   -7.1662 C   0  0  0  0  0  0  0  0  0  0  0  0
   10.4036    8.9749   -7.1853 N   0  0  0  0  0  0  0  0  0  0  0  0
   10.8963    9.1450   -8.4757 C   0  0  0  0  0  0  0  0  0  0  0  0
   10.7862    7.9762   -9.1833 C   0  0  0  0  0  0  0  0  0  0  0  0
   11.2010    7.6743  -10.5467 C   0  0  0  0  0  0  0  0  0  0  0  0
   12.3969    7.9821  -11.1462 C   0  0  0  0  0  0  0  0  0  0  0  0
   12.4579    7.3723  -12.3926 N   0  0  0  0  0  0  0  0  0  0  0  0
   11.2911    6.6760  -12.6472 C   0  0  0  0  0  0  0  0  0  0  0  0
   10.8837    5.8055  -13.6755 C   0  0  0  0  0  0  0  0  0  0  0  0
    9.5634    5.2995  -13.6600 C   0  0  0  0  0  0  0  0  0  0  0  0
    8.6576    5.6712  -12.6346 C   0  0  0  0  0  0  0  0  0  0  0  0
    7.2515    5.1314  -12.6089 C   0  0  0  0  0  0  0  0  0  0  0  0
    6.3557    5.7723  -11.8471 N   0  0  0  0  0  0  0  0  0  0  0  0
    6.9347    4.1596  -13.2915 O   0  0  0  0  0  0  0  0  0  0  0  0
    9.1189    6.4987  -11.5910 C   0  0  0  0  0  0  0  0  0  0  0  0
   10.4437    6.9734  -11.5450 C   0  0  0  0  0  0  0  0  0  0  0  0
    8.3244    4.1863   -8.3721 H   0  0  0  0  0  0  0  0  0  0  0  0
    8.1709    5.5298   -7.2428 H   0  0  0  0  0  0  0  0  0  0  0  0
    7.8144    5.7721   -8.9347 H   0  0  0  0  0  0  0  0  0  0  0  0
   10.2472    5.3149   -9.5102 H   0  0  0  0  0  0  0  0  0  0  0  0
   10.6128    5.0754   -7.8465 H   0  0  0  0  0  0  0  0  0  0  0  0
    9.5906    7.2486   -6.2852 H   0  0  0  0  0  0  0  0  0  0  0  0
   11.2860   10.0934   -8.8087 H   0  0  0  0  0  0  0  0  0  0  0  0
   13.2400    8.5348  -10.7540 H   0  0  0  0  0  0  0  0  0  0  0  0
   13.2885    7.3685  -12.9724 H   0  0  0  0  0  0  0  0  0  0  0  0
   11.5583    5.5521  -14.4797 H   0  0  0  0  0  0  0  0  0  0  0  0
    9.2399    4.6410  -14.4535 H   0  0  0  0  0  0  0  0  0  0  0  0
    6.5706    6.6163  -11.2980 H   0  0  0  0  0  0  0  0  0  0  0  0
    5.4255    5.3942  -11.7789 H   0  0  0  0  0  0  0  0  0  0  0  0
    8.4729    6.7672  -10.7706 H   0  0  0  0  0  0  0  0  0  0  0  0
  2  1  1  0
  3  2  1  0
  4  3  1  0
  5  4  2  0
  6  5  1  0
  7  3  1  0
  7  6  2  0
  8  7  1  0
  9  8  2  0
 10  9  1  0
 11 10  1  0
 12 11  2  0
 13 12  1  0
 14 13  2  0
 15 14  1  0
 16 15  1  0
 17 15  2  0
 18 14  1  0
 19  8  1  0
 19 11  1  0
 19 18  2  0
 20  1  1  0
 21  1  1  0
 22  1  1  0
 23  2  1  0
 24  2  1  0
 25  4  1  0
 26  6  1  0
 27  9  1  0
 28 10  1  0
 29 12  1  0
 30 13  1  0
 31 16  1  0
 32 16  1  0
 33 18  1  0
M  END
>  <b_m_subgroup_collapsed>  (1306) 
0

>  <r_i_docking_score>  (1306) 
-6.1864344269871898

>  <s_m_subgroup_title>  (1306) 
glide-dock_SP_D22_pv

>  <s_m_subgroupid>  (1306) 
glide-dock_SP_D22_pv

>  <Molecule ChEMBL ID>  (1306) 
CHEMBL4469847

>  <Standard Type>  (1306) 
Ki

>  <Standard Value>  (1306) 
10000.0

>  <label>  (1306) 
0

$$$$
CHEMBL4847432
     RDKit          3D

 57 58  0  0  1  0  0  0  0  0999 V2000
    4.5479    2.1448  -13.0410 C   0  0  0  0  0  0  0  0  0  0  0  0
    4.9995    3.6156  -13.0740 C   0  0  0  0  0  0  0  0  0  0  0  0
    6.4907    3.8403  -13.2769 C   0  0  0  0  0  0  0  0  0  0  0  0
    7.2198    2.9725  -14.1132 C   0  0  0  0  0  0  0  0  0  0  0  0
    8.5858    3.1716  -14.3298 C   0  0  0  0  0  0  0  0  0  0  0  0
    9.4524    2.0388  -15.3078 Cl  0  0  0  0  0  0  0  0  0  0  0  0
    9.2390    4.2765  -13.7527 C   0  0  0  0  0  0  0  0  0  0  0  0
   10.5789    4.4253  -14.0233 O   0  0  0  0  0  0  0  0  0  0  0  0
   10.8524    5.1424  -15.2198 C   0  0  0  0  0  0  0  0  0  0  0  0
    8.5253    5.1800  -12.9031 C   0  0  0  0  0  0  0  0  0  0  0  0
    9.2793    6.3135  -12.2467 C   0  0  0  0  0  0  0  0  0  0  0  0
   10.4947    6.2561  -12.1502 O   0  0  0  0  0  0  0  0  0  0  0  0
    8.6265    7.4072  -11.8356 N   0  0  0  0  0  0  0  0  0  0  0  0
    9.2809    8.5420  -11.1827 C   0  0  0  0  0  0  0  0  0  0  0  0
   10.1037    8.2086   -9.9017 C   0  0  2  0  0  0  0  0  0  0  0  0
    9.2863    7.7941   -8.6728 C   0  0  0  0  0  0  0  0  0  0  0  0
   10.0508    8.3258   -7.4530 C   0  0  1  0  0  0  0  0  0  0  0  0
   10.5245    7.2893   -6.6043 O   0  0  0  0  0  0  0  0  0  0  0  0
   11.1531    7.7979   -5.4334 C   0  0  0  0  0  0  0  0  0  0  0  0
   11.5538    6.6557   -4.4959 C   0  0  0  0  0  0  0  0  0  0  0  0
   12.4728    7.1368   -3.3639 C   0  0  0  0  0  0  0  0  0  0  0  0
   11.7853    8.0575   -2.3461 C   0  0  0  0  0  0  0  0  0  0  0  0
   12.7439    8.5723   -1.4487 O   0  0  0  0  0  0  0  0  0  0  0  0
   11.2167    9.1380   -8.0394 C   0  0  0  0  0  0  0  0  0  0  0  0
   10.8815    9.3722   -9.4489 N   0  0  0  0  0  0  0  0  0  0  0  0
    7.1373    4.9452  -12.6644 C   0  0  0  0  0  0  0  0  0  0  0  0
    6.3549    5.7683  -11.8876 O   0  0  0  0  0  0  0  0  0  0  0  0
    3.4609    2.0931  -13.0453 H   0  0  0  0  0  0  0  0  0  0  0  0
    4.8755    1.5575  -13.8904 H   0  0  0  0  0  0  0  0  0  0  0  0
    4.9164    1.6490  -12.1418 H   0  0  0  0  0  0  0  0  0  0  0  0
    4.6935    4.0809  -12.1427 H   0  0  0  0  0  0  0  0  0  0  0  0
    4.4845    4.1729  -13.8489 H   0  0  0  0  0  0  0  0  0  0  0  0
    6.7540    2.1347  -14.6031 H   0  0  0  0  0  0  0  0  0  0  0  0
   11.9302    5.1801  -15.3780 H   0  0  0  0  0  0  0  0  0  0  0  0
   10.4047    4.6667  -16.0934 H   0  0  0  0  0  0  0  0  0  0  0  0
   10.4887    6.1673  -15.1593 H   0  0  0  0  0  0  0  0  0  0  0  0
    7.6229    7.4631  -11.9531 H   0  0  0  0  0  0  0  0  0  0  0  0
    9.9407    8.9722  -11.9273 H   0  0  0  0  0  0  0  0  0  0  0  0
    8.5204    9.2942  -10.9642 H   0  0  0  0  0  0  0  0  0  0  0  0
   10.8482    7.4365  -10.0854 H   0  0  0  0  0  0  0  0  0  0  0  0
    8.3244    8.2952   -8.6890 H   0  0  0  0  0  0  0  0  0  0  0  0
    9.0978    6.7200   -8.6312 H   0  0  0  0  0  0  0  0  0  0  0  0
    9.3775    8.9740   -6.8881 H   0  0  0  0  0  0  0  0  0  0  0  0
   12.0464    8.3660   -5.6987 H   0  0  0  0  0  0  0  0  0  0  0  0
   10.4855    8.4886   -4.9205 H   0  0  0  0  0  0  0  0  0  0  0  0
   10.6643    6.1723   -4.0927 H   0  0  0  0  0  0  0  0  0  0  0  0
   12.0849    5.8982   -5.0758 H   0  0  0  0  0  0  0  0  0  0  0  0
   12.8821    6.2732   -2.8395 H   0  0  0  0  0  0  0  0  0  0  0  0
   13.3179    7.6580   -3.8093 H   0  0  0  0  0  0  0  0  0  0  0  0
   11.2861    8.9016   -2.8258 H   0  0  0  0  0  0  0  0  0  0  0  0
   11.0285    7.4949   -1.7965 H   0  0  0  0  0  0  0  0  0  0  0  0
   13.1581    9.3311   -1.8373 H   0  0  0  0  0  0  0  0  0  0  0  0
   11.3868   10.0620   -7.4881 H   0  0  0  0  0  0  0  0  0  0  0  0
   12.1402    8.5576   -8.0199 H   0  0  0  0  0  0  0  0  0  0  0  0
   11.7178    9.5095  -10.0052 H   0  0  0  0  0  0  0  0  0  0  0  0
    6.7269    6.2923  -11.1815 H   0  0  0  0  0  0  0  0  0  0  0  0
   10.2893   10.1866   -9.5020 H   0  0  0  0  0  0  0  0  0  0  0  0
  2  1  1  0
  3  2  1  0
  4  3  1  0
  5  4  2  0
  6  5  1  0
  7  5  1  0
  8  7  1  0
  9  8  1  0
 10  7  2  0
 11 10  1  0
 12 11  2  0
 13 11  1  0
 14 13  1  0
 15 14  1  0
 16 15  1  0
 17 16  1  0
 18 17  1  0
 19 18  1  0
 20 19  1  0
 21 20  1  0
 22 21  1  0
 23 22  1  0
 24 17  1  0
 25 15  1  0
 25 24  1  0
 26  3  2  0
 26 10  1  0
 27 26  1  0
 28  1  1  0
 29  1  1  0
 30  1  1  0
 31  2  1  0
 32  2  1  0
 33  4  1  0
 34  9  1  0
 35  9  1  0
 36  9  1  0
 37 13  1  0
 38 14  1  0
 39 14  1  0
 15 40  1  6
 41 16  1  0
 42 16  1  0
 17 43  1  1
 44 19  1  0
 45 19  1  0
 46 20  1  0
 47 20  1  0
 48 21  1  0
 49 21  1  0
 50 22  1  0
 51 22  1  0
 52 23  1  0
 53 24  1  0
 54 24  1  0
 55 25  1  0
 56 27  1  0
 57 25  1  0
M  CHG  1  25   1
M  END
>  <b_m_subgroup_collapsed>  (1307) 
0

>  <r_i_docking_score>  (1307) 
-6.1858546347806298

>  <s_m_subgroup_title>  (1307) 
glide-dock_SP_D22_pv

>  <s_m_subgroupid>  (1307) 
glide-dock_SP_D22_pv

>  <Molecule ChEMBL ID>  (1307) 
CHEMBL4847432

>  <Standard Type>  (1307) 
Ki

>  <Standard Value>  (1307) 
1.9

>  <label>  (1307) 
1

$$$$
CHEMBL4565881
     RDKit          3D

 29 31  0  0  1  0  0  0  0  0999 V2000
   11.8200    6.7664   -3.4228 C   0  0  0  0  0  0  0  0  0  0  0  0
   11.1324    6.6719   -4.7956 C   0  0  0  0  0  0  0  0  0  0  0  0
   11.2507    7.8750   -5.6129 N   0  0  0  0  0  0  0  0  0  0  0  0
   11.8027    9.0522   -5.2671 C   0  0  0  0  0  0  0  0  0  0  0  0
   11.8549    9.9523   -6.2382 N   0  0  0  0  0  0  0  0  0  0  0  0
   11.2620    9.3031   -7.3142 C   0  0  0  0  0  0  0  0  0  0  0  0
   10.8204    8.0623   -6.9308 C   0  0  0  0  0  0  0  0  0  0  0  0
   10.0322    7.1069   -7.7075 C   0  0  0  0  0  0  0  0  0  0  0  0
    9.0161    6.3014   -7.2595 C   0  0  0  0  0  0  0  0  0  0  0  0
    8.4865    5.5781   -8.3106 N   0  0  0  0  0  0  0  0  0  0  0  0
    9.1002    5.9221   -9.4878 C   0  0  0  0  0  0  0  0  0  0  0  0
    8.8872    5.5058  -10.8154 C   0  0  0  0  0  0  0  0  0  0  0  0
    9.6862    6.0393  -11.8405 C   0  0  0  0  0  0  0  0  0  0  0  0
   10.6934    6.9723  -11.5290 C   0  0  0  0  0  0  0  0  0  0  0  0
   11.5243    7.3939  -12.5069 F   0  0  0  0  0  0  0  0  0  0  0  0
   10.8859    7.3950  -10.1962 C   0  0  0  0  0  0  0  0  0  0  0  0
   10.0955    6.8821   -9.1373 C   0  0  0  0  0  0  0  0  0  0  0  0
   11.7173    5.8312   -2.8731 H   0  0  0  0  0  0  0  0  0  0  0  0
   12.8868    6.9703   -3.5161 H   0  0  0  0  0  0  0  0  0  0  0  0
   11.3794    7.5504   -2.8061 H   0  0  0  0  0  0  0  0  0  0  0  0
   10.0791    6.4498   -4.6502 H   0  0  0  0  0  0  0  0  0  0  0  0
   11.5625    5.8438   -5.3599 H   0  0  0  0  0  0  0  0  0  0  0  0
   12.2143    9.2557   -4.2900 H   0  0  0  0  0  0  0  0  0  0  0  0
   11.1482    9.7728   -8.2776 H   0  0  0  0  0  0  0  0  0  0  0  0
    8.5982    6.1977   -6.2692 H   0  0  0  0  0  0  0  0  0  0  0  0
    7.6871    4.9629   -8.2259 H   0  0  0  0  0  0  0  0  0  0  0  0
    8.1097    4.7908  -11.0403 H   0  0  0  0  0  0  0  0  0  0  0  0
    9.5448    5.7164  -12.8622 H   0  0  0  0  0  0  0  0  0  0  0  0
   11.6654    8.1107   -9.9835 H   0  0  0  0  0  0  0  0  0  0  0  0
  2  1  1  0
  3  2  1  0
  4  3  1  0
  5  4  2  0
  6  5  1  0
  7  3  1  0
  7  6  2  0
  8  7  1  0
  9  8  2  0
 10  9  1  0
 11 10  1  0
 12 11  2  0
 13 12  1  0
 14 13  2  0
 15 14  1  0
 16 14  1  0
 17  8  1  0
 17 11  1  0
 17 16  2  0
 18  1  1  0
 19  1  1  0
 20  1  1  0
 21  2  1  0
 22  2  1  0
 23  4  1  0
 24  6  1  0
 25  9  1  0
 26 10  1  0
 27 12  1  0
 28 13  1  0
 29 16  1  0
M  END
>  <b_m_subgroup_collapsed>  (1308) 
0

>  <r_i_docking_score>  (1308) 
-6.1850992154373703

>  <s_m_subgroup_title>  (1308) 
glide-dock_SP_D22_pv

>  <s_m_subgroupid>  (1308) 
glide-dock_SP_D22_pv

>  <Molecule ChEMBL ID>  (1308) 
CHEMBL4565881

>  <Standard Type>  (1308) 
Ki

>  <Standard Value>  (1308) 
10000.0

>  <label>  (1308) 
0

$$$$
CHEMBL4558215
     RDKit          3D

 59 63  0  0  1  0  0  0  0  0999 V2000
   11.8214    8.5746   -8.1714 C   0  0  0  0  0  0  0  0  0  0  0  0
   10.5282    8.6550   -9.0002 C   0  0  0  0  0  0  0  0  0  0  0  0
   10.4852    7.6271  -10.1349 C   0  0  0  0  0  0  0  0  0  0  0  0
   11.5136    7.3727  -10.7629 O   0  0  0  0  0  0  0  0  0  0  0  0
    9.2859    7.0665  -10.3709 N   0  0  0  0  0  0  0  0  0  0  0  0
    8.9396    6.1236  -11.3690 C   0  0  0  0  0  0  0  0  0  0  0  0
    7.6687    5.7723  -11.5394 N   0  0  0  0  0  0  0  0  0  0  0  0
    7.6118    4.9437  -12.6486 C   0  0  0  0  0  0  0  0  0  0  0  0
    6.3060    4.4579  -13.1844 C   0  0  0  0  0  0  0  0  0  0  0  0
    8.9232    4.7993  -13.0768 C   0  0  0  0  0  0  0  0  0  0  0  0
    9.5359    4.1308  -14.2248 C   0  0  0  0  0  0  0  0  0  0  0  0
   10.6488    4.5444  -14.9039 C   0  0  0  0  0  0  0  0  0  0  0  0
   10.9104    3.7007  -15.9678 N   0  0  0  0  0  0  0  0  0  0  0  0
   12.2104    3.9895  -17.0628 S   0  0  0  0  0  0  0  0  0  0  0  0
   12.4220    2.7469  -17.8202 O   0  0  0  0  0  0  0  0  0  0  0  0
   13.2863    4.5742  -16.2481 O   0  0  0  0  0  0  0  0  0  0  0  0
   11.5600    5.2456  -18.1565 C   0  0  0  0  0  0  0  0  0  0  0  0
   12.2941    6.4299  -18.3634 C   0  0  0  0  0  0  0  0  0  0  0  0
   11.7793    7.4299  -19.2102 C   0  0  0  0  0  0  0  0  0  0  0  0
   10.5306    7.2498  -19.8412 C   0  0  0  0  0  0  0  0  0  0  0  0
   10.0128    8.2512  -20.6882 C   0  0  0  0  0  0  0  0  0  0  0  0
    8.7576    8.0768  -21.3037 C   0  0  0  0  0  0  0  0  0  0  0  0
    8.0210    6.8975  -21.0827 C   0  0  0  0  0  0  0  0  0  0  0  0
    8.5400    5.8878  -20.2491 C   0  0  0  0  0  0  0  0  0  0  0  0
    9.7927    6.0584  -19.6245 C   0  0  0  0  0  0  0  0  0  0  0  0
   10.3118    5.0536  -18.7820 C   0  0  0  0  0  0  0  0  0  0  0  0
    9.9706    2.6756  -15.9836 C   0  0  0  0  0  0  0  0  0  0  0  0
    9.7704    1.5708  -16.8359 C   0  0  0  0  0  0  0  0  0  0  0  0
    8.7197    0.6715  -16.5842 C   0  0  0  0  0  0  0  0  0  0  0  0
    7.8619    0.8630  -15.4860 C   0  0  0  0  0  0  0  0  0  0  0  0
    6.8633   -0.0670  -15.3009 O   0  0  0  0  0  0  0  0  0  0  0  0
    6.0828    0.0063  -14.1169 C   0  0  0  0  0  0  0  0  0  0  0  0
    8.0634    1.9843  -14.6463 C   0  0  0  0  0  0  0  0  0  0  0  0
    9.1030    2.9191  -14.8719 C   0  0  0  0  0  0  0  0  0  0  0  0
    9.7536    5.5580  -12.2473 N   0  0  0  0  0  0  0  0  0  0  0  0
   11.7996    9.2902   -7.3503 H   0  0  0  0  0  0  0  0  0  0  0  0
   11.9562    7.5809   -7.7427 H   0  0  0  0  0  0  0  0  0  0  0  0
   12.6989    8.7978   -8.7798 H   0  0  0  0  0  0  0  0  0  0  0  0
   10.4315    9.6479   -9.4413 H   0  0  0  0  0  0  0  0  0  0  0  0
    9.6671    8.5193   -8.3434 H   0  0  0  0  0  0  0  0  0  0  0  0
    8.5092    7.3872   -9.8074 H   0  0  0  0  0  0  0  0  0  0  0  0
    5.9722    3.5675  -12.6493 H   0  0  0  0  0  0  0  0  0  0  0  0
    5.5340    5.2192  -13.0690 H   0  0  0  0  0  0  0  0  0  0  0  0
    6.3754    4.2210  -14.2457 H   0  0  0  0  0  0  0  0  0  0  0  0
   11.2719    5.4084  -14.7199 H   0  0  0  0  0  0  0  0  0  0  0  0
   13.2465    6.5762  -17.8757 H   0  0  0  0  0  0  0  0  0  0  0  0
   12.3399    8.3406  -19.3632 H   0  0  0  0  0  0  0  0  0  0  0  0
   10.5670    9.1618  -20.8607 H   0  0  0  0  0  0  0  0  0  0  0  0
    8.3611    8.8482  -21.9484 H   0  0  0  0  0  0  0  0  0  0  0  0
    7.0577    6.7645  -21.5534 H   0  0  0  0  0  0  0  0  0  0  0  0
    7.9699    4.9849  -20.0909 H   0  0  0  0  0  0  0  0  0  0  0  0
    9.7560    4.1439  -18.6102 H   0  0  0  0  0  0  0  0  0  0  0  0
   10.4211    1.3954  -17.6787 H   0  0  0  0  0  0  0  0  0  0  0  0
    8.5742   -0.1801  -17.2312 H   0  0  0  0  0  0  0  0  0  0  0  0
    5.3952   -0.8390  -14.0890 H   0  0  0  0  0  0  0  0  0  0  0  0
    6.7056   -0.0506  -13.2239 H   0  0  0  0  0  0  0  0  0  0  0  0
    5.4863    0.9191  -14.0860 H   0  0  0  0  0  0  0  0  0  0  0  0
    7.4240    2.1468  -13.7993 H   0  0  0  0  0  0  0  0  0  0  0  0
    6.8904    6.2105  -11.0465 H   0  0  0  0  0  0  0  0  0  0  0  0
  2  1  1  0
  3  2  1  0
  4  3  2  0
  5  3  1  0
  6  5  1  0
  7  6  1  0
  8  7  1  0
  9  8  1  0
 10  8  2  0
 11 10  1  0
 12 11  2  0
 13 12  1  0
 14 13  1  0
 15 14  2  0
 16 14  2  0
 17 14  1  0
 18 17  1  0
 19 18  2  0
 20 19  1  0
 21 20  2  0
 22 21  1  0
 23 22  2  0
 24 23  1  0
 25 20  1  0
 25 24  2  0
 26 17  2  0
 26 25  1  0
 27 13  1  0
 28 27  2  0
 29 28  1  0
 30 29  2  0
 31 30  1  0
 32 31  1  0
 33 30  1  0
 34 11  1  0
 34 27  1  0
 34 33  2  0
 35  6  2  0
 35 10  1  0
 36  1  1  0
 37  1  1  0
 38  1  1  0
 39  2  1  0
 40  2  1  0
 41  5  1  0
 42  9  1  0
 43  9  1  0
 44  9  1  0
 45 12  1  0
 46 18  1  0
 47 19  1  0
 48 21  1  0
 49 22  1  0
 50 23  1  0
 51 24  1  0
 52 26  1  0
 53 28  1  0
 54 29  1  0
 55 32  1  0
 56 32  1  0
 57 32  1  0
 58 33  1  0
 59  7  1  0
M  END
>  <b_m_subgroup_collapsed>  (1309) 
0

>  <r_i_docking_score>  (1309) 
-6.1814219758649704

>  <s_m_subgroup_title>  (1309) 
glide-dock_SP_D22_pv

>  <s_m_subgroupid>  (1309) 
glide-dock_SP_D22_pv

>  <Molecule ChEMBL ID>  (1309) 
CHEMBL4558215

>  <Standard Type>  (1309) 
Ki

>  <Standard Value>  (1309) 
10000.0

>  <label>  (1309) 
0

$$$$
CHEMBL156164
     RDKit          3D

 49 52  0  0  1  0  0  0  0  0999 V2000
    2.8861   -0.6280  -14.2358 N   0  0  0  0  0  0  0  0  0  0  0  0
    4.1554   -0.2354  -14.2501 C   0  0  0  0  0  0  0  0  0  0  0  0
    4.5397    0.6563  -13.4969 O   0  0  0  0  0  0  0  0  0  0  0  0
    5.1195   -0.9774  -15.2066 C   0  0  1  0  0  0  0  0  0  0  0  0
    4.3647   -1.4651  -16.4757 C   0  0  0  0  0  0  0  0  0  0  0  0
    5.3100   -2.0934  -17.5069 C   0  0  0  0  0  0  0  0  0  0  0  0
    6.5244   -0.8986  -18.1478 S   0  0  0  0  0  0  0  0  0  0  0  0
    6.3364    0.4534  -16.9441 C   0  0  2  0  0  0  0  0  0  0  0  0
    7.5537    1.3856  -16.9092 C   0  0  0  0  0  0  0  0  0  0  0  0
    8.3211    1.0365  -15.6147 C   0  0  1  0  0  0  0  0  0  0  0  0
    9.5950    0.2163  -15.8958 C   0  0  0  0  0  0  0  0  0  0  0  0
   10.6776    1.2694  -16.0276 C   0  0  0  0  0  0  0  0  0  0  0  0
   10.2649    2.3379  -15.0195 C   0  0  0  0  0  0  0  0  0  0  0  0
    8.8047    2.2579  -14.9165 N   0  0  0  0  0  0  0  0  0  0  0  0
    8.0327    3.1560  -14.2469 C   0  0  0  0  0  0  0  0  0  0  0  0
    6.8102    3.0273  -14.1622 O   0  0  0  0  0  0  0  0  0  0  0  0
    8.6552    4.4325  -13.6297 C   0  0  2  0  0  0  0  0  0  0  0  0
    9.6844    4.1691  -12.5196 C   0  0  0  0  0  0  0  0  0  0  0  0
    9.5468    5.3539  -11.5736 C   0  0  0  0  0  0  0  0  0  0  0  0
    8.0895    5.7807  -11.6989 C   0  0  0  0  0  0  0  0  0  0  0  0
    7.5993    5.2469  -12.9834 N   0  0  0  0  0  0  0  0  0  0  0  0
    7.3097    0.1721  -14.8469 C   0  0  0  0  0  0  0  0  0  0  0  0
    7.4909   -0.2265  -13.6973 O   0  0  0  0  0  0  0  0  0  0  0  0
    6.2361   -0.1007  -15.5994 N   0  0  0  0  0  0  0  0  0  0  0  0
    2.2022   -0.1583  -13.6526 H   0  0  0  0  0  0  0  0  0  0  0  0
    2.5899   -1.3676  -14.8553 H   0  0  0  0  0  0  0  0  0  0  0  0
    5.5246   -1.8427  -14.6776 H   0  0  0  0  0  0  0  0  0  0  0  0
    3.6331   -2.2270  -16.1987 H   0  0  0  0  0  0  0  0  0  0  0  0
    3.7964   -0.6556  -16.9397 H   0  0  0  0  0  0  0  0  0  0  0  0
    4.7447   -2.5058  -18.3427 H   0  0  0  0  0  0  0  0  0  0  0  0
    5.8492   -2.9243  -17.0494 H   0  0  0  0  0  0  0  0  0  0  0  0
    5.4342    1.0099  -17.1899 H   0  0  0  0  0  0  0  0  0  0  0  0
    7.2075    2.4192  -16.8918 H   0  0  0  0  0  0  0  0  0  0  0  0
    8.1715    1.2882  -17.8027 H   0  0  0  0  0  0  0  0  0  0  0  0
    9.8366   -0.4417  -15.0571 H   0  0  0  0  0  0  0  0  0  0  0  0
    9.5147   -0.4119  -16.7846 H   0  0  0  0  0  0  0  0  0  0  0  0
   10.6595    1.6883  -17.0351 H   0  0  0  0  0  0  0  0  0  0  0  0
   11.6787    0.8778  -15.8494 H   0  0  0  0  0  0  0  0  0  0  0  0
   10.6149    3.3242  -15.3278 H   0  0  0  0  0  0  0  0  0  0  0  0
   10.7028    2.1017  -14.0489 H   0  0  0  0  0  0  0  0  0  0  0  0
    9.1037    5.0375  -14.4179 H   0  0  0  0  0  0  0  0  0  0  0  0
    9.4698    3.2449  -11.9848 H   0  0  0  0  0  0  0  0  0  0  0  0
   10.7043    4.0981  -12.9031 H   0  0  0  0  0  0  0  0  0  0  0  0
    9.8250    5.1110  -10.5461 H   0  0  0  0  0  0  0  0  0  0  0  0
   10.1960    6.1654  -11.9109 H   0  0  0  0  0  0  0  0  0  0  0  0
    7.4874    5.3667  -10.8889 H   0  0  0  0  0  0  0  0  0  0  0  0
    7.9946    6.8670  -11.6682 H   0  0  0  0  0  0  0  0  0  0  0  0
    7.3079    5.9981  -13.5911 H   0  0  0  0  0  0  0  0  0  0  0  0
    6.8134    4.6326  -12.8073 H   0  0  0  0  0  0  0  0  0  0  0  0
  2  1  1  0
  3  2  2  0
  4  2  1  0
  5  4  1  0
  6  5  1  0
  7  6  1  0
  8  7  1  0
  9  8  1  0
 10  9  1  0
 11 10  1  0
 12 11  1  0
 13 12  1  0
 10 14  1  1
 14 13  1  0
 15 14  1  0
 16 15  2  0
 17 15  1  0
 18 17  1  0
 19 18  1  0
 20 19  1  0
 21 17  1  0
 21 20  1  0
 22 10  1  0
 23 22  2  0
 24  4  1  0
 24  8  1  0
 24 22  1  0
 25  1  1  0
 26  1  1  0
  4 27  1  1
 28  5  1  0
 29  5  1  0
 30  6  1  0
 31  6  1  0
  8 32  1  6
 33  9  1  0
 34  9  1  0
 35 11  1  0
 36 11  1  0
 37 12  1  0
 38 12  1  0
 39 13  1  0
 40 13  1  0
 17 41  1  6
 42 18  1  0
 43 18  1  0
 44 19  1  0
 45 19  1  0
 46 20  1  0
 47 20  1  0
 48 21  1  0
 49 21  1  0
M  CHG  1  21   1
M  END
>  <b_m_subgroup_collapsed>  (1310) 
0

>  <r_i_docking_score>  (1310) 
-6.1751063375000497

>  <s_m_subgroup_title>  (1310) 
glide-dock_SP_D22_pv

>  <s_m_subgroupid>  (1310) 
glide-dock_SP_D22_pv

>  <Molecule ChEMBL ID>  (1310) 
CHEMBL156164

>  <Standard Type>  (1310) 
Ki

>  <Standard Value>  (1310) 
0.031

>  <label>  (1310) 
1

$$$$
CHEMBL5646887
     RDKit          3D

 69 70  0  0  1  0  0  0  0  0999 V2000
    3.7481   -0.6614  -18.3036 C   0  0  0  0  0  0  0  0  0  0  0  0
    4.9331   -0.2941  -17.7918 C   0  0  0  0  0  0  0  0  0  0  0  0
    5.8585   -1.2228  -17.0185 C   0  0  0  0  0  0  0  0  0  0  0  0
    6.0832   -0.8189  -15.6018 N   0  0  2  0  0  0  0  0  0  0  0  0
    4.8776   -0.8478  -14.7416 C   0  0  0  0  0  0  0  0  0  0  0  0
    4.9120    0.4238  -13.8807 C   0  0  0  0  0  0  0  0  0  0  0  0
    6.3235    1.0073  -14.0354 C   0  0  2  0  0  0  0  0  0  0  0  0
    6.3833    2.4326  -14.0974 O   0  0  0  0  0  0  0  0  0  0  0  0
    5.9040    3.1786  -12.9883 C   0  0  0  0  0  0  0  0  0  0  0  0
    6.0303    4.6668  -13.3554 C   0  0  0  0  0  0  0  0  0  0  0  0
    5.9371    5.6305  -12.1623 C   0  0  0  0  0  0  0  0  0  0  0  0
    7.2130    5.7724  -11.4478 N   0  0  0  0  0  0  0  0  0  0  0  0
    6.8087    0.4607  -15.3898 C   0  0  1  0  0  0  0  0  0  0  0  0
    8.3325    0.2439  -15.4669 C   0  0  0  0  0  0  0  0  0  0  0  0
    9.1098    1.4789  -15.3982 N   0  0  0  0  0  0  0  0  0  0  0  0
   10.3465    1.5898  -15.9168 C   0  0  0  0  0  0  0  0  0  0  0  0
   10.9028    0.6580  -16.5022 O   0  0  0  0  0  0  0  0  0  0  0  0
   10.9961    2.9459  -15.8433 C   0  0  0  0  0  0  0  0  0  0  0  0
   11.6237    3.4456  -17.0034 C   0  0  0  0  0  0  0  0  0  0  0  0
   12.2175    4.7198  -17.0078 C   0  0  0  0  0  0  0  0  0  0  0  0
   12.8730    5.2604  -18.2667 C   0  0  0  0  0  0  0  0  0  0  0  0
   14.3996    5.0618  -18.3137 C   0  0  0  0  0  0  0  0  0  0  0  0
   15.1737    5.8516  -17.2462 C   0  0  0  0  0  0  0  0  0  0  0  0
   16.4860    5.7721  -17.4673 F   0  0  0  0  0  0  0  0  0  0  0  0
   12.1901    5.4996  -15.8390 C   0  0  0  0  0  0  0  0  0  0  0  0
   11.6172    5.0038  -14.6421 C   0  0  0  0  0  0  0  0  0  0  0  0
   11.6606    5.7223  -13.4636 O   0  0  0  0  0  0  0  0  0  0  0  0
   12.2473    7.0165  -13.4691 C   0  0  0  0  0  0  0  0  0  0  0  0
   11.0070    3.7144  -14.6484 C   0  0  0  0  0  0  0  0  0  0  0  0
   10.4671    3.1423  -13.5138 O   0  0  0  0  0  0  0  0  0  0  0  0
    9.6678    3.9736  -12.6842 C   0  0  0  0  0  0  0  0  0  0  0  0
    3.3643   -1.6649  -18.1809 H   0  0  0  0  0  0  0  0  0  0  0  0
    3.1401    0.0433  -18.8559 H   0  0  0  0  0  0  0  0  0  0  0  0
    5.2639    0.7242  -17.9426 H   0  0  0  0  0  0  0  0  0  0  0  0
    5.4538   -2.2363  -17.0264 H   0  0  0  0  0  0  0  0  0  0  0  0
    6.8139   -1.2753  -17.5407 H   0  0  0  0  0  0  0  0  0  0  0  0
    3.9481   -0.8842  -15.3244 H   0  0  0  0  0  0  0  0  0  0  0  0
    4.9057   -1.7555  -14.1266 H   0  0  0  0  0  0  0  0  0  0  0  0
    4.1488    1.1149  -14.2474 H   0  0  0  0  0  0  0  0  0  0  0  0
    4.6754    0.2030  -12.8365 H   0  0  0  0  0  0  0  0  0  0  0  0
    6.9459    0.6157  -13.2303 H   0  0  0  0  0  0  0  0  0  0  0  0
    4.8647    2.9345  -12.7611 H   0  0  0  0  0  0  0  0  0  0  0  0
    6.4876    2.9720  -12.0962 H   0  0  0  0  0  0  0  0  0  0  0  0
    6.9691    4.8375  -13.8819 H   0  0  0  0  0  0  0  0  0  0  0  0
    5.2445    4.9290  -14.0646 H   0  0  0  0  0  0  0  0  0  0  0  0
    5.6641    6.6264  -12.5197 H   0  0  0  0  0  0  0  0  0  0  0  0
    5.1733    5.3222  -11.4488 H   0  0  0  0  0  0  0  0  0  0  0  0
    7.0513    6.5364  -10.7805 H   0  0  0  0  0  0  0  0  0  0  0  0
    7.4276    4.9330  -10.9293 H   0  0  0  0  0  0  0  0  0  0  0  0
    6.5108    1.1688  -16.1661 H   0  0  0  0  0  0  0  0  0  0  0  0
    8.6666   -0.3941  -14.6538 H   0  0  0  0  0  0  0  0  0  0  0  0
    8.5644   -0.2839  -16.3928 H   0  0  0  0  0  0  0  0  0  0  0  0
    8.7069    2.2818  -14.9335 H   0  0  0  0  0  0  0  0  0  0  0  0
   11.6337    2.8530  -17.9079 H   0  0  0  0  0  0  0  0  0  0  0  0
   12.4207    4.7742  -19.1305 H   0  0  0  0  0  0  0  0  0  0  0  0
   12.6381    6.3210  -18.3645 H   0  0  0  0  0  0  0  0  0  0  0  0
   14.6384    4.0015  -18.2278 H   0  0  0  0  0  0  0  0  0  0  0  0
   14.7565    5.3771  -19.2952 H   0  0  0  0  0  0  0  0  0  0  0  0
   14.9150    6.9108  -17.2569 H   0  0  0  0  0  0  0  0  0  0  0  0
   14.9935    5.4572  -16.2469 H   0  0  0  0  0  0  0  0  0  0  0  0
   12.6498    6.4738  -15.8805 H   0  0  0  0  0  0  0  0  0  0  0  0
   12.2445    7.4182  -12.4580 H   0  0  0  0  0  0  0  0  0  0  0  0
   13.2809    6.9923  -13.8127 H   0  0  0  0  0  0  0  0  0  0  0  0
   11.6911    7.7040  -14.1053 H   0  0  0  0  0  0  0  0  0  0  0  0
   10.2587    4.4086  -11.8763 H   0  0  0  0  0  0  0  0  0  0  0  0
    9.1854    4.7699  -13.2587 H   0  0  0  0  0  0  0  0  0  0  0  0
    8.8807    3.3739  -12.2208 H   0  0  0  0  0  0  0  0  0  0  0  0
    7.9606    6.0324  -12.0698 H   0  0  0  0  0  0  0  0  0  0  0  0
    6.6924   -1.5461  -15.2363 H   0  0  0  0  0  0  0  0  0  0  0  0
  2  1  2  0
  3  2  1  0
  4  3  1  0
  5  4  1  0
  6  5  1  0
  7  6  1  0
  8  7  1  0
  9  8  1  0
 10  9  1  0
 11 10  1  0
 12 11  1  0
 13  4  1  0
 13  7  1  0
 14 13  1  0
 15 14  1  0
 16 15  1  0
 17 16  2  0
 18 16  1  0
 19 18  1  0
 20 19  2  0
 21 20  1  0
 22 21  1  0
 23 22  1  0
 24 23  1  0
 25 20  1  0
 26 25  2  0
 27 26  1  0
 28 27  1  0
 29 18  2  0
 29 26  1  0
 30 29  1  0
 31 30  1  0
 32  1  1  0
 33  1  1  0
 34  2  1  0
 35  3  1  0
 36  3  1  0
 37  5  1  0
 38  5  1  0
 39  6  1  0
 40  6  1  0
  7 41  1  1
 42  9  1  0
 43  9  1  0
 44 10  1  0
 45 10  1  0
 46 11  1  0
 47 11  1  0
 48 12  1  0
 49 12  1  0
 13 50  1  6
 51 14  1  0
 52 14  1  0
 53 15  1  0
 54 19  1  0
 55 21  1  0
 56 21  1  0
 57 22  1  0
 58 22  1  0
 59 23  1  0
 60 23  1  0
 61 25  1  0
 62 28  1  0
 63 28  1  0
 64 28  1  0
 65 31  1  0
 66 31  1  0
 67 31  1  0
 68 12  1  0
  4 69  1  1
M  CHG  2   4   1  12   1
M  END
>  <b_m_subgroup_collapsed>  (1311) 
0

>  <r_i_docking_score>  (1311) 
-6.1730313131977397

>  <s_m_subgroup_title>  (1311) 
glide-dock_SP_D22_pv

>  <s_m_subgroupid>  (1311) 
glide-dock_SP_D22_pv

>  <Molecule ChEMBL ID>  (1311) 
CHEMBL5646887

>  <Standard Type>  (1311) 
Ki

>  <Standard Value>  (1311) 
21.4

>  <label>  (1311) 
1

$$$$
CHEMBL4544802
     RDKit          3D

 35 37  0  0  1  0  0  0  0  0999 V2000
   10.1981    0.2413  -15.3900 C   0  0  0  0  0  0  0  0  0  0  0  0
   10.4065    1.4920  -14.5280 C   0  0  0  0  0  0  0  0  0  0  0  0
   10.5585    2.7006  -15.3194 N   0  0  0  0  0  0  0  0  0  0  0  0
   11.4625    2.8820  -16.2949 C   0  0  0  0  0  0  0  0  0  0  0  0
   11.4497    4.0839  -16.8530 N   0  0  0  0  0  0  0  0  0  0  0  0
   10.4518    4.7565  -16.1570 C   0  0  0  0  0  0  0  0  0  0  0  0
    9.8963    3.9278  -15.2073 C   0  0  0  0  0  0  0  0  0  0  0  0
    8.8723    4.2371  -14.2118 C   0  0  0  0  0  0  0  0  0  0  0  0
    8.8605    5.3626  -13.4231 C   0  0  0  0  0  0  0  0  0  0  0  0
    7.7443    5.3607  -12.6082 N   0  0  0  0  0  0  0  0  0  0  0  0
    6.9977    4.2265  -12.8279 C   0  0  0  0  0  0  0  0  0  0  0  0
    5.8091    3.7620  -12.2471 C   0  0  0  0  0  0  0  0  0  0  0  0
    5.2865    2.5221  -12.6475 C   0  0  0  0  0  0  0  0  0  0  0  0
    5.9298    1.7556  -13.6448 C   0  0  0  0  0  0  0  0  0  0  0  0
    5.3635    0.4228  -14.0127 C   0  0  0  0  0  0  0  0  0  0  0  0
    4.3896   -0.0783  -13.4468 O   0  0  0  0  0  0  0  0  0  0  0  0
    6.0088   -0.1676  -15.0351 O   0  0  0  0  0  0  0  0  0  0  0  0
    5.5462   -1.4198  -15.5181 C   0  0  0  0  0  0  0  0  0  0  0  0
    7.0933    2.2774  -14.2636 C   0  0  0  0  0  0  0  0  0  0  0  0
    7.6813    3.4993  -13.8467 C   0  0  0  0  0  0  0  0  0  0  0  0
   10.0448   -0.6294  -14.7566 H   0  0  0  0  0  0  0  0  0  0  0  0
    9.3228    0.3406  -16.0318 H   0  0  0  0  0  0  0  0  0  0  0  0
   11.0618    0.0407  -16.0232 H   0  0  0  0  0  0  0  0  0  0  0  0
   11.2860    1.3809  -13.8988 H   0  0  0  0  0  0  0  0  0  0  0  0
    9.5733    1.6019  -13.8461 H   0  0  0  0  0  0  0  0  0  0  0  0
   12.1593    2.1139  -16.5999 H   0  0  0  0  0  0  0  0  0  0  0  0
   10.2190    5.7855  -16.3823 H   0  0  0  0  0  0  0  0  0  0  0  0
    9.5727    6.1720  -13.3745 H   0  0  0  0  0  0  0  0  0  0  0  0
    7.5301    6.0885  -11.9350 H   0  0  0  0  0  0  0  0  0  0  0  0
    5.3209    4.3391  -11.4738 H   0  0  0  0  0  0  0  0  0  0  0  0
    4.3840    2.1681  -12.1797 H   0  0  0  0  0  0  0  0  0  0  0  0
    6.0941   -1.7021  -16.4163 H   0  0  0  0  0  0  0  0  0  0  0  0
    5.6880   -2.2005  -14.7704 H   0  0  0  0  0  0  0  0  0  0  0  0
    4.4869   -1.3742  -15.7751 H   0  0  0  0  0  0  0  0  0  0  0  0
    7.5849    1.7200  -15.0458 H   0  0  0  0  0  0  0  0  0  0  0  0
  2  1  1  0
  3  2  1  0
  4  3  1  0
  5  4  2  0
  6  5  1  0
  7  3  1  0
  7  6  2  0
  8  7  1  0
  9  8  2  0
 10  9  1  0
 11 10  1  0
 12 11  2  0
 13 12  1  0
 14 13  2  0
 15 14  1  0
 16 15  2  0
 17 15  1  0
 18 17  1  0
 19 14  1  0
 20  8  1  0
 20 11  1  0
 20 19  2  0
 21  1  1  0
 22  1  1  0
 23  1  1  0
 24  2  1  0
 25  2  1  0
 26  4  1  0
 27  6  1  0
 28  9  1  0
 29 10  1  0
 30 12  1  0
 31 13  1  0
 32 18  1  0
 33 18  1  0
 34 18  1  0
 35 19  1  0
M  END
>  <b_m_subgroup_collapsed>  (1312) 
0

>  <r_i_docking_score>  (1312) 
-6.1708800627934597

>  <s_m_subgroup_title>  (1312) 
glide-dock_SP_D22_pv

>  <s_m_subgroupid>  (1312) 
glide-dock_SP_D22_pv

>  <Molecule ChEMBL ID>  (1312) 
CHEMBL4544802

>  <Standard Type>  (1312) 
Ki

>  <Standard Value>  (1312) 
10000.0

>  <label>  (1312) 
0

$$$$
CHEMBL4442148
     RDKit          3D

 48 52  0  0  1  0  0  0  0  0999 V2000
    5.3041    1.5001  -13.3661 C   0  0  0  0  0  0  0  0  0  0  0  0
    5.1104    2.8769  -13.0658 O   0  0  0  0  0  0  0  0  0  0  0  0
    6.2222    3.6873  -13.1009 C   0  0  0  0  0  0  0  0  0  0  0  0
    6.1760    4.8762  -12.3537 C   0  0  0  0  0  0  0  0  0  0  0  0
    7.3164    5.6819  -12.2376 C   0  0  0  0  0  0  0  0  0  0  0  0
    8.5296    5.2615  -12.8027 C   0  0  0  0  0  0  0  0  0  0  0  0
    8.6073    4.1015  -13.6279 C   0  0  0  0  0  0  0  0  0  0  0  0
    7.4069    3.3714  -13.8133 C   0  0  0  0  0  0  0  0  0  0  0  0
    9.9671    3.9845  -14.0934 C   0  0  0  0  0  0  0  0  0  0  0  0
   10.4604    2.9993  -15.0610 C   0  0  0  0  0  0  0  0  0  0  0  0
   11.4042    3.4275  -15.9925 N   0  0  0  0  0  0  0  0  0  0  0  0
   11.6306    2.4087  -16.8146 C   0  0  0  0  0  0  0  0  0  0  0  0
   12.4358    2.3573  -17.8904 N   0  0  0  0  0  0  0  0  0  0  0  0
   12.4620    1.2186  -18.5718 C   0  0  0  0  0  0  0  0  0  0  0  0
   11.6994    0.0740  -18.2415 C   0  0  0  0  0  0  0  0  0  0  0  0
   10.8860    0.1367  -17.1337 C   0  0  0  0  0  0  0  0  0  0  0  0
   10.8534    1.2970  -16.4173 N   0  0  0  0  0  0  0  0  0  0  0  0
   10.1560    1.6721  -15.2787 C   0  0  0  0  0  0  0  0  0  0  0  0
    9.2814    0.7005  -14.5498 C   0  0  0  0  0  0  0  0  0  0  0  0
   10.6628    5.0044  -13.4913 C   0  0  0  0  0  0  0  0  0  0  0  0
    9.8113    5.7734  -12.7092 N   0  0  0  0  0  0  0  0  0  0  0  0
   10.2811    7.2011  -11.8470 S   0  0  0  0  0  0  0  0  0  0  0  0
   11.7130    7.3723  -12.1463 O   0  0  0  0  0  0  0  0  0  0  0  0
    9.3063    8.2339  -12.2280 O   0  0  0  0  0  0  0  0  0  0  0  0
   10.1182    6.8878  -10.0897 C   0  0  0  0  0  0  0  0  0  0  0  0
   10.7890    7.7643   -9.2089 C   0  0  0  0  0  0  0  0  0  0  0  0
   10.6376    7.6103   -7.8164 C   0  0  0  0  0  0  0  0  0  0  0  0
    9.8074    6.5902   -7.3088 C   0  0  0  0  0  0  0  0  0  0  0  0
    9.1494    5.7120   -8.1933 C   0  0  0  0  0  0  0  0  0  0  0  0
    9.3169    5.8447   -9.5816 C   0  0  0  0  0  0  0  0  0  0  0  0
    4.3676    0.9643  -13.2227 H   0  0  0  0  0  0  0  0  0  0  0  0
    5.6158    1.3354  -14.3958 H   0  0  0  0  0  0  0  0  0  0  0  0
    6.0449    1.0549  -12.7007 H   0  0  0  0  0  0  0  0  0  0  0  0
    5.2860    5.1516  -11.8113 H   0  0  0  0  0  0  0  0  0  0  0  0
    7.2857    6.5724  -11.6283 H   0  0  0  0  0  0  0  0  0  0  0  0
    7.4325    2.5145  -14.4624 H   0  0  0  0  0  0  0  0  0  0  0  0
   13.1156    1.1968  -19.4379 H   0  0  0  0  0  0  0  0  0  0  0  0
   11.7553   -0.8283  -18.8424 H   0  0  0  0  0  0  0  0  0  0  0  0
   10.2617   -0.6836  -16.7952 H   0  0  0  0  0  0  0  0  0  0  0  0
    8.9374    1.1040  -13.5986 H   0  0  0  0  0  0  0  0  0  0  0  0
    8.4057    0.4403  -15.1484 H   0  0  0  0  0  0  0  0  0  0  0  0
    9.8235   -0.2205  -14.3285 H   0  0  0  0  0  0  0  0  0  0  0  0
   11.7072    5.2624  -13.5933 H   0  0  0  0  0  0  0  0  0  0  0  0
   11.4045    8.5608   -9.6027 H   0  0  0  0  0  0  0  0  0  0  0  0
   11.1437    8.2842   -7.1402 H   0  0  0  0  0  0  0  0  0  0  0  0
    9.6728    6.4814   -6.2413 H   0  0  0  0  0  0  0  0  0  0  0  0
    8.5060    4.9326   -7.8180 H   0  0  0  0  0  0  0  0  0  0  0  0
    8.8047    5.1473  -10.2221 H   0  0  0  0  0  0  0  0  0  0  0  0
  2  1  1  0
  3  2  1  0
  4  3  2  0
  5  4  1  0
  6  5  2  0
  7  6  1  0
  8  3  1  0
  8  7  2  0
  9  7  1  0
 10  9  1  0
 11 10  1  0
 12 11  2  0
 13 12  1  0
 14 13  2  0
 15 14  1  0
 16 15  2  0
 17 12  1  0
 17 16  1  0
 18 10  2  0
 18 17  1  0
 19 18  1  0
 20  9  2  0
 21  6  1  0
 21 20  1  0
 22 21  1  0
 23 22  2  0
 24 22  2  0
 25 22  1  0
 26 25  2  0
 27 26  1  0
 28 27  2  0
 29 28  1  0
 30 25  1  0
 30 29  2  0
 31  1  1  0
 32  1  1  0
 33  1  1  0
 34  4  1  0
 35  5  1  0
 36  8  1  0
 37 14  1  0
 38 15  1  0
 39 16  1  0
 40 19  1  0
 41 19  1  0
 42 19  1  0
 43 20  1  0
 44 26  1  0
 45 27  1  0
 46 28  1  0
 47 29  1  0
 48 30  1  0
M  END
>  <b_m_subgroup_collapsed>  (1313) 
0

>  <r_i_docking_score>  (1313) 
-6.1705490052304004

>  <s_m_subgroup_title>  (1313) 
glide-dock_SP_D22_pv

>  <s_m_subgroupid>  (1313) 
glide-dock_SP_D22_pv

>  <Molecule ChEMBL ID>  (1313) 
CHEMBL4442148

>  <Standard Type>  (1313) 
Ki

>  <Standard Value>  (1313) 
10000.0

>  <label>  (1313) 
0

$$$$
CHEMBL4096141
     RDKit          3D

 39 42  0  0  1  0  0  0  0  0999 V2000
   11.1544    2.0842  -14.6995 C   0  0  0  0  0  0  0  0  0  0  0  0
    9.7875    2.6335  -14.3555 C   0  0  0  0  0  0  0  0  0  0  0  0
    8.6036    1.8819  -14.6471 C   0  0  0  0  0  0  0  0  0  0  0  0
    8.7142    0.4922  -15.2601 C   0  0  0  0  0  0  0  0  0  0  0  0
    7.4990   -0.2277  -15.2408 O   0  0  0  0  0  0  0  0  0  0  0  0
    7.3237    2.3554  -14.3554 O   0  0  0  0  0  0  0  0  0  0  0  0
    7.2361    3.5748  -13.7203 C   0  0  0  0  0  0  0  0  0  0  0  0
    6.0395    4.1986  -13.3088 C   0  0  0  0  0  0  0  0  0  0  0  0
    6.0861    5.4494  -12.6438 C   0  0  0  0  0  0  0  0  0  0  0  0
    7.3056    6.0968  -12.3724 C   0  0  0  0  0  0  0  0  0  0  0  0
    8.5061    5.4898  -12.7565 C   0  0  0  0  0  0  0  0  0  0  0  0
    8.3892    4.2886  -13.4041 C   0  0  0  0  0  0  0  0  0  0  0  0
    9.6586    3.8814  -13.6930 C   0  0  0  0  0  0  0  0  0  0  0  0
   10.5837    4.7971  -13.2378 C   0  0  0  0  0  0  0  0  0  0  0  0
    9.8064    5.8131  -12.6197 N   0  0  0  0  0  0  0  0  0  0  0  0
   10.3975    7.2553  -11.8516 S   0  0  0  0  0  0  0  0  0  0  0  0
   11.8112    7.3694  -12.2475 O   0  0  0  0  0  0  0  0  0  0  0  0
    9.4420    8.3182  -12.2003 O   0  0  0  0  0  0  0  0  0  0  0  0
   10.3223    6.9919  -10.0783 C   0  0  0  0  0  0  0  0  0  0  0  0
   11.2459    7.6849   -9.2684 C   0  0  0  0  0  0  0  0  0  0  0  0
   11.1913    7.5456   -7.8675 C   0  0  0  0  0  0  0  0  0  0  0  0
   10.2133    6.7173   -7.2788 C   0  0  0  0  0  0  0  0  0  0  0  0
    9.2856    6.0354   -8.0904 C   0  0  0  0  0  0  0  0  0  0  0  0
    9.3398    6.1671   -9.4916 C   0  0  0  0  0  0  0  0  0  0  0  0
   11.9535    2.7692  -14.4231 H   0  0  0  0  0  0  0  0  0  0  0  0
   11.2860    1.1502  -14.1576 H   0  0  0  0  0  0  0  0  0  0  0  0
   11.2372    1.8863  -15.7687 H   0  0  0  0  0  0  0  0  0  0  0  0
    9.4468   -0.0968  -14.7063 H   0  0  0  0  0  0  0  0  0  0  0  0
    9.0671    0.5734  -16.2897 H   0  0  0  0  0  0  0  0  0  0  0  0
    7.6798   -1.1431  -15.4470 H   0  0  0  0  0  0  0  0  0  0  0  0
    5.0890    3.7214  -13.4955 H   0  0  0  0  0  0  0  0  0  0  0  0
    5.2028    5.9477  -12.3093 H   0  0  0  0  0  0  0  0  0  0  0  0
    7.3065    7.0365  -11.8471 H   0  0  0  0  0  0  0  0  0  0  0  0
   11.6632    4.8385  -13.2709 H   0  0  0  0  0  0  0  0  0  0  0  0
   11.9854    8.3300   -9.7198 H   0  0  0  0  0  0  0  0  0  0  0  0
   11.8954    8.0777   -7.2452 H   0  0  0  0  0  0  0  0  0  0  0  0
   10.1646    6.6155   -6.2039 H   0  0  0  0  0  0  0  0  0  0  0  0
    8.5224    5.4157   -7.6409 H   0  0  0  0  0  0  0  0  0  0  0  0
    8.6084    5.6467  -10.0885 H   0  0  0  0  0  0  0  0  0  0  0  0
  2  1  1  0
  3  2  2  0
  4  3  1  0
  5  4  1  0
  6  3  1  0
  7  6  1  0
  8  7  1  0
  9  8  2  0
 10  9  1  0
 11 10  2  0
 12  7  2  0
 12 11  1  0
 13  2  1  0
 13 12  1  0
 14 13  2  0
 15 11  1  0
 15 14  1  0
 16 15  1  0
 17 16  2  0
 18 16  2  0
 19 16  1  0
 20 19  2  0
 21 20  1  0
 22 21  2  0
 23 22  1  0
 24 19  1  0
 24 23  2  0
 25  1  1  0
 26  1  1  0
 27  1  1  0
 28  4  1  0
 29  4  1  0
 30  5  1  0
 31  8  1  0
 32  9  1  0
 33 10  1  0
 34 14  1  0
 35 20  1  0
 36 21  1  0
 37 22  1  0
 38 23  1  0
 39 24  1  0
M  END
>  <b_m_subgroup_collapsed>  (1314) 
0

>  <r_i_docking_score>  (1314) 
-6.1696452041257803

>  <s_m_subgroup_title>  (1314) 
glide-dock_SP_D22_pv

>  <s_m_subgroupid>  (1314) 
glide-dock_SP_D22_pv

>  <Molecule ChEMBL ID>  (1314) 
CHEMBL4096141

>  <Standard Type>  (1314) 
Ki

>  <Standard Value>  (1314) 
10000.0

>  <label>  (1314) 
0

$$$$
CHEMBL591448
     RDKit          3D

 48 51  0  0  1  0  0  0  0  0999 V2000
   11.8745    1.7709  -16.6548 C   0  0  0  0  0  0  0  0  0  0  0  0
   10.7252    1.9766  -16.2989 C   0  0  0  0  0  0  0  0  0  0  0  0
    9.3607    2.2439  -15.8251 C   0  0  0  0  0  0  0  0  0  0  0  0
    9.3409    3.5288  -15.2168 O   0  0  0  0  0  0  0  0  0  0  0  0
    8.4427    3.7464  -14.2003 C   0  0  0  0  0  0  0  0  0  0  0  0
    7.1799    3.1034  -14.2467 C   0  0  0  0  0  0  0  0  0  0  0  0
    6.2017    3.3494  -13.2796 C   0  0  0  0  0  0  0  0  0  0  0  0
    6.5181    4.1762  -12.2012 C   0  0  0  0  0  0  0  0  0  0  0  0
    7.7964    4.7615  -12.0970 C   0  0  0  0  0  0  0  0  0  0  0  0
    8.7605    4.6401  -13.1277 C   0  0  0  0  0  0  0  0  0  0  0  0
   10.0095    5.4708  -13.0214 C   0  0  0  0  0  0  0  0  0  0  0  0
   11.1201    5.3479  -13.9011 C   0  0  0  0  0  0  0  0  0  0  0  0
   12.2317    6.2034  -13.8763 C   0  0  0  0  0  0  0  0  0  0  0  0
   12.3351    7.2040  -12.9055 C   0  0  0  0  0  0  0  0  0  0  0  0
   11.3185    7.3594  -11.9556 C   0  0  0  0  0  0  0  0  0  0  0  0
   10.1752    6.5102  -12.0491 C   0  0  0  0  0  0  0  0  0  0  0  0
    8.9844    6.7530  -11.1073 C   0  0  1  0  0  0  0  0  0  0  0  0
    8.1601    5.4978  -10.8321 C   0  0  0  0  0  0  0  0  0  0  0  0
    9.2828    7.5260   -9.8683 N   0  0  1  0  0  0  0  0  0  0  0  0
    9.7923    6.7551   -8.6943 C   0  0  0  0  0  0  0  0  0  0  0  0
   10.0232    7.6289   -7.4432 C   0  0  0  0  0  0  0  0  0  0  0  0
   10.3191    6.8081   -6.1853 C   0  0  0  0  0  0  0  0  0  0  0  0
   10.0431    8.7343  -10.2166 C   0  0  0  0  0  0  0  0  0  0  0  0
   11.3994    8.3179  -10.7709 C   0  0  0  0  0  0  0  0  0  0  0  0
   12.8855    1.5903  -16.9421 H   0  0  0  0  0  0  0  0  0  0  0  0
    8.6760    2.2057  -16.6730 H   0  0  0  0  0  0  0  0  0  0  0  0
    9.1047    1.4475  -15.1244 H   0  0  0  0  0  0  0  0  0  0  0  0
    6.9192    2.4511  -15.0660 H   0  0  0  0  0  0  0  0  0  0  0  0
    5.2290    2.8851  -13.3496 H   0  0  0  0  0  0  0  0  0  0  0  0
    5.7682    4.3369  -11.4466 H   0  0  0  0  0  0  0  0  0  0  0  0
   11.1714    4.5919  -14.6607 H   0  0  0  0  0  0  0  0  0  0  0  0
   13.0334    6.0644  -14.5869 H   0  0  0  0  0  0  0  0  0  0  0  0
   13.2200    7.8233  -12.8674 H   0  0  0  0  0  0  0  0  0  0  0  0
    8.3301    7.4006  -11.6958 H   0  0  0  0  0  0  0  0  0  0  0  0
    7.2848    5.7681  -10.2537 H   0  0  0  0  0  0  0  0  0  0  0  0
    8.7273    4.7840  -10.2348 H   0  0  0  0  0  0  0  0  0  0  0  0
    9.0520    6.0043   -8.4195 H   0  0  0  0  0  0  0  0  0  0  0  0
   10.7010    6.2130   -8.9569 H   0  0  0  0  0  0  0  0  0  0  0  0
   10.8606    8.3088   -7.6013 H   0  0  0  0  0  0  0  0  0  0  0  0
    9.1426    8.2468   -7.2570 H   0  0  0  0  0  0  0  0  0  0  0  0
   10.5093    7.4597   -5.3324 H   0  0  0  0  0  0  0  0  0  0  0  0
   11.1956    6.1737   -6.3207 H   0  0  0  0  0  0  0  0  0  0  0  0
    9.4723    6.1723   -5.9282 H   0  0  0  0  0  0  0  0  0  0  0  0
    9.4744    9.2831  -10.9678 H   0  0  0  0  0  0  0  0  0  0  0  0
   10.1479    9.4162   -9.3746 H   0  0  0  0  0  0  0  0  0  0  0  0
   11.9981    7.8401   -9.9952 H   0  0  0  0  0  0  0  0  0  0  0  0
   11.9690    9.2046  -11.0466 H   0  0  0  0  0  0  0  0  0  0  0  0
    8.3559    7.8393   -9.5892 H   0  0  0  0  0  0  0  0  0  0  0  0
  2  1  3  0
  3  2  1  0
  4  3  1  0
  5  4  1  0
  6  5  1  0
  7  6  2  0
  8  7  1  0
  9  8  2  0
 10  5  2  0
 10  9  1  0
 11 10  1  0
 12 11  1  0
 13 12  2  0
 14 13  1  0
 15 14  2  0
 16 11  2  0
 16 15  1  0
 17 16  1  0
 18  9  1  0
 18 17  1  0
 19 17  1  0
 20 19  1  0
 21 20  1  0
 22 21  1  0
 23 19  1  0
 24 15  1  0
 24 23  1  0
 25  1  1  0
 26  3  1  0
 27  3  1  0
 28  6  1  0
 29  7  1  0
 30  8  1  0
 31 12  1  0
 32 13  1  0
 33 14  1  0
 17 34  1  6
 35 18  1  0
 36 18  1  0
 37 20  1  0
 38 20  1  0
 39 21  1  0
 40 21  1  0
 41 22  1  0
 42 22  1  0
 43 22  1  0
 44 23  1  0
 45 23  1  0
 46 24  1  0
 47 24  1  0
 19 48  1  1
M  CHG  1  19   1
M  END
>  <b_m_subgroup_collapsed>  (1315) 
0

>  <r_i_docking_score>  (1315) 
-6.1658743136448502

>  <s_m_subgroup_title>  (1315) 
glide-dock_SP_D22_pv

>  <s_m_subgroupid>  (1315) 
glide-dock_SP_D22_pv

>  <Molecule ChEMBL ID>  (1315) 
CHEMBL591448

>  <Standard Type>  (1315) 
Ki

>  <Standard Value>  (1315) 
10000.0

>  <label>  (1315) 
0

$$$$
CHEMBL4446215
     RDKit          3D

 46 49  0  0  1  0  0  0  0  0999 V2000
    5.1872   -1.8456  -15.3598 C   0  0  0  0  0  0  0  0  0  0  0  0
    5.2210   -0.5321  -14.5898 C   0  0  0  0  0  0  0  0  0  0  0  0
    4.2806   -0.2389  -13.8476 O   0  0  0  0  0  0  0  0  0  0  0  0
    6.3205    0.2262  -14.7552 N   0  0  0  0  0  0  0  0  0  0  0  0
    6.5630    1.5146  -14.2145 C   0  0  0  0  0  0  0  0  0  0  0  0
    5.6789    2.1826  -13.4706 N   0  0  0  0  0  0  0  0  0  0  0  0
    6.2361    3.4123  -13.1849 C   0  0  0  0  0  0  0  0  0  0  0  0
    5.5169    4.4608  -12.4165 C   0  0  0  0  0  0  0  0  0  0  0  0
    7.5158    3.3842  -13.7003 C   0  0  0  0  0  0  0  0  0  0  0  0
    8.5890    4.3606  -13.4964 C   0  0  0  0  0  0  0  0  0  0  0  0
    8.5746    5.4716  -12.6941 C   0  0  0  0  0  0  0  0  0  0  0  0
    9.8280    6.0515  -12.6448 N   0  0  0  0  0  0  0  0  0  0  0  0
   10.1746    7.4319  -11.6606 S   0  0  0  0  0  0  0  0  0  0  0  0
    9.2863    8.4942  -12.1593 O   0  0  0  0  0  0  0  0  0  0  0  0
   11.6357    7.5972  -11.6683 O   0  0  0  0  0  0  0  0  0  0  0  0
    9.6980    7.0424   -9.9787 C   0  0  0  0  0  0  0  0  0  0  0  0
    9.3593    5.7345   -9.5735 C   0  0  0  0  0  0  0  0  0  0  0  0
    8.9505    5.5079   -8.2464 C   0  0  0  0  0  0  0  0  0  0  0  0
    8.9178    6.5725   -7.3230 C   0  0  0  0  0  0  0  0  0  0  0  0
    9.2856    7.8709   -7.7229 C   0  0  0  0  0  0  0  0  0  0  0  0
    9.6741    8.1070   -9.0551 C   0  0  0  0  0  0  0  0  0  0  0  0
   10.6719    5.3913  -13.5338 C   0  0  0  0  0  0  0  0  0  0  0  0
   12.0068    5.6150  -13.9341 C   0  0  0  0  0  0  0  0  0  0  0  0
   12.6027    4.7796  -14.8929 C   0  0  0  0  0  0  0  0  0  0  0  0
   11.8732    3.7105  -15.4374 C   0  0  0  0  0  0  0  0  0  0  0  0
   10.5470    3.4784  -15.0283 C   0  0  0  0  0  0  0  0  0  0  0  0
    9.9034    4.3163  -14.0837 C   0  0  0  0  0  0  0  0  0  0  0  0
    7.6977    2.1784  -14.3960 N   0  0  0  0  0  0  0  0  0  0  0  0
    5.6859   -2.6259  -14.7867 H   0  0  0  0  0  0  0  0  0  0  0  0
    4.1584   -2.1605  -15.5399 H   0  0  0  0  0  0  0  0  0  0  0  0
    5.6857   -1.7520  -16.3238 H   0  0  0  0  0  0  0  0  0  0  0  0
    7.0496   -0.1483  -15.3440 H   0  0  0  0  0  0  0  0  0  0  0  0
    5.9821    4.6187  -11.4469 H   0  0  0  0  0  0  0  0  0  0  0  0
    5.5200    5.4093  -12.9549 H   0  0  0  0  0  0  0  0  0  0  0  0
    4.4861    4.1708  -12.2540 H   0  0  0  0  0  0  0  0  0  0  0  0
    7.7807    5.8836  -12.0861 H   0  0  0  0  0  0  0  0  0  0  0  0
    9.3979    4.9038  -10.2608 H   0  0  0  0  0  0  0  0  0  0  0  0
    8.6662    4.5142   -7.9363 H   0  0  0  0  0  0  0  0  0  0  0  0
    8.5979    6.3940   -6.3072 H   0  0  0  0  0  0  0  0  0  0  0  0
    9.2446    8.6853   -7.0156 H   0  0  0  0  0  0  0  0  0  0  0  0
    9.9346    9.1055   -9.3741 H   0  0  0  0  0  0  0  0  0  0  0  0
   12.5844    6.4311  -13.5276 H   0  0  0  0  0  0  0  0  0  0  0  0
   13.6210    4.9578  -15.2059 H   0  0  0  0  0  0  0  0  0  0  0  0
   12.3362    3.0615  -16.1665 H   0  0  0  0  0  0  0  0  0  0  0  0
   10.0068    2.6497  -15.4588 H   0  0  0  0  0  0  0  0  0  0  0  0
    4.7572    1.8504  -13.2206 H   0  0  0  0  0  0  0  0  0  0  0  0
  2  1  1  0
  3  2  2  0
  4  2  1  0
  5  4  1  0
  6  5  1  0
  7  6  1  0
  8  7  1  0
  9  7  2  0
 10  9  1  0
 11 10  2  0
 12 11  1  0
 13 12  1  0
 14 13  2  0
 15 13  2  0
 16 13  1  0
 17 16  2  0
 18 17  1  0
 19 18  2  0
 20 19  1  0
 21 16  1  0
 21 20  2  0
 22 12  1  0
 23 22  2  0
 24 23  1  0
 25 24  2  0
 26 25  1  0
 27 10  1  0
 27 22  1  0
 27 26  2  0
 28  5  2  0
 28  9  1  0
 29  1  1  0
 30  1  1  0
 31  1  1  0
 32  4  1  0
 33  8  1  0
 34  8  1  0
 35  8  1  0
 36 11  1  0
 37 17  1  0
 38 18  1  0
 39 19  1  0
 40 20  1  0
 41 21  1  0
 42 23  1  0
 43 24  1  0
 44 25  1  0
 45 26  1  0
 46  6  1  0
M  END
>  <b_m_subgroup_collapsed>  (1316) 
0

>  <r_i_docking_score>  (1316) 
-6.1654898136658502

>  <s_m_subgroup_title>  (1316) 
glide-dock_SP_D22_pv

>  <s_m_subgroupid>  (1316) 
glide-dock_SP_D22_pv

>  <Molecule ChEMBL ID>  (1316) 
CHEMBL4446215

>  <Standard Type>  (1316) 
Ki

>  <Standard Value>  (1316) 
10000.0

>  <label>  (1316) 
0

$$$$
CHEMBL201093
     RDKit          3D

 38 40  0  0  1  0  0  0  0  0999 V2000
   10.3276    5.1810   -8.8569 C   0  0  0  0  0  0  0  0  0  0  0  0
    8.8950    5.4622   -8.9330 N   0  0  2  0  0  0  0  0  0  0  0  0
    8.3731    5.7723  -10.2984 C   0  0  0  0  0  0  0  0  0  0  0  0
    8.8127    7.0878  -10.9945 C   0  0  0  0  0  0  0  0  0  0  0  0
   10.2702    7.2783  -11.3594 C   0  0  0  0  0  0  0  0  0  0  0  0
   10.7548    6.6304  -12.5173 C   0  0  0  0  0  0  0  0  0  0  0  0
   12.0443    6.9127  -13.0034 C   0  0  0  0  0  0  0  0  0  0  0  0
   12.8860    7.7723  -12.2777 C   0  0  0  0  0  0  0  0  0  0  0  0
   12.4522    8.3168  -11.0584 C   0  0  0  0  0  0  0  0  0  0  0  0
   11.1163    8.1723  -10.6469 C   0  0  0  0  0  0  0  0  0  0  0  0
   10.6281    9.1282   -9.5624 C   0  0  0  0  0  0  0  0  0  0  0  0
   10.8369    8.6920   -8.1471 C   0  0  0  0  0  0  0  0  0  0  0  0
   12.0461    8.9723   -7.4469 C   0  0  0  0  0  0  0  0  0  0  0  0
   11.9361    8.7959   -6.0990 C   0  0  0  0  0  0  0  0  0  0  0  0
   10.5204    7.8874   -5.7253 S   0  0  0  0  0  0  0  0  0  0  0  0
    9.9049    8.0905   -7.3342 C   0  0  0  0  0  0  0  0  0  0  0  0
    8.5041    7.6589   -7.6043 C   0  0  0  0  0  0  0  0  0  0  0  0
    8.3222    6.1307   -7.7364 C   0  0  0  0  0  0  0  0  0  0  0  0
   10.9292    6.0017   -9.2234 H   0  0  0  0  0  0  0  0  0  0  0  0
   10.4860    4.2855   -9.4509 H   0  0  0  0  0  0  0  0  0  0  0  0
   10.6598    4.9723   -7.8469 H   0  0  0  0  0  0  0  0  0  0  0  0
    8.6274    4.9355  -10.9499 H   0  0  0  0  0  0  0  0  0  0  0  0
    7.2860    5.7723  -10.2469 H   0  0  0  0  0  0  0  0  0  0  0  0
    8.2484    7.1615  -11.9251 H   0  0  0  0  0  0  0  0  0  0  0  0
    8.4860    7.9471  -10.4430 H   0  0  0  0  0  0  0  0  0  0  0  0
   10.1111    5.9684  -13.0783 H   0  0  0  0  0  0  0  0  0  0  0  0
   12.3922    6.4635  -13.9222 H   0  0  0  0  0  0  0  0  0  0  0  0
   13.8742    8.0016  -12.6469 H   0  0  0  0  0  0  0  0  0  0  0  0
   13.1090    8.9723  -10.5194 H   0  0  0  0  0  0  0  0  0  0  0  0
   11.1891   10.0528   -9.7078 H   0  0  0  0  0  0  0  0  0  0  0  0
    9.6080    9.4644   -9.7226 H   0  0  0  0  0  0  0  0  0  0  0  0
   12.9201    9.3723   -7.9347 H   0  0  0  0  0  0  0  0  0  0  0  0
   12.6677    9.0077   -5.3326 H   0  0  0  0  0  0  0  0  0  0  0  0
    7.9079    7.9752   -6.7467 H   0  0  0  0  0  0  0  0  0  0  0  0
    8.0860    8.2229   -8.4262 H   0  0  0  0  0  0  0  0  0  0  0  0
    7.2936    5.7723   -7.6609 H   0  0  0  0  0  0  0  0  0  0  0  0
    8.7867    5.7320   -6.8419 H   0  0  0  0  0  0  0  0  0  0  0  0
    8.5094    4.5377   -8.8015 H   0  0  0  0  0  0  0  0  0  0  0  0
  2  1  1  0
  3  2  1  0
  4  3  1  0
  5  4  1  0
  6  5  2  0
  7  6  1  0
  8  7  2  0
  9  8  1  0
 10  5  1  0
 10  9  2  0
 11 10  1  0
 12 11  1  0
 13 12  1  0
 14 13  2  0
 15 14  1  0
 16 12  2  0
 16 15  1  0
 17 16  1  0
 18  2  1  0
 18 17  1  0
 19  1  1  0
 20  1  1  0
 21  1  1  0
 22  3  1  0
 23  3  1  0
 24  4  1  0
 25  4  1  0
 26  6  1  0
 27  7  1  0
 28  8  1  0
 29  9  1  0
 30 11  1  0
 31 11  1  0
 32 13  1  0
 33 14  1  0
 34 17  1  0
 35 17  1  0
 36 18  1  0
 37 18  1  0
  2 38  1  1
M  CHG  1   2   1
M  END
>  <b_m_subgroup_collapsed>  (1317) 
0

>  <r_i_docking_score>  (1317) 
-6.1635288771338299

>  <s_m_subgroup_title>  (1317) 
glide-dock_SP_D22_pv

>  <s_m_subgroupid>  (1317) 
glide-dock_SP_D22_pv

>  <Molecule ChEMBL ID>  (1317) 
CHEMBL201093

>  <Standard Type>  (1317) 
Ki

>  <Standard Value>  (1317) 
92.0

>  <label>  (1317) 
1

$$$$
CHEMBL1258036
     RDKit          3D

 67 71  0  0  1  0  0  0  0  0999 V2000
    9.8835    8.1114  -10.2928 O   0  0  0  0  0  0  0  0  0  0  0  0
    9.9323    7.3084   -9.3587 C   0  0  0  0  0  0  0  0  0  0  0  0
    9.4793    5.8521   -9.5716 C   0  0  0  0  0  0  0  0  0  0  0  0
    8.6299    5.5724  -10.8302 C   0  0  0  0  0  0  0  0  0  0  0  0
    9.3283    5.8423  -12.1828 C   0  0  0  0  0  0  0  0  0  0  0  0
    9.4843    4.6365  -13.0001 N   0  0  0  0  0  0  0  0  0  0  0  0
   10.3513    4.9366  -14.1464 C   0  0  0  0  0  0  0  0  0  0  0  0
   10.6261    3.6534  -14.9560 C   0  0  0  0  0  0  0  0  0  0  0  0
    9.3759    3.0213  -15.3648 N   0  0  0  0  0  0  0  0  0  0  0  0
    9.0602    2.7309  -16.7075 C   0  0  0  0  0  0  0  0  0  0  0  0
    9.4871    3.5964  -17.7440 C   0  0  0  0  0  0  0  0  0  0  0  0
    9.3269    3.2250  -19.0989 C   0  0  0  0  0  0  0  0  0  0  0  0
    8.4502    2.1734  -19.4237 C   0  0  0  0  0  0  0  0  0  0  0  0
    8.0027    1.3149  -18.4028 C   0  0  0  0  0  0  0  0  0  0  0  0
    8.4549    1.4976  -17.0762 C   0  0  0  0  0  0  0  0  0  0  0  0
    8.5881    0.2417  -16.1985 C   0  0  0  0  0  0  0  0  0  0  0  0
   10.0672   -0.2629  -16.0618 C   0  0  0  0  0  0  0  0  0  0  0  0
   10.9497    0.1546  -17.2406 C   0  0  0  0  0  0  0  0  0  0  0  0
   10.7050   -0.3616  -18.5295 C   0  0  0  0  0  0  0  0  0  0  0  0
   11.0620    0.4074  -19.6578 C   0  0  0  0  0  0  0  0  0  0  0  0
   11.6592    1.6760  -19.4739 C   0  0  0  0  0  0  0  0  0  0  0  0
   12.1951    2.0121  -18.2147 C   0  0  0  0  0  0  0  0  0  0  0  0
   11.8329    1.2446  -17.0908 C   0  0  0  0  0  0  0  0  0  0  0  0
   11.4512    2.7694  -20.5217 C   0  0  0  0  0  0  0  0  0  0  0  0
   10.2900    3.7658  -20.1580 C   0  0  0  0  0  0  0  0  0  0  0  0
    8.3957    2.8430  -14.3018 C   0  0  0  0  0  0  0  0  0  0  0  0
    8.1964    4.1636  -13.5278 C   0  0  0  0  0  0  0  0  0  0  0  0
   10.4467    7.6822   -8.0040 C   0  0  0  0  0  0  0  0  0  0  0  0
   10.4120    6.7949   -6.9006 C   0  0  0  0  0  0  0  0  0  0  0  0
   10.8536    7.2133   -5.6273 C   0  0  0  0  0  0  0  0  0  0  0  0
   11.3320    8.5234   -5.4390 C   0  0  0  0  0  0  0  0  0  0  0  0
   11.7268    8.9365   -4.2106 F   0  0  0  0  0  0  0  0  0  0  0  0
   11.4045    9.4011   -6.5346 C   0  0  0  0  0  0  0  0  0  0  0  0
   10.9703    8.9805   -7.8051 C   0  0  0  0  0  0  0  0  0  0  0  0
   10.3694    5.2243   -9.5813 H   0  0  0  0  0  0  0  0  0  0  0  0
    8.8870    5.5502   -8.7087 H   0  0  0  0  0  0  0  0  0  0  0  0
    8.2937    4.5401  -10.7664 H   0  0  0  0  0  0  0  0  0  0  0  0
    7.7185    6.1689  -10.7796 H   0  0  0  0  0  0  0  0  0  0  0  0
    8.7725    6.5979  -12.7411 H   0  0  0  0  0  0  0  0  0  0  0  0
   10.3178    6.2635  -12.0007 H   0  0  0  0  0  0  0  0  0  0  0  0
    9.8940    5.6979  -14.7820 H   0  0  0  0  0  0  0  0  0  0  0  0
   11.3007    5.3450  -13.7935 H   0  0  0  0  0  0  0  0  0  0  0  0
   11.2671    3.8818  -15.8054 H   0  0  0  0  0  0  0  0  0  0  0  0
   11.1840    2.9514  -14.3361 H   0  0  0  0  0  0  0  0  0  0  0  0
   10.0922    4.4563  -17.5084 H   0  0  0  0  0  0  0  0  0  0  0  0
    8.2870    1.8999  -20.4561 H   0  0  0  0  0  0  0  0  0  0  0  0
    7.5104    0.3966  -18.6921 H   0  0  0  0  0  0  0  0  0  0  0  0
    8.1185    0.3635  -15.2240 H   0  0  0  0  0  0  0  0  0  0  0  0
    8.0199   -0.5529  -16.6852 H   0  0  0  0  0  0  0  0  0  0  0  0
   10.4964    0.1708  -15.1571 H   0  0  0  0  0  0  0  0  0  0  0  0
   10.0918   -1.3435  -15.9230 H   0  0  0  0  0  0  0  0  0  0  0  0
   10.0642   -1.2204  -18.6597 H   0  0  0  0  0  0  0  0  0  0  0  0
   10.6818    0.1184  -20.6258 H   0  0  0  0  0  0  0  0  0  0  0  0
   12.6912    2.9595  -18.0643 H   0  0  0  0  0  0  0  0  0  0  0  0
   12.0787    1.6146  -16.1080 H   0  0  0  0  0  0  0  0  0  0  0  0
   12.3820    3.3117  -20.6906 H   0  0  0  0  0  0  0  0  0  0  0  0
   11.2157    2.2820  -21.4680 H   0  0  0  0  0  0  0  0  0  0  0  0
    9.7426    4.0594  -21.0541 H   0  0  0  0  0  0  0  0  0  0  0  0
   10.7299    4.6825  -19.7659 H   0  0  0  0  0  0  0  0  0  0  0  0
    7.4386    2.5176  -14.7084 H   0  0  0  0  0  0  0  0  0  0  0  0
    8.7460    2.0617  -13.6262 H   0  0  0  0  0  0  0  0  0  0  0  0
    7.4868    3.9963  -12.7168 H   0  0  0  0  0  0  0  0  0  0  0  0
    7.7564    4.9189  -14.1808 H   0  0  0  0  0  0  0  0  0  0  0  0
   10.0398    5.7844   -7.0032 H   0  0  0  0  0  0  0  0  0  0  0  0
   10.8051    6.5334   -4.7890 H   0  0  0  0  0  0  0  0  0  0  0  0
   11.7866   10.4020   -6.3977 H   0  0  0  0  0  0  0  0  0  0  0  0
   11.0322    9.6754   -8.6311 H   0  0  0  0  0  0  0  0  0  0  0  0
  2  1  2  0
  3  2  1  0
  4  3  1  0
  5  4  1  0
  6  5  1  0
  7  6  1  0
  8  7  1  0
  9  8  1  0
 10  9  1  0
 11 10  1  0
 12 11  2  0
 13 12  1  0
 14 13  2  0
 15 10  2  0
 15 14  1  0
 16 15  1  0
 17 16  1  0
 18 17  1  0
 19 18  1  0
 20 19  2  0
 21 20  1  0
 22 21  2  0
 23 18  2  0
 23 22  1  0
 24 21  1  0
 25 12  1  0
 25 24  1  0
 26  9  1  0
 27  6  1  0
 27 26  1  0
 28  2  1  0
 29 28  1  0
 30 29  2  0
 31 30  1  0
 32 31  1  0
 33 31  2  0
 34 28  2  0
 34 33  1  0
 35  3  1  0
 36  3  1  0
 37  4  1  0
 38  4  1  0
 39  5  1  0
 40  5  1  0
 41  7  1  0
 42  7  1  0
 43  8  1  0
 44  8  1  0
 45 11  1  0
 46 13  1  0
 47 14  1  0
 48 16  1  0
 49 16  1  0
 50 17  1  0
 51 17  1  0
 52 19  1  0
 53 20  1  0
 54 22  1  0
 55 23  1  0
 56 24  1  0
 57 24  1  0
 58 25  1  0
 59 25  1  0
 60 26  1  0
 61 26  1  0
 62 27  1  0
 63 27  1  0
 64 29  1  0
 65 30  1  0
 66 33  1  0
 67 34  1  0
M  END
>  <b_m_subgroup_collapsed>  (1318) 
0

>  <r_i_docking_score>  (1318) 
-6.1544084721127801

>  <s_m_subgroup_title>  (1318) 
glide-dock_SP_D22_pv

>  <s_m_subgroupid>  (1318) 
glide-dock_SP_D22_pv

>  <Molecule ChEMBL ID>  (1318) 
CHEMBL1258036

>  <Standard Type>  (1318) 
Ki

>  <Standard Value>  (1318) 
19.0

>  <label>  (1318) 
1

$$$$
CHEMBL2298829
     RDKit          3D

 51 54  0  0  1  0  0  0  0  0999 V2000
   11.8149   11.3029   -6.2469 C   0  0  0  0  0  0  0  0  0  0  0  0
   11.2455   10.0604   -6.5579 O   0  0  0  0  0  0  0  0  0  0  0  0
   11.4198    9.0484   -5.6413 C   0  0  0  0  0  0  0  0  0  0  0  0
   12.0528    9.2283   -4.3797 C   0  0  0  0  0  0  0  0  0  0  0  0
   12.1877    8.1682   -3.4692 C   0  0  0  0  0  0  0  0  0  0  0  0
   11.6860    6.9061   -3.8068 C   0  0  0  0  0  0  0  0  0  0  0  0
   11.0484    6.7274   -5.0466 C   0  0  0  0  0  0  0  0  0  0  0  0
   10.9202    7.7702   -5.9781 C   0  0  0  0  0  0  0  0  0  0  0  0
   10.3323    7.4832   -7.2227 N   0  0  0  0  0  0  0  0  0  0  0  0
    8.9677    6.9793   -7.2980 C   0  0  0  0  0  0  0  0  0  0  0  0
    8.8400    6.0007   -8.4849 C   0  0  0  0  0  0  0  0  0  0  0  0
    9.2860    6.6184   -9.7426 N   0  0  0  0  0  0  0  0  0  0  0  0
    9.1595    5.6384  -10.8217 C   0  0  0  0  0  0  0  0  0  0  0  0
    9.2621    6.2822  -12.2215 C   0  0  0  0  0  0  0  0  0  0  0  0
   10.0861    5.4939  -13.0753 O   0  0  0  0  0  0  0  0  0  0  0  0
    9.5827    4.3566  -13.6700 C   0  0  0  0  0  0  0  0  0  0  0  0
    8.2216    3.9292  -13.5760 C   0  0  0  0  0  0  0  0  0  0  0  0
    7.7684    2.7662  -14.2469 C   0  0  0  0  0  0  0  0  0  0  0  0
    8.7147    2.0491  -14.9926 C   0  0  0  0  0  0  0  0  0  0  0  0
    8.5988    0.8988  -15.7794 N   0  0  0  0  0  0  0  0  0  0  0  0
    9.7841    0.5983  -16.3710 C   0  0  0  0  0  0  0  0  0  0  0  0
   10.0861   -0.6270  -17.4468 S   0  0  0  0  0  0  0  0  0  0  0  0
   10.6640    1.5308  -15.9229 N   0  0  0  0  0  0  0  0  0  0  0  0
   10.0281    2.4489  -15.0819 C   0  0  0  0  0  0  0  0  0  0  0  0
   10.5039    3.5986  -14.4352 C   0  0  0  0  0  0  0  0  0  0  0  0
   10.6812    7.0436   -9.5943 C   0  0  0  0  0  0  0  0  0  0  0  0
   10.8237    8.0695   -8.4605 C   0  0  0  0  0  0  0  0  0  0  0  0
   11.6860   12.0220   -7.0481 H   0  0  0  0  0  0  0  0  0  0  0  0
   11.3279   11.6941   -5.3523 H   0  0  0  0  0  0  0  0  0  0  0  0
   12.8860   11.1720   -6.1277 H   0  0  0  0  0  0  0  0  0  0  0  0
   12.4558   10.1722   -4.0677 H   0  0  0  0  0  0  0  0  0  0  0  0
   12.6720    8.3267   -2.5167 H   0  0  0  0  0  0  0  0  0  0  0  0
   11.7728    6.0804   -3.1156 H   0  0  0  0  0  0  0  0  0  0  0  0
   10.6475    5.7723   -5.3007 H   0  0  0  0  0  0  0  0  0  0  0  0
    8.6758    6.4848   -6.3718 H   0  0  0  0  0  0  0  0  0  0  0  0
    8.2880    7.8221   -7.4309 H   0  0  0  0  0  0  0  0  0  0  0  0
    9.4204    5.0987   -8.2845 H   0  0  0  0  0  0  0  0  0  0  0  0
    7.7973    5.6969   -8.5806 H   0  0  0  0  0  0  0  0  0  0  0  0
    9.9152    4.8612  -10.6982 H   0  0  0  0  0  0  0  0  0  0  0  0
    8.1931    5.1372  -10.7489 H   0  0  0  0  0  0  0  0  0  0  0  0
    8.2785    6.4780  -12.6490 H   0  0  0  0  0  0  0  0  0  0  0  0
    9.7316    7.2637  -12.1742 H   0  0  0  0  0  0  0  0  0  0  0  0
    7.4990    4.4835  -12.9974 H   0  0  0  0  0  0  0  0  0  0  0  0
    6.7382    2.4477  -14.1858 H   0  0  0  0  0  0  0  0  0  0  0  0
    7.7456    0.3750  -15.9128 H   0  0  0  0  0  0  0  0  0  0  0  0
   11.6367    1.5758  -16.1902 H   0  0  0  0  0  0  0  0  0  0  0  0
   11.5354    3.9052  -14.5275 H   0  0  0  0  0  0  0  0  0  0  0  0
   11.2860    6.1723   -9.3700 H   0  0  0  0  0  0  0  0  0  0  0  0
   11.0666    7.4761  -10.5162 H   0  0  0  0  0  0  0  0  0  0  0  0
   10.2559    8.9718   -8.6921 H   0  0  0  0  0  0  0  0  0  0  0  0
   11.8710    8.3558   -8.3572 H   0  0  0  0  0  0  0  0  0  0  0  0
  2  1  1  0
  3  2  1  0
  4  3  2  0
  5  4  1  0
  6  5  2  0
  7  6  1  0
  8  3  1  0
  8  7  2  0
  9  8  1  0
 10  9  1  0
 11 10  1  0
 12 11  1  0
 13 12  1  0
 14 13  1  0
 15 14  1  0
 16 15  1  0
 17 16  2  0
 18 17  1  0
 19 18  2  0
 20 19  1  0
 21 20  1  0
 22 21  2  0
 23 21  1  0
 24 19  1  0
 24 23  1  0
 25 16  1  0
 25 24  2  0
 26 12  1  0
 27  9  1  0
 27 26  1  0
 28  1  1  0
 29  1  1  0
 30  1  1  0
 31  4  1  0
 32  5  1  0
 33  6  1  0
 34  7  1  0
 35 10  1  0
 36 10  1  0
 37 11  1  0
 38 11  1  0
 39 13  1  0
 40 13  1  0
 41 14  1  0
 42 14  1  0
 43 17  1  0
 44 18  1  0
 45 20  1  0
 46 23  1  0
 47 25  1  0
 48 26  1  0
 49 26  1  0
 50 27  1  0
 51 27  1  0
M  END
>  <b_m_subgroup_collapsed>  (1319) 
0

>  <r_i_docking_score>  (1319) 
-6.1503308895606201

>  <s_m_subgroup_title>  (1319) 
glide-dock_SP_D22_pv

>  <s_m_subgroupid>  (1319) 
glide-dock_SP_D22_pv

>  <Molecule ChEMBL ID>  (1319) 
CHEMBL2298829

>  <Standard Type>  (1319) 
Ki

>  <Standard Value>  (1319) 
0.19

>  <label>  (1319) 
1

$$$$
CHEMBL27441
     RDKit          3D

 41 42  0  0  1  0  0  0  0  0999 V2000
    7.4908    5.4354  -12.0860 C   0  0  0  0  0  0  0  0  0  0  0  0
    8.7019    6.3399  -11.8297 C   0  0  0  0  0  0  0  0  0  0  0  0
    9.2008    6.2410  -10.3820 C   0  0  0  0  0  0  0  0  0  0  0  0
   10.3782    7.1164  -10.1578 N   0  0  0  0  0  0  0  0  0  0  0  0
   10.8650    7.2807   -8.7586 C   0  0  2  0  0  0  0  0  0  0  0  0
   10.5572    6.0910   -7.8331 C   0  0  0  0  0  0  0  0  0  0  0  0
   11.1930    6.2423   -6.4480 C   0  0  0  0  0  0  0  0  0  0  0  0
   11.2782    7.6415   -5.8983 C   0  0  0  0  0  0  0  0  0  0  0  0
   11.6860    7.7898   -4.5474 C   0  0  0  0  0  0  0  0  0  0  0  0
   12.0314    6.6564   -3.8403 O   0  0  0  0  0  0  0  0  0  0  0  0
   12.1007    6.7499   -2.4244 C   0  0  0  0  0  0  0  0  0  0  0  0
   11.6860    9.0769   -3.9732 C   0  0  0  0  0  0  0  0  0  0  0  0
   11.2860   10.1723   -4.7435 C   0  0  0  0  0  0  0  0  0  0  0  0
   10.9239   10.0282   -6.0883 C   0  0  0  0  0  0  0  0  0  0  0  0
   10.8949    8.7565   -6.6825 C   0  0  0  0  0  0  0  0  0  0  0  0
   10.4096    8.6124   -8.1273 C   0  0  2  0  0  0  0  0  0  0  0  0
    8.8860    8.7996   -8.2040 C   0  0  0  0  0  0  0  0  0  0  0  0
    7.1571    5.5132  -13.1204 H   0  0  0  0  0  0  0  0  0  0  0  0
    7.7260    4.3890  -11.8891 H   0  0  0  0  0  0  0  0  0  0  0  0
    6.6519    5.7161  -11.4469 H   0  0  0  0  0  0  0  0  0  0  0  0
    8.4246    7.3714  -12.0529 H   0  0  0  0  0  0  0  0  0  0  0  0
    9.5023    6.0726  -12.5206 H   0  0  0  0  0  0  0  0  0  0  0  0
    9.4681    5.2061  -10.1652 H   0  0  0  0  0  0  0  0  0  0  0  0
    8.3911    6.5081   -9.7036 H   0  0  0  0  0  0  0  0  0  0  0  0
   10.1540    8.0355  -10.5111 H   0  0  0  0  0  0  0  0  0  0  0  0
   11.9499    7.3613   -8.8444 H   0  0  0  0  0  0  0  0  0  0  0  0
    9.4789    6.0104   -7.6920 H   0  0  0  0  0  0  0  0  0  0  0  0
   10.8762    5.1451   -8.2688 H   0  0  0  0  0  0  0  0  0  0  0  0
   12.1760    5.7723   -6.4123 H   0  0  0  0  0  0  0  0  0  0  0  0
   10.5518    5.7723   -5.7153 H   0  0  0  0  0  0  0  0  0  0  0  0
   12.3305    5.7723   -2.0056 H   0  0  0  0  0  0  0  0  0  0  0  0
   12.8860    7.4314   -2.1011 H   0  0  0  0  0  0  0  0  0  0  0  0
   11.1495    7.0756   -2.0012 H   0  0  0  0  0  0  0  0  0  0  0  0
   11.9720    9.2539   -2.9477 H   0  0  0  0  0  0  0  0  0  0  0  0
   11.2770   11.1490   -4.2986 H   0  0  0  0  0  0  0  0  0  0  0  0
   10.6439   10.9044   -6.6469 H   0  0  0  0  0  0  0  0  0  0  0  0
   10.8695    9.4196   -8.6993 H   0  0  0  0  0  0  0  0  0  0  0  0
    8.5836    9.7723   -7.8469 H   0  0  0  0  0  0  0  0  0  0  0  0
    8.5068    8.7453   -9.2232 H   0  0  0  0  0  0  0  0  0  0  0  0
    8.3584    8.0597   -7.6020 H   0  0  0  0  0  0  0  0  0  0  0  0
   11.1353    6.7445  -10.7113 H   0  0  0  0  0  0  0  0  0  0  0  0
  2  1  1  0
  3  2  1  0
  4  3  1  0
  5  4  1  0
  6  5  1  0
  7  6  1  0
  8  7  1  0
  9  8  2  0
 10  9  1  0
 11 10  1  0
 12  9  1  0
 13 12  2  0
 14 13  1  0
 15  8  1  0
 15 14  2  0
 16  5  1  0
 16 15  1  0
 17 16  1  0
 18  1  1  0
 19  1  1  0
 20  1  1  0
 21  2  1  0
 22  2  1  0
 23  3  1  0
 24  3  1  0
 25  4  1  0
  5 26  1  6
 27  6  1  0
 28  6  1  0
 29  7  1  0
 30  7  1  0
 31 11  1  0
 32 11  1  0
 33 11  1  0
 34 12  1  0
 35 13  1  0
 36 14  1  0
 16 37  1  6
 38 17  1  0
 39 17  1  0
 40 17  1  0
 41  4  1  0
M  CHG  1   4   1
M  END
>  <b_m_subgroup_collapsed>  (1320) 
0

>  <r_i_docking_score>  (1320) 
-6.1445538598612002

>  <s_m_subgroup_title>  (1320) 
glide-dock_SP_D22_pv

>  <s_m_subgroupid>  (1320) 
glide-dock_SP_D22_pv

>  <Molecule ChEMBL ID>  (1320) 
CHEMBL27441

>  <Standard Type>  (1320) 
Ki

>  <Standard Value>  (1320) 
14.0

>  <label>  (1320) 
1

$$$$
CHEMBL164631
     RDKit          3D

 38 38  0  0  1  0  0  0  0  0999 V2000
   11.9521    7.8740  -11.5490 C   0  0  0  0  0  0  0  0  0  0  0  0
   10.7364    8.0383  -10.6391 C   0  0  0  0  0  0  0  0  0  0  0  0
   11.1617    8.0005   -9.1567 C   0  0  0  0  0  0  0  0  0  0  0  0
   10.0235    7.9416   -8.1968 N   0  0  0  0  0  0  0  0  0  0  0  0
    9.0762    6.8092   -8.4398 C   0  0  0  0  0  0  0  0  0  0  0  0
    9.7383    5.4323   -8.6992 C   0  0  0  0  0  0  0  0  0  0  0  0
    8.7333    4.2862   -8.7045 C   0  0  0  0  0  0  0  0  0  0  0  0
   10.3804    8.1405   -6.7502 C   0  0  1  0  0  0  0  0  0  0  0  0
   10.8984    6.8644   -6.0494 C   0  0  0  0  0  0  0  0  0  0  0  0
   11.4055    7.1068   -4.6465 C   0  0  0  0  0  0  0  0  0  0  0  0
   11.6888    8.3266   -4.1614 C   0  0  0  0  0  0  0  0  0  0  0  0
   12.1519    8.4708   -2.8232 C   0  0  0  0  0  0  0  0  0  0  0  0
   12.5038    8.5727   -1.7277 N   0  0  0  0  0  0  0  0  0  0  0  0
   11.5447    9.5881   -4.9904 C   0  0  0  0  0  0  0  0  0  0  0  0
   11.3635    9.3057   -6.4934 C   0  0  0  0  0  0  0  0  0  0  0  0
   11.6586    7.7717  -12.5943 H   0  0  0  0  0  0  0  0  0  0  0  0
   12.6475    8.7076  -11.4476 H   0  0  0  0  0  0  0  0  0  0  0  0
   12.4862    6.9722  -11.2895 H   0  0  0  0  0  0  0  0  0  0  0  0
   10.0377    7.2435  -10.8907 H   0  0  0  0  0  0  0  0  0  0  0  0
   10.2218    8.9717  -10.8619 H   0  0  0  0  0  0  0  0  0  0  0  0
   11.7604    8.8959   -8.9948 H   0  0  0  0  0  0  0  0  0  0  0  0
   11.8227    7.1564   -8.9698 H   0  0  0  0  0  0  0  0  0  0  0  0
    8.3666    6.7497   -7.6124 H   0  0  0  0  0  0  0  0  0  0  0  0
    8.4850    7.0631   -9.3157 H   0  0  0  0  0  0  0  0  0  0  0  0
   10.2710    5.4171   -9.6479 H   0  0  0  0  0  0  0  0  0  0  0  0
   10.4887    5.2050   -7.9513 H   0  0  0  0  0  0  0  0  0  0  0  0
    9.2504    3.3292   -8.6469 H   0  0  0  0  0  0  0  0  0  0  0  0
    8.0722    4.3401   -7.8469 H   0  0  0  0  0  0  0  0  0  0  0  0
    8.1144    4.2998   -9.6033 H   0  0  0  0  0  0  0  0  0  0  0  0
    9.4426    8.4152   -6.2594 H   0  0  0  0  0  0  0  0  0  0  0  0
   11.7103    6.4009   -6.6085 H   0  0  0  0  0  0  0  0  0  0  0  0
   10.0811    6.1534   -5.9623 H   0  0  0  0  0  0  0  0  0  0  0  0
   11.5425    6.2320   -4.0236 H   0  0  0  0  0  0  0  0  0  0  0  0
   10.7046   10.1670   -4.6048 H   0  0  0  0  0  0  0  0  0  0  0  0
   12.4468   10.1724   -4.8441 H   0  0  0  0  0  0  0  0  0  0  0  0
   11.0320   10.2107   -6.9993 H   0  0  0  0  0  0  0  0  0  0  0  0
   12.3461    9.0611   -6.8983 H   0  0  0  0  0  0  0  0  0  0  0  0
    9.4709    8.7576   -8.4185 H   0  0  0  0  0  0  0  0  0  0  0  0
  2  1  1  0
  3  2  1  0
  4  3  1  0
  5  4  1  0
  6  5  1  0
  7  6  1  0
  8  4  1  0
  9  8  1  0
 10  9  1  0
 11 10  2  0
 12 11  1  0
 13 12  3  0
 14 11  1  0
 15  8  1  0
 15 14  1  0
 16  1  1  0
 17  1  1  0
 18  1  1  0
 19  2  1  0
 20  2  1  0
 21  3  1  0
 22  3  1  0
 23  5  1  0
 24  5  1  0
 25  6  1  0
 26  6  1  0
 27  7  1  0
 28  7  1  0
 29  7  1  0
  8 30  1  1
 31  9  1  0
 32  9  1  0
 33 10  1  0
 34 14  1  0
 35 14  1  0
 36 15  1  0
 37 15  1  0
 38  4  1  0
M  CHG  1   4   1
M  END
>  <b_m_subgroup_collapsed>  (1321) 
0

>  <r_i_docking_score>  (1321) 
-6.1405456535487302

>  <s_m_subgroup_title>  (1321) 
glide-dock_SP_D22_pv

>  <s_m_subgroupid>  (1321) 
glide-dock_SP_D22_pv

>  <Molecule ChEMBL ID>  (1321) 
CHEMBL164631

>  <Standard Type>  (1321) 
Ki

>  <Standard Value>  (1321) 
20000.0

>  <label>  (1321) 
0

$$$$
CHEMBL4088416
     RDKit          3D

 36 39  0  0  1  0  0  0  0  0999 V2000
   11.9009    7.3723  -12.2201 O   0  0  0  0  0  0  0  0  0  0  0  0
   10.4804    7.2733  -11.8469 S   0  0  0  0  0  0  0  0  0  0  0  0
    9.5218    8.3149  -12.2462 O   0  0  0  0  0  0  0  0  0  0  0  0
   10.3732    7.0576  -10.0677 C   0  0  0  0  0  0  0  0  0  0  0  0
    9.3791    6.2542   -9.4698 C   0  0  0  0  0  0  0  0  0  0  0  0
    9.3002    6.1723   -8.0660 C   0  0  0  0  0  0  0  0  0  0  0  0
   10.2137    6.8828   -7.2620 C   0  0  0  0  0  0  0  0  0  0  0  0
   11.2078    7.6820   -7.8606 C   0  0  0  0  0  0  0  0  0  0  0  0
   11.2861    7.7723   -9.2643 C   0  0  0  0  0  0  0  0  0  0  0  0
    9.9198    5.8203  -12.5962 N   0  0  0  0  0  0  0  0  0  0  0  0
   10.7379    4.8309  -13.2047 C   0  0  0  0  0  0  0  0  0  0  0  0
    9.8458    3.8939  -13.6661 C   0  0  0  0  0  0  0  0  0  0  0  0
    8.5588    4.2651  -13.4001 C   0  0  0  0  0  0  0  0  0  0  0  0
    7.4349    3.5199  -13.7435 C   0  0  0  0  0  0  0  0  0  0  0  0
    6.2119    4.0972  -13.3348 C   0  0  0  0  0  0  0  0  0  0  0  0
    6.2016    5.3375  -12.6469 C   0  0  0  0  0  0  0  0  0  0  0  0
    7.3980    6.0292  -12.3678 C   0  0  0  0  0  0  0  0  0  0  0  0
    8.6268    5.4642  -12.7427 C   0  0  0  0  0  0  0  0  0  0  0  0
    7.5791    2.3115  -14.3879 O   0  0  0  0  0  0  0  0  0  0  0  0
    8.8820    1.8813  -14.6468 C   0  0  0  0  0  0  0  0  0  0  0  0
    9.0679    0.5048  -15.2498 C   0  0  0  0  0  0  0  0  0  0  0  0
    7.8604   -0.2277  -15.2822 O   0  0  0  0  0  0  0  0  0  0  0  0
   10.0334    2.6530  -14.3178 C   0  0  0  0  0  0  0  0  0  0  0  0
    8.6577    5.7159  -10.0619 H   0  0  0  0  0  0  0  0  0  0  0  0
    8.5263    5.5743   -7.6071 H   0  0  0  0  0  0  0  0  0  0  0  0
   10.1445    6.8175   -6.1858 H   0  0  0  0  0  0  0  0  0  0  0  0
   11.9033    8.2332   -7.2450 H   0  0  0  0  0  0  0  0  0  0  0  0
   12.0370    8.3997   -9.7234 H   0  0  0  0  0  0  0  0  0  0  0  0
   11.8157    4.9004  -13.2288 H   0  0  0  0  0  0  0  0  0  0  0  0
    5.2830    3.5863  -13.5394 H   0  0  0  0  0  0  0  0  0  0  0  0
    5.2860    5.7865  -12.3176 H   0  0  0  0  0  0  0  0  0  0  0  0
    7.3626    6.9723  -11.8469 H   0  0  0  0  0  0  0  0  0  0  0  0
    9.7979   -0.0485  -14.6574 H   0  0  0  0  0  0  0  0  0  0  0  0
    9.4651    0.5965  -16.2609 H   0  0  0  0  0  0  0  0  0  0  0  0
    8.0419   -1.1527  -15.4469 H   0  0  0  0  0  0  0  0  0  0  0  0
   11.0275    2.2865  -14.5281 H   0  0  0  0  0  0  0  0  0  0  0  0
  2  1  2  0
  3  2  2  0
  4  2  1  0
  5  4  2  0
  6  5  1  0
  7  6  2  0
  8  7  1  0
  9  4  1  0
  9  8  2  0
 10  2  1  0
 11 10  1  0
 12 11  2  0
 13 12  1  0
 14 13  2  0
 15 14  1  0
 16 15  2  0
 17 16  1  0
 18 10  1  0
 18 13  1  0
 18 17  2  0
 19 14  1  0
 20 19  1  0
 21 20  1  0
 22 21  1  0
 23 12  1  0
 23 20  2  0
 24  5  1  0
 25  6  1  0
 26  7  1  0
 27  8  1  0
 28  9  1  0
 29 11  1  0
 30 15  1  0
 31 16  1  0
 32 17  1  0
 33 21  1  0
 34 21  1  0
 35 22  1  0
 36 23  1  0
M  END
>  <b_m_subgroup_collapsed>  (1322) 
0

>  <r_i_docking_score>  (1322) 
-6.1403827496400796

>  <s_m_subgroup_title>  (1322) 
glide-dock_SP_D22_pv

>  <s_m_subgroupid>  (1322) 
glide-dock_SP_D22_pv

>  <Molecule ChEMBL ID>  (1322) 
CHEMBL4088416

>  <Standard Type>  (1322) 
Ki

>  <Standard Value>  (1322) 
10000.0

>  <label>  (1322) 
0

$$$$
CHEMBL516580
     RDKit          3D

 63 66  0  0  1  0  0  0  0  0999 V2000
   13.6211   -1.2927  -20.4234 C   0  0  0  0  0  0  0  0  0  0  0  0
   12.4376   -0.4751  -19.8932 C   0  0  0  0  0  0  0  0  0  0  0  0
   12.5736   -0.1726  -18.3919 C   0  0  0  0  0  0  0  0  0  0  0  0
   11.3615    0.5439  -17.7763 C   0  0  0  0  0  0  0  0  0  0  0  0
   10.1388   -0.3713  -17.5849 C   0  0  0  0  0  0  0  0  0  0  0  0
    8.8687    0.3911  -17.1734 C   0  0  0  0  0  0  0  0  0  0  0  0
    8.8577    0.8892  -15.7272 C   0  0  0  0  0  0  0  0  0  0  0  0
    9.1969    0.1717  -14.7861 O   0  0  0  0  0  0  0  0  0  0  0  0
    8.3641    2.1513  -15.6286 O   0  0  0  0  0  0  0  0  0  0  0  0
    7.6783    2.5448  -14.5021 C   0  0  0  0  0  0  0  0  0  0  0  0
    6.4701    1.8622  -14.2472 C   0  0  0  0  0  0  0  0  0  0  0  0
    5.6014    2.2667  -13.2260 C   0  0  0  0  0  0  0  0  0  0  0  0
    5.9391    3.3743  -12.4446 C   0  0  0  0  0  0  0  0  0  0  0  0
    7.1660    4.0302  -12.6468 C   0  0  0  0  0  0  0  0  0  0  0  0
    8.0812    3.6320  -13.6589 C   0  0  0  0  0  0  0  0  0  0  0  0
    9.4017    4.3310  -13.7270 C   0  0  0  0  0  0  0  0  0  0  0  0
   10.5086    3.8391  -14.4777 C   0  0  0  0  0  0  0  0  0  0  0  0
   11.7483    4.4882  -14.5637 C   0  0  0  0  0  0  0  0  0  0  0  0
   11.9653    5.6688  -13.8480 C   0  0  0  0  0  0  0  0  0  0  0  0
   10.9446    6.1907  -13.0425 C   0  0  0  0  0  0  0  0  0  0  0  0
    9.6891    5.5218  -12.9942 C   0  0  0  0  0  0  0  0  0  0  0  0
    8.5221    6.1322  -12.1800 C   0  0  1  0  0  0  0  0  0  0  0  0
    7.5340    5.0908  -11.6460 C   0  0  0  0  0  0  0  0  0  0  0  0
    8.8861    7.1389  -11.1361 N   0  0  1  0  0  0  0  0  0  0  0  0
    9.2458    6.5821   -9.7955 C   0  0  0  0  0  0  0  0  0  0  0  0
    9.6255    7.6476   -8.7457 C   0  0  0  0  0  0  0  0  0  0  0  0
    9.7249    7.0624   -7.3302 C   0  0  0  0  0  0  0  0  0  0  0  0
    9.8598    8.1001  -11.6973 C   0  0  0  0  0  0  0  0  0  0  0  0
   11.1467    7.3611  -12.0874 C   0  0  0  0  0  0  0  0  0  0  0  0
   13.5177   -1.4851  -21.4918 H   0  0  0  0  0  0  0  0  0  0  0  0
   13.6874   -2.2578  -19.9200 H   0  0  0  0  0  0  0  0  0  0  0  0
   14.5657   -0.7708  -20.2709 H   0  0  0  0  0  0  0  0  0  0  0  0
   12.3637    0.4610  -20.4497 H   0  0  0  0  0  0  0  0  0  0  0  0
   11.5192   -1.0268  -20.0911 H   0  0  0  0  0  0  0  0  0  0  0  0
   12.7758   -1.0953  -17.8502 H   0  0  0  0  0  0  0  0  0  0  0  0
   13.4492    0.4629  -18.2488 H   0  0  0  0  0  0  0  0  0  0  0  0
   11.6524    0.9512  -16.8067 H   0  0  0  0  0  0  0  0  0  0  0  0
   11.0978    1.3998  -18.3985 H   0  0  0  0  0  0  0  0  0  0  0  0
    9.9197   -0.8943  -18.5154 H   0  0  0  0  0  0  0  0  0  0  0  0
   10.3624   -1.1503  -16.8558 H   0  0  0  0  0  0  0  0  0  0  0  0
    8.6992    1.2279  -17.8502 H   0  0  0  0  0  0  0  0  0  0  0  0
    8.0097   -0.2711  -17.2851 H   0  0  0  0  0  0  0  0  0  0  0  0
    6.1772    1.0341  -14.8763 H   0  0  0  0  0  0  0  0  0  0  0  0
    4.6725    1.7409  -13.0562 H   0  0  0  0  0  0  0  0  0  0  0  0
    5.2832    3.6845  -11.6433 H   0  0  0  0  0  0  0  0  0  0  0  0
   10.4538    2.9160  -15.0193 H   0  0  0  0  0  0  0  0  0  0  0  0
   12.5424    4.0632  -15.1612 H   0  0  0  0  0  0  0  0  0  0  0  0
   12.9301    6.1498  -13.8833 H   0  0  0  0  0  0  0  0  0  0  0  0
    7.9672    6.6993  -12.9309 H   0  0  0  0  0  0  0  0  0  0  0  0
    6.6382    5.5915  -11.2726 H   0  0  0  0  0  0  0  0  0  0  0  0
    7.9642    4.5284  -10.8173 H   0  0  0  0  0  0  0  0  0  0  0  0
    8.3730    6.0681   -9.3910 H   0  0  0  0  0  0  0  0  0  0  0  0
   10.0385    5.8380   -9.8872 H   0  0  0  0  0  0  0  0  0  0  0  0
   10.5835    8.1075   -8.9967 H   0  0  0  0  0  0  0  0  0  0  0  0
    8.8797    8.4450   -8.7417 H   0  0  0  0  0  0  0  0  0  0  0  0
    9.9933    7.8342   -6.6086 H   0  0  0  0  0  0  0  0  0  0  0  0
   10.4827    6.2796   -7.2809 H   0  0  0  0  0  0  0  0  0  0  0  0
    8.7734    6.6312   -7.0101 H   0  0  0  0  0  0  0  0  0  0  0  0
    9.4153    8.5747  -12.5696 H   0  0  0  0  0  0  0  0  0  0  0  0
   10.0704    8.9140  -11.0044 H   0  0  0  0  0  0  0  0  0  0  0  0
   11.6304    6.9723  -11.1919 H   0  0  0  0  0  0  0  0  0  0  0  0
   11.8935    8.0200  -12.5298 H   0  0  0  0  0  0  0  0  0  0  0  0
    8.0134    7.6384  -10.9466 H   0  0  0  0  0  0  0  0  0  0  0  0
  2  1  1  0
  3  2  1  0
  4  3  1  0
  5  4  1  0
  6  5  1  0
  7  6  1  0
  8  7  2  0
  9  7  1  0
 10  9  1  0
 11 10  1  0
 12 11  2  0
 13 12  1  0
 14 13  2  0
 15 10  2  0
 15 14  1  0
 16 15  1  0
 17 16  1  0
 18 17  2  0
 19 18  1  0
 20 19  2  0
 21 16  2  0
 21 20  1  0
 22 21  1  0
 23 14  1  0
 23 22  1  0
 24 22  1  0
 25 24  1  0
 26 25  1  0
 27 26  1  0
 28 24  1  0
 29 20  1  0
 29 28  1  0
 30  1  1  0
 31  1  1  0
 32  1  1  0
 33  2  1  0
 34  2  1  0
 35  3  1  0
 36  3  1  0
 37  4  1  0
 38  4  1  0
 39  5  1  0
 40  5  1  0
 41  6  1  0
 42  6  1  0
 43 11  1  0
 44 12  1  0
 45 13  1  0
 46 17  1  0
 47 18  1  0
 48 19  1  0
 22 49  1  6
 50 23  1  0
 51 23  1  0
 52 25  1  0
 53 25  1  0
 54 26  1  0
 55 26  1  0
 56 27  1  0
 57 27  1  0
 58 27  1  0
 59 28  1  0
 60 28  1  0
 61 29  1  0
 62 29  1  0
 24 63  1  1
M  CHG  1  24   1
M  END
>  <b_m_subgroup_collapsed>  (1323) 
0

>  <r_i_docking_score>  (1323) 
-6.1398840579731502

>  <s_m_subgroup_title>  (1323) 
glide-dock_SP_D22_pv

>  <s_m_subgroupid>  (1323) 
glide-dock_SP_D22_pv

>  <Molecule ChEMBL ID>  (1323) 
CHEMBL516580

>  <Standard Type>  (1323) 
Ki

>  <Standard Value>  (1323) 
10000.0

>  <label>  (1323) 
0

$$$$
CHEMBL526849
     RDKit          3D

 52 53  0  0  1  0  0  0  0  0999 V2000
    8.5041    5.3355   -8.4631 C   0  0  0  0  0  0  0  0  0  0  0  0
    9.6214    6.0754   -7.7100 C   0  0  0  0  0  0  0  0  0  0  0  0
   10.1269    7.2571   -8.4269 N   0  0  0  0  0  0  0  0  0  0  0  0
   10.7112    6.8458   -9.7061 C   0  0  0  0  0  0  0  0  0  0  0  0
    9.8132    7.2100  -10.8983 C   0  0  0  0  0  0  0  0  0  0  0  0
   10.3403    6.5710  -12.1699 C   0  0  0  0  0  0  0  0  0  0  0  0
    9.6357    5.5138  -12.7807 C   0  0  0  0  0  0  0  0  0  0  0  0
   10.1571    4.8904  -13.9313 C   0  0  0  0  0  0  0  0  0  0  0  0
   11.3786    5.3150  -14.4944 C   0  0  0  0  0  0  0  0  0  0  0  0
   11.8181    4.6541  -15.6216 O   0  0  0  0  0  0  0  0  0  0  0  0
   12.6916    5.2518  -16.4776 C   0  0  0  0  0  0  0  0  0  0  0  0
   12.8144    4.4973  -17.5961 F   0  0  0  0  0  0  0  0  0  0  0  0
   12.2520    6.4733  -16.8728 F   0  0  0  0  0  0  0  0  0  0  0  0
   13.9316    5.3727  -15.9427 F   0  0  0  0  0  0  0  0  0  0  0  0
   12.0858    6.3712  -13.8697 C   0  0  0  0  0  0  0  0  0  0  0  0
   11.5723    6.9849  -12.7134 C   0  0  0  0  0  0  0  0  0  0  0  0
   11.1603    7.9373   -7.6445 C   0  0  0  0  0  0  0  0  0  0  0  0
   10.6064    8.6764   -6.4062 C   0  0  0  0  0  0  0  0  0  0  0  0
   11.5507    8.6441   -5.2596 N   0  0  0  0  0  0  0  0  0  0  0  0
   11.2874    9.7465   -4.2962 C   0  0  0  0  0  0  0  0  0  0  0  0
   12.3307    9.7722   -3.1777 C   0  0  0  0  0  0  0  0  0  0  0  0
   12.4115    8.4289   -2.4445 C   0  0  0  0  0  0  0  0  0  0  0  0
   12.6604    7.2932   -3.4450 C   0  0  0  0  0  0  0  0  0  0  0  0
   11.6439    7.3035   -4.6034 C   0  0  0  0  0  0  0  0  0  0  0  0
    8.0856    4.5414   -7.8473 H   0  0  0  0  0  0  0  0  0  0  0  0
    7.6917    6.0109   -8.7259 H   0  0  0  0  0  0  0  0  0  0  0  0
    8.8547    4.8642   -9.3803 H   0  0  0  0  0  0  0  0  0  0  0  0
   10.4399    5.3831   -7.5062 H   0  0  0  0  0  0  0  0  0  0  0  0
    9.2159    6.3621   -6.7416 H   0  0  0  0  0  0  0  0  0  0  0  0
   10.8860    5.7721   -9.7016 H   0  0  0  0  0  0  0  0  0  0  0  0
   11.6909    7.2970   -9.8687 H   0  0  0  0  0  0  0  0  0  0  0  0
    9.7789    8.2923  -11.0276 H   0  0  0  0  0  0  0  0  0  0  0  0
    8.7837    6.8927  -10.7310 H   0  0  0  0  0  0  0  0  0  0  0  0
    8.6989    5.1711  -12.3649 H   0  0  0  0  0  0  0  0  0  0  0  0
    9.6118    4.0783  -14.3894 H   0  0  0  0  0  0  0  0  0  0  0  0
   13.0332    6.7230  -14.2481 H   0  0  0  0  0  0  0  0  0  0  0  0
   12.1361    7.7738  -12.2397 H   0  0  0  0  0  0  0  0  0  0  0  0
   11.9288    7.2103   -7.3815 H   0  0  0  0  0  0  0  0  0  0  0  0
   11.6600    8.6825   -8.2663 H   0  0  0  0  0  0  0  0  0  0  0  0
   10.4169    9.7089   -6.7029 H   0  0  0  0  0  0  0  0  0  0  0  0
    9.6406    8.2961   -6.0762 H   0  0  0  0  0  0  0  0  0  0  0  0
   11.2898   10.7022   -4.8218 H   0  0  0  0  0  0  0  0  0  0  0  0
   10.3018    9.6646   -3.8530 H   0  0  0  0  0  0  0  0  0  0  0  0
   13.3015   10.0155   -3.6022 H   0  0  0  0  0  0  0  0  0  0  0  0
   12.0862   10.5676   -2.4734 H   0  0  0  0  0  0  0  0  0  0  0  0
   13.2154    8.4636   -1.7059 H   0  0  0  0  0  0  0  0  0  0  0  0
   11.4859    8.2446   -1.8978 H   0  0  0  0  0  0  0  0  0  0  0  0
   13.6711    7.3725   -3.8451 H   0  0  0  0  0  0  0  0  0  0  0  0
   12.6205    6.3322   -2.9294 H   0  0  0  0  0  0  0  0  0  0  0  0
   10.6708    6.9748   -4.2467 H   0  0  0  0  0  0  0  0  0  0  0  0
   11.9398    6.5456   -5.3280 H   0  0  0  0  0  0  0  0  0  0  0  0
   12.4635    8.8430   -5.6438 H   0  0  0  0  0  0  0  0  0  0  0  0
  2  1  1  0
  3  2  1  0
  4  3  1  0
  5  4  1  0
  6  5  1  0
  7  6  1  0
  8  7  2  0
  9  8  1  0
 10  9  1  0
 11 10  1  0
 12 11  1  0
 13 11  1  0
 14 11  1  0
 15  9  2  0
 16  6  2  0
 16 15  1  0
 17  3  1  0
 18 17  1  0
 19 18  1  0
 20 19  1  0
 21 20  1  0
 22 21  1  0
 23 22  1  0
 24 19  1  0
 24 23  1  0
 25  1  1  0
 26  1  1  0
 27  1  1  0
 28  2  1  0
 29  2  1  0
 30  4  1  0
 31  4  1  0
 32  5  1  0
 33  5  1  0
 34  7  1  0
 35  8  1  0
 36 15  1  0
 37 16  1  0
 38 17  1  0
 39 17  1  0
 40 18  1  0
 41 18  1  0
 42 20  1  0
 43 20  1  0
 44 21  1  0
 45 21  1  0
 46 22  1  0
 47 22  1  0
 48 23  1  0
 49 23  1  0
 50 24  1  0
 51 24  1  0
 52 19  1  0
M  CHG  1  19   1
M  END
>  <b_m_subgroup_collapsed>  (1324) 
0

>  <r_i_docking_score>  (1324) 
-6.1329067461220701

>  <s_m_subgroup_title>  (1324) 
glide-dock_SP_D22_pv

>  <s_m_subgroupid>  (1324) 
glide-dock_SP_D22_pv

>  <Molecule ChEMBL ID>  (1324) 
CHEMBL526849

>  <Standard Type>  (1324) 
Ki

>  <Standard Value>  (1324) 
10000.0

>  <label>  (1324) 
0

$$$$
CHEMBL596179
     RDKit          3D

 42 44  0  0  1  0  0  0  0  0999 V2000
   10.8619    5.5969  -17.4776 C   0  0  0  0  0  0  0  0  0  0  0  0
   11.7151    4.8712  -16.5062 N   0  0  2  0  0  0  0  0  0  0  0  0
   12.7275    5.7451  -15.8619 C   0  0  0  0  0  0  0  0  0  0  0  0
   12.1483    6.4717  -14.6421 C   0  0  0  0  0  0  0  0  0  0  0  0
   11.8137    5.5563  -13.4470 C   0  0  0  0  0  0  0  0  0  0  0  0
   10.4080    4.9553  -13.4852 C   0  0  0  0  0  0  0  0  0  0  0  0
    9.3530    5.7724  -13.0140 C   0  0  0  0  0  0  0  0  0  0  0  0
    8.0160    5.3367  -13.0452 C   0  0  0  0  0  0  0  0  0  0  0  0
    6.9947    6.1492  -12.6403 O   0  0  0  0  0  0  0  0  0  0  0  0
    7.7229    4.0517  -13.5223 C   0  0  0  0  0  0  0  0  0  0  0  0
    8.7631    3.2097  -13.9496 C   0  0  0  0  0  0  0  0  0  0  0  0
   10.1118    3.6374  -13.9457 C   0  0  0  0  0  0  0  0  0  0  0  0
   11.1840    2.6360  -14.3893 C   0  0  0  0  0  0  0  0  0  0  0  0
   10.8851    1.9381  -15.7179 C   0  0  0  0  0  0  0  0  0  0  0  0
   10.1295    0.7441  -15.6930 C   0  0  0  0  0  0  0  0  0  0  0  0
    9.7965    0.0768  -16.8841 C   0  0  0  0  0  0  0  0  0  0  0  0
   10.2231    0.5943  -18.1191 C   0  0  0  0  0  0  0  0  0  0  0  0
   11.0014    1.7656  -18.1574 C   0  0  0  0  0  0  0  0  0  0  0  0
   11.3533    2.4355  -16.9654 C   0  0  0  0  0  0  0  0  0  0  0  0
   12.2996    3.6230  -17.0569 C   0  0  0  0  0  0  0  0  0  0  0  0
   11.4230    5.8524  -18.3781 H   0  0  0  0  0  0  0  0  0  0  0  0
   10.4855    6.5317  -17.0544 H   0  0  0  0  0  0  0  0  0  0  0  0
   10.0073    4.9863  -17.7693 H   0  0  0  0  0  0  0  0  0  0  0  0
   13.5926    5.1754  -15.5228 H   0  0  0  0  0  0  0  0  0  0  0  0
   13.1126    6.4611  -16.5903 H   0  0  0  0  0  0  0  0  0  0  0  0
   12.9123    7.1755  -14.3099 H   0  0  0  0  0  0  0  0  0  0  0  0
   11.2882    7.0812  -14.9152 H   0  0  0  0  0  0  0  0  0  0  0  0
   12.5883    4.8125  -13.2744 H   0  0  0  0  0  0  0  0  0  0  0  0
   11.8504    6.1923  -12.5648 H   0  0  0  0  0  0  0  0  0  0  0  0
    9.5682    6.7647  -12.6466 H   0  0  0  0  0  0  0  0  0  0  0  0
    7.1934    6.7677  -11.9451 H   0  0  0  0  0  0  0  0  0  0  0  0
    6.7000    3.7039  -13.5483 H   0  0  0  0  0  0  0  0  0  0  0  0
    8.5010    2.2158  -14.2756 H   0  0  0  0  0  0  0  0  0  0  0  0
   12.1616    3.0973  -14.4452 H   0  0  0  0  0  0  0  0  0  0  0  0
   11.2792    1.8762  -13.6136 H   0  0  0  0  0  0  0  0  0  0  0  0
    9.7926    0.3365  -14.7509 H   0  0  0  0  0  0  0  0  0  0  0  0
    9.2092   -0.8293  -16.8504 H   0  0  0  0  0  0  0  0  0  0  0  0
    9.9656    0.0860  -19.0369 H   0  0  0  0  0  0  0  0  0  0  0  0
   11.3486    2.1317  -19.1132 H   0  0  0  0  0  0  0  0  0  0  0  0
   12.6269    3.7869  -18.0857 H   0  0  0  0  0  0  0  0  0  0  0  0
   13.1981    3.3286  -16.5160 H   0  0  0  0  0  0  0  0  0  0  0  0
   11.1086    4.5714  -15.7529 H   0  0  0  0  0  0  0  0  0  0  0  0
  2  1  1  0
  3  2  1  0
  4  3  1  0
  5  4  1  0
  6  5  1  0
  7  6  1  0
  8  7  2  0
  9  8  1  0
 10  8  1  0
 11 10  2  0
 12  6  2  0
 12 11  1  0
 13 12  1  0
 14 13  1  0
 15 14  2  0
 16 15  1  0
 17 16  2  0
 18 17  1  0
 19 14  1  0
 19 18  2  0
 20  2  1  0
 20 19  1  0
 21  1  1  0
 22  1  1  0
 23  1  1  0
 24  3  1  0
 25  3  1  0
 26  4  1  0
 27  4  1  0
 28  5  1  0
 29  5  1  0
 30  7  1  0
 31  9  1  0
 32 10  1  0
 33 11  1  0
 34 13  1  0
 35 13  1  0
 36 15  1  0
 37 16  1  0
 38 17  1  0
 39 18  1  0
 40 20  1  0
 41 20  1  0
  2 42  1  1
M  CHG  1   2   1
M  END
>  <b_m_subgroup_collapsed>  (1325) 
0

>  <r_i_docking_score>  (1325) 
-6.1323069141401403

>  <s_m_subgroup_title>  (1325) 
glide-dock_SP_D22_pv

>  <s_m_subgroupid>  (1325) 
glide-dock_SP_D22_pv

>  <Molecule ChEMBL ID>  (1325) 
CHEMBL596179

>  <Standard Type>  (1325) 
Ki

>  <Standard Value>  (1325) 
10000.0

>  <label>  (1325) 
0

$$$$
CHEMBL4876353
     RDKit          3D

 71 74  0  0  1  0  0  0  0  0999 V2000
    4.3281    0.1721  -19.5880 C   0  0  0  0  0  0  0  0  0  0  0  0
    4.9090   -1.0124  -18.8001 C   0  0  0  0  0  0  0  0  0  0  0  0
    5.2571   -0.6297  -17.3682 C   0  0  0  0  0  0  0  0  0  0  0  0
    4.2856   -0.7943  -16.3681 C   0  0  0  0  0  0  0  0  0  0  0  0
    4.5443   -0.4011  -15.0476 C   0  0  0  0  0  0  0  0  0  0  0  0
    3.2912   -0.6284  -13.8795 Cl  0  0  0  0  0  0  0  0  0  0  0  0
    5.7934    0.1733  -14.7025 C   0  0  0  0  0  0  0  0  0  0  0  0
    6.0306    0.5725  -13.4071 O   0  0  0  0  0  0  0  0  0  0  0  0
    5.3869    1.7877  -13.0332 C   0  0  0  0  0  0  0  0  0  0  0  0
    6.8080    0.3064  -15.6949 C   0  0  0  0  0  0  0  0  0  0  0  0
    8.1789    0.8487  -15.3545 C   0  0  0  0  0  0  0  0  0  0  0  0
    9.1973    0.3129  -15.8009 O   0  0  0  0  0  0  0  0  0  0  0  0
    8.2081    1.9881  -14.6466 N   0  0  0  0  0  0  0  0  0  0  0  0
    9.4171    2.7152  -14.2507 C   0  0  0  0  0  0  0  0  0  0  0  0
    9.5504    4.0867  -14.9748 C   0  0  2  0  0  0  0  0  0  0  0  0
    9.7967    3.9103  -16.4794 C   0  0  0  0  0  0  0  0  0  0  0  0
   11.3134    3.7191  -16.5947 C   0  0  0  0  0  0  0  0  0  0  0  0
   11.8954    4.3322  -15.3103 C   0  0  0  0  0  0  0  0  0  0  0  0
   10.7385    4.8858  -14.5728 N   0  0  2  0  0  0  0  0  0  0  0  0
   10.9656    5.1744  -13.1344 C   0  0  0  0  0  0  0  0  0  0  0  0
   10.0882    6.3389  -12.6310 C   0  0  0  0  0  0  0  0  0  0  0  0
   10.0134    6.4855  -11.1050 C   0  0  0  0  0  0  0  0  0  0  0  0
    9.1694    5.7372  -10.3469 C   0  0  0  0  0  0  0  0  0  0  0  0
    8.2599    4.6743  -10.9282 C   0  0  0  0  0  0  0  0  0  0  0  0
    9.0719    5.9166   -8.9676 N   0  0  0  0  0  0  0  0  0  0  0  0
    9.7363    6.8627   -8.3913 C   0  0  0  0  0  0  0  0  0  0  0  0
   10.6379    7.6963   -9.1041 N   0  0  0  0  0  0  0  0  0  0  0  0
   10.8453    7.5141  -10.4432 C   0  0  0  0  0  0  0  0  0  0  0  0
   11.6992    8.1664  -11.0473 O   0  0  0  0  0  0  0  0  0  0  0  0
   11.4890    8.6970   -8.4111 C   0  0  0  0  0  0  0  0  0  0  0  0
   11.0580    9.0794   -6.9918 C   0  0  0  0  0  0  0  0  0  0  0  0
   10.7241    7.8216   -6.2109 C   0  0  0  0  0  0  0  0  0  0  0  0
    9.5524    7.1209   -6.8950 C   0  0  0  0  0  0  0  0  0  0  0  0
    6.5266   -0.1018  -17.0286 C   0  0  0  0  0  0  0  0  0  0  0  0
    7.4740    0.0242  -18.0108 O   0  0  0  0  0  0  0  0  0  0  0  0
    4.0877   -0.1255  -20.6095 H   0  0  0  0  0  0  0  0  0  0  0  0
    3.4141    0.5473  -19.1242 H   0  0  0  0  0  0  0  0  0  0  0  0
    5.0412    0.9972  -19.6379 H   0  0  0  0  0  0  0  0  0  0  0  0
    5.7907   -1.4026  -19.3076 H   0  0  0  0  0  0  0  0  0  0  0  0
    4.1872   -1.8315  -18.7881 H   0  0  0  0  0  0  0  0  0  0  0  0
    3.3200   -1.2127  -16.6142 H   0  0  0  0  0  0  0  0  0  0  0  0
    5.6840    2.0599  -12.0195 H   0  0  0  0  0  0  0  0  0  0  0  0
    5.6714    2.6114  -13.6933 H   0  0  0  0  0  0  0  0  0  0  0  0
    4.3005    1.7102  -13.0485 H   0  0  0  0  0  0  0  0  0  0  0  0
    7.3241    2.3482  -14.3206 H   0  0  0  0  0  0  0  0  0  0  0  0
    9.3380    2.8407  -13.1744 H   0  0  0  0  0  0  0  0  0  0  0  0
   10.3116    2.1045  -14.3985 H   0  0  0  0  0  0  0  0  0  0  0  0
    8.6462    4.6706  -14.8004 H   0  0  0  0  0  0  0  0  0  0  0  0
    9.2331    3.0967  -16.9342 H   0  0  0  0  0  0  0  0  0  0  0  0
    9.5122    4.8277  -16.9978 H   0  0  0  0  0  0  0  0  0  0  0  0
   11.5640    2.6591  -16.6438 H   0  0  0  0  0  0  0  0  0  0  0  0
   11.7093    4.1947  -17.4897 H   0  0  0  0  0  0  0  0  0  0  0  0
   12.3802    3.5549  -14.7140 H   0  0  0  0  0  0  0  0  0  0  0  0
   12.6357    5.1132  -15.5169 H   0  0  0  0  0  0  0  0  0  0  0  0
   10.8603    4.2760  -12.5316 H   0  0  0  0  0  0  0  0  0  0  0  0
   12.0071    5.4796  -13.0462 H   0  0  0  0  0  0  0  0  0  0  0  0
   10.4850    7.2637  -13.0464 H   0  0  0  0  0  0  0  0  0  0  0  0
    9.0738    6.2412  -13.0139 H   0  0  0  0  0  0  0  0  0  0  0  0
    7.5582    5.1030  -11.6454 H   0  0  0  0  0  0  0  0  0  0  0  0
    8.8533    3.9051  -11.4178 H   0  0  0  0  0  0  0  0  0  0  0  0
    7.6862    4.1739  -10.1522 H   0  0  0  0  0  0  0  0  0  0  0  0
   12.5028    8.2976   -8.3711 H   0  0  0  0  0  0  0  0  0  0  0  0
   11.5455    9.6135   -8.9999 H   0  0  0  0  0  0  0  0  0  0  0  0
   11.8542    9.6368   -6.4981 H   0  0  0  0  0  0  0  0  0  0  0  0
   10.1917    9.7400   -7.0250 H   0  0  0  0  0  0  0  0  0  0  0  0
   11.5908    7.1596   -6.1716 H   0  0  0  0  0  0  0  0  0  0  0  0
   10.4731    8.0662   -5.1791 H   0  0  0  0  0  0  0  0  0  0  0  0
    8.6417    7.7072   -6.7655 H   0  0  0  0  0  0  0  0  0  0  0  0
    9.3690    6.1721   -6.3945 H   0  0  0  0  0  0  0  0  0  0  0  0
    8.3419    0.1276  -17.6455 H   0  0  0  0  0  0  0  0  0  0  0  0
   10.5906    5.7905  -14.9984 H   0  0  0  0  0  0  0  0  0  0  0  0
  2  1  1  0
  3  2  1  0
  4  3  1  0
  5  4  2  0
  6  5  1  0
  7  5  1  0
  8  7  1  0
  9  8  1  0
 10  7  2  0
 11 10  1  0
 12 11  2  0
 13 11  1  0
 14 13  1  0
 15 14  1  0
 16 15  1  0
 17 16  1  0
 18 17  1  0
 19 15  1  0
 19 18  1  0
 20 19  1  0
 21 20  1  0
 22 21  1  0
 23 22  2  0
 24 23  1  0
 25 23  1  0
 26 25  2  0
 27 26  1  0
 28 22  1  0
 28 27  1  0
 29 28  2  0
 30 27  1  0
 31 30  1  0
 32 31  1  0
 33 26  1  0
 33 32  1  0
 34  3  2  0
 34 10  1  0
 35 34  1  0
 36  1  1  0
 37  1  1  0
 38  1  1  0
 39  2  1  0
 40  2  1  0
 41  4  1  0
 42  9  1  0
 43  9  1  0
 44  9  1  0
 45 13  1  0
 46 14  1  0
 47 14  1  0
 15 48  1  6
 49 16  1  0
 50 16  1  0
 51 17  1  0
 52 17  1  0
 53 18  1  0
 54 18  1  0
 55 20  1  0
 56 20  1  0
 57 21  1  0
 58 21  1  0
 59 24  1  0
 60 24  1  0
 61 24  1  0
 62 30  1  0
 63 30  1  0
 64 31  1  0
 65 31  1  0
 66 32  1  0
 67 32  1  0
 68 33  1  0
 69 33  1  0
 70 35  1  0
 19 71  1  6
M  CHG  1  19   1
M  END
>  <b_m_subgroup_collapsed>  (1326) 
0

>  <r_i_docking_score>  (1326) 
-6.1278223148503397

>  <s_m_subgroup_title>  (1326) 
glide-dock_SP_D22_pv

>  <s_m_subgroupid>  (1326) 
glide-dock_SP_D22_pv

>  <Molecule ChEMBL ID>  (1326) 
CHEMBL4876353

>  <Standard Type>  (1326) 
Ki

>  <Standard Value>  (1326) 
74.4

>  <label>  (1326) 
1

$$$$
CHEMBL423198
     RDKit          3D

 72 76  0  0  1  0  0  0  0  0999 V2000
    8.7622    4.3584  -12.2989 C   0  0  0  0  0  0  0  0  0  0  0  0
    9.7163    5.2877  -12.7919 O   0  0  0  0  0  0  0  0  0  0  0  0
   10.4083    4.9768  -13.9478 C   0  0  0  0  0  0  0  0  0  0  0  0
   10.0234    3.8986  -14.7866 C   0  0  0  0  0  0  0  0  0  0  0  0
   10.7536    3.5878  -15.9455 C   0  0  0  0  0  0  0  0  0  0  0  0
   11.8640    4.3706  -16.2957 C   0  0  0  0  0  0  0  0  0  0  0  0
   12.8112    3.9422  -17.7538 S   0  0  0  0  0  0  0  0  0  0  0  0
   14.1412    4.5617  -17.6504 O   0  0  0  0  0  0  0  0  0  0  0  0
   12.6888    2.4919  -17.9651 O   0  0  0  0  0  0  0  0  0  0  0  0
   11.9614    4.7316  -19.0467 N   0  0  0  0  0  0  0  0  0  0  0  0
   10.6431    4.2259  -19.4714 C   0  0  0  0  0  0  0  0  0  0  0  0
    9.5071    5.1177  -18.9336 C   0  0  0  0  0  0  0  0  0  0  0  0
    9.7354    6.4708  -19.2966 O   0  0  0  0  0  0  0  0  0  0  0  0
   10.9449    6.9729  -18.7453 C   0  0  0  0  0  0  0  0  0  0  0  0
   12.1461    6.1750  -19.2737 C   0  0  0  0  0  0  0  0  0  0  0  0
   12.2559    5.4501  -15.4845 C   0  0  0  0  0  0  0  0  0  0  0  0
   11.5471    5.7610  -14.3004 C   0  0  0  0  0  0  0  0  0  0  0  0
   12.0726    6.8353  -13.4468 C   0  0  0  0  0  0  0  0  0  0  0  0
   13.0488    7.7729  -13.6304 C   0  0  0  0  0  0  0  0  0  0  0  0
   13.2863    8.4088  -12.3753 C   0  0  0  0  0  0  0  0  0  0  0  0
   12.4857    7.8365  -11.4303 C   0  0  0  0  0  0  0  0  0  0  0  0
   12.4857    7.9927   -9.9316 C   0  0  0  0  0  0  0  0  0  0  0  0
   11.1723    7.7467   -9.2929 N   0  0  2  0  0  0  0  0  0  0  0  0
   10.2162    8.8485   -9.5396 C   0  0  0  0  0  0  0  0  0  0  0  0
    8.8008    8.5128   -9.1220 C   0  0  0  0  0  0  0  0  0  0  0  0
    8.5926    8.2808   -7.6176 C   0  0  0  0  0  0  0  0  0  0  0  0
    8.7751    6.8134   -7.1937 C   0  0  0  0  0  0  0  0  0  0  0  0
   10.0401    6.1715   -7.7601 C   0  0  0  0  0  0  0  0  0  0  0  0
   11.2113    7.1518   -7.9127 C   0  0  2  0  0  0  0  0  0  0  0  0
   11.4507    8.0321   -6.6866 C   0  0  0  0  0  0  0  0  0  0  0  0
   11.2851    7.4945   -5.3854 C   0  0  0  0  0  0  0  0  0  0  0  0
   11.4533    8.3054   -4.2486 C   0  0  0  0  0  0  0  0  0  0  0  0
   11.7383    9.6702   -4.3972 C   0  0  0  0  0  0  0  0  0  0  0  0
   11.9548   10.1869   -5.6863 C   0  0  0  0  0  0  0  0  0  0  0  0
   11.8588    9.3668   -6.8099 C   0  0  0  0  0  0  0  0  0  0  0  0
   11.6697    6.9730  -12.1351 N   0  0  0  0  0  0  0  0  0  0  0  0
    8.4052    4.6931  -11.3244 H   0  0  0  0  0  0  0  0  0  0  0  0
    7.8951    4.2850  -12.9573 H   0  0  0  0  0  0  0  0  0  0  0  0
    9.2129    3.3726  -12.1707 H   0  0  0  0  0  0  0  0  0  0  0  0
    9.1707    3.2782  -14.5578 H   0  0  0  0  0  0  0  0  0  0  0  0
   10.4588    2.7524  -16.5633 H   0  0  0  0  0  0  0  0  0  0  0  0
   10.6129    4.2205  -20.5616 H   0  0  0  0  0  0  0  0  0  0  0  0
   10.5090    3.1932  -19.1509 H   0  0  0  0  0  0  0  0  0  0  0  0
    8.5523    4.7995  -19.3517 H   0  0  0  0  0  0  0  0  0  0  0  0
    9.4136    5.0384  -17.8512 H   0  0  0  0  0  0  0  0  0  0  0  0
   11.0459    8.0195  -19.0336 H   0  0  0  0  0  0  0  0  0  0  0  0
   10.9041    6.9411  -17.6564 H   0  0  0  0  0  0  0  0  0  0  0  0
   13.0701    6.5253  -18.8154 H   0  0  0  0  0  0  0  0  0  0  0  0
   12.2488    6.3451  -20.3454 H   0  0  0  0  0  0  0  0  0  0  0  0
   13.1313    6.0181  -15.7621 H   0  0  0  0  0  0  0  0  0  0  0  0
   13.6490    7.9203  -14.5227 H   0  0  0  0  0  0  0  0  0  0  0  0
   14.0397    9.1511  -12.1674 H   0  0  0  0  0  0  0  0  0  0  0  0
   12.8342    8.9725   -9.6656 H   0  0  0  0  0  0  0  0  0  0  0  0
   13.2645    7.3723   -9.5057 H   0  0  0  0  0  0  0  0  0  0  0  0
   10.1976    9.0391  -10.6128 H   0  0  0  0  0  0  0  0  0  0  0  0
   10.5277    9.7736   -9.0815 H   0  0  0  0  0  0  0  0  0  0  0  0
    8.4870    7.6326   -9.6815 H   0  0  0  0  0  0  0  0  0  0  0  0
    8.1585    9.3375   -9.4389 H   0  0  0  0  0  0  0  0  0  0  0  0
    7.6116    8.5723   -7.3099 H   0  0  0  0  0  0  0  0  0  0  0  0
    9.1928    8.9723   -7.0361 H   0  0  0  0  0  0  0  0  0  0  0  0
    7.9232    6.2015   -7.4916 H   0  0  0  0  0  0  0  0  0  0  0  0
    8.7956    6.7646   -6.1078 H   0  0  0  0  0  0  0  0  0  0  0  0
    9.8253    5.6794   -8.7096 H   0  0  0  0  0  0  0  0  0  0  0  0
   10.3290    5.3723   -7.0879 H   0  0  0  0  0  0  0  0  0  0  0  0
   12.0914    6.5667   -7.8457 H   0  0  0  0  0  0  0  0  0  0  0  0
   11.0298    6.4551   -5.2413 H   0  0  0  0  0  0  0  0  0  0  0  0
   11.3228    7.8876   -3.2608 H   0  0  0  0  0  0  0  0  0  0  0  0
   11.8176   10.2998   -3.5229 H   0  0  0  0  0  0  0  0  0  0  0  0
   12.2016   11.2253   -5.8459 H   0  0  0  0  0  0  0  0  0  0  0  0
   12.0874    9.7723   -7.7691 H   0  0  0  0  0  0  0  0  0  0  0  0
   10.9433    6.3803  -11.7546 H   0  0  0  0  0  0  0  0  0  0  0  0
   10.7966    6.9834   -9.8341 H   0  0  0  0  0  0  0  0  0  0  0  0
  2  1  1  0
  3  2  1  0
  4  3  1  0
  5  4  2  0
  6  5  1  0
  7  6  1  0
  8  7  2  0
  9  7  2  0
 10  7  1  0
 11 10  1  0
 12 11  1  0
 13 12  1  0
 14 13  1  0
 15 10  1  0
 15 14  1  0
 16  6  2  0
 17  3  2  0
 17 16  1  0
 18 17  1  0
 19 18  2  0
 20 19  1  0
 21 20  2  0
 22 21  1  0
 23 22  1  0
 24 23  1  0
 25 24  1  0
 26 25  1  0
 27 26  1  0
 28 27  1  0
 29 23  1  0
 29 28  1  0
 30 29  1  0
 31 30  2  0
 32 31  1  0
 33 32  2  0
 34 33  1  0
 35 30  1  0
 35 34  2  0
 36 18  1  0
 36 21  1  0
 37  1  1  0
 38  1  1  0
 39  1  1  0
 40  4  1  0
 41  5  1  0
 42 11  1  0
 43 11  1  0
 44 12  1  0
 45 12  1  0
 46 14  1  0
 47 14  1  0
 48 15  1  0
 49 15  1  0
 50 16  1  0
 51 19  1  0
 52 20  1  0
 53 22  1  0
 54 22  1  0
 55 24  1  0
 56 24  1  0
 57 25  1  0
 58 25  1  0
 59 26  1  0
 60 26  1  0
 61 27  1  0
 62 27  1  0
 63 28  1  0
 64 28  1  0
 29 65  1  6
 66 31  1  0
 67 32  1  0
 68 33  1  0
 69 34  1  0
 70 35  1  0
 71 36  1  0
 23 72  1  6
M  CHG  1  23   1
M  END
>  <b_m_subgroup_collapsed>  (1327) 
0

>  <r_i_docking_score>  (1327) 
-6.1258952588770503

>  <s_m_subgroup_title>  (1327) 
glide-dock_SP_D22_pv

>  <s_m_subgroupid>  (1327) 
glide-dock_SP_D22_pv

>  <Molecule ChEMBL ID>  (1327) 
CHEMBL423198

>  <Standard Type>  (1327) 
Ki

>  <Standard Value>  (1327) 
100.0

>  <label>  (1327) 
1

$$$$
CHEMBL5722963
     RDKit          3D

 45 47  0  0  1  0  0  0  0  0999 V2000
   12.6084    9.0572   -1.4577 C   0  0  0  0  0  0  0  0  0  0  0  0
   12.1586    8.4915   -2.7850 C   0  0  0  0  0  0  0  0  0  0  0  0
   11.9512    7.1083   -2.9478 C   0  0  0  0  0  0  0  0  0  0  0  0
   11.4993    6.6124   -4.1854 C   0  0  0  0  0  0  0  0  0  0  0  0
   11.2861    7.4806   -5.2702 C   0  0  0  0  0  0  0  0  0  0  0  0
   10.8432    6.9908   -6.5037 N   0  0  0  0  0  0  0  0  0  0  0  0
   10.7077    7.8051   -7.6180 C   0  0  0  0  0  0  0  0  0  0  0  0
   10.2529    7.1212   -8.8983 C   0  0  0  0  0  0  0  0  0  0  0  0
    9.4280    5.9422   -8.6505 N   0  0  0  0  0  0  0  0  0  0  0  0
    9.2471    5.1463   -9.8610 C   0  0  0  0  0  0  0  0  0  0  0  0
    8.2500    5.7670  -10.8557 C   0  0  0  0  0  0  0  0  0  0  0  0
    8.1562    4.9902  -12.1469 C   0  0  0  0  0  0  0  0  0  0  0  0
    9.1592    4.8109  -13.1510 C   0  0  0  0  0  0  0  0  0  0  0  0
   10.5578    5.3529  -13.1930 C   0  0  0  0  0  0  0  0  0  0  0  0
    8.7423    4.0641  -14.1626 N   0  0  0  0  0  0  0  0  0  0  0  0
    7.4695    3.7726  -13.8463 N   0  0  0  0  0  0  0  0  0  0  0  0
    7.0693    4.3301  -12.6552 C   0  0  0  0  0  0  0  0  0  0  0  0
    5.6800    4.1640  -12.1394 C   0  0  0  0  0  0  0  0  0  0  0  0
   10.9766    9.1262   -7.5591 C   0  0  0  0  0  0  0  0  0  0  0  0
   11.4158    9.7637   -6.2977 C   0  0  0  0  0  0  0  0  0  0  0  0
   11.6839   10.9627   -6.2467 O   0  0  0  0  0  0  0  0  0  0  0  0
   11.5434    8.8638   -5.1213 C   0  0  0  0  0  0  0  0  0  0  0  0
   11.9415    9.3646   -3.8650 C   0  0  0  0  0  0  0  0  0  0  0  0
   13.6838    8.9461   -1.3163 H   0  0  0  0  0  0  0  0  0  0  0  0
   12.3874   10.1193   -1.3962 H   0  0  0  0  0  0  0  0  0  0  0  0
   12.0765    8.5721   -0.6483 H   0  0  0  0  0  0  0  0  0  0  0  0
   12.1119    6.4269   -2.1244 H   0  0  0  0  0  0  0  0  0  0  0  0
   11.3096    5.5626   -4.3025 H   0  0  0  0  0  0  0  0  0  0  0  0
   10.5982    6.0133   -6.6018 H   0  0  0  0  0  0  0  0  0  0  0  0
    9.6891    7.8352   -9.4994 H   0  0  0  0  0  0  0  0  0  0  0  0
   11.1441    6.8526   -9.4658 H   0  0  0  0  0  0  0  0  0  0  0  0
    8.5221    6.2420   -8.3059 H   0  0  0  0  0  0  0  0  0  0  0  0
   10.2083    4.9704  -10.3354 H   0  0  0  0  0  0  0  0  0  0  0  0
    8.8714    4.1723   -9.5560 H   0  0  0  0  0  0  0  0  0  0  0  0
    7.2859    5.7728  -10.3590 H   0  0  0  0  0  0  0  0  0  0  0  0
    8.4884    6.8081  -11.0620 H   0  0  0  0  0  0  0  0  0  0  0  0
   10.7645    5.8135  -14.1597 H   0  0  0  0  0  0  0  0  0  0  0  0
   10.7187    6.1117  -12.4261 H   0  0  0  0  0  0  0  0  0  0  0  0
   11.2876    4.5568  -13.0466 H   0  0  0  0  0  0  0  0  0  0  0  0
    6.8895    3.2052  -14.4484 H   0  0  0  0  0  0  0  0  0  0  0  0
    5.3527    5.0601  -11.6113 H   0  0  0  0  0  0  0  0  0  0  0  0
    4.9742    3.9856  -12.9507 H   0  0  0  0  0  0  0  0  0  0  0  0
    5.6235    3.3248  -11.4473 H   0  0  0  0  0  0  0  0  0  0  0  0
   10.8816    9.7567   -8.4331 H   0  0  0  0  0  0  0  0  0  0  0  0
   12.0858   10.4197   -3.7128 H   0  0  0  0  0  0  0  0  0  0  0  0
  2  1  1  0
  3  2  2  0
  4  3  1  0
  5  4  2  0
  6  5  1  0
  7  6  1  0
  8  7  1  0
  9  8  1  0
 10  9  1  0
 11 10  1  0
 12 11  1  0
 13 12  1  0
 14 13  1  0
 15 13  2  0
 16 15  1  0
 17 12  2  0
 17 16  1  0
 18 17  1  0
 19  7  2  0
 20 19  1  0
 21 20  2  0
 22  5  1  0
 22 20  1  0
 23  2  1  0
 23 22  2  0
 24  1  1  0
 25  1  1  0
 26  1  1  0
 27  3  1  0
 28  4  1  0
 29  6  1  0
 30  8  1  0
 31  8  1  0
 32  9  1  0
 33 10  1  0
 34 10  1  0
 35 11  1  0
 36 11  1  0
 37 14  1  0
 38 14  1  0
 39 14  1  0
 40 16  1  0
 41 18  1  0
 42 18  1  0
 43 18  1  0
 44 19  1  0
 45 23  1  0
M  END
>  <b_m_subgroup_collapsed>  (1328) 
0

>  <r_i_docking_score>  (1328) 
-6.1238693277572303

>  <s_m_subgroup_title>  (1328) 
glide-dock_SP_D22_pv

>  <s_m_subgroupid>  (1328) 
glide-dock_SP_D22_pv

>  <Molecule ChEMBL ID>  (1328) 
CHEMBL5722963

>  <Standard Type>  (1328) 
Ki

>  <Standard Value>  (1328) 
10000.0

>  <label>  (1328) 
0

$$$$
CHEMBL4465638
     RDKit          3D

 53 56  0  0  1  0  0  0  0  0999 V2000
    3.9250   -1.7897  -16.5172 C   0  0  0  0  0  0  0  0  0  0  0  0
    5.2066   -1.8185  -15.6709 C   0  0  0  0  0  0  0  0  0  0  0  0
    5.2794   -0.6152  -14.7356 C   0  0  0  0  0  0  0  0  0  0  0  0
    4.3659   -0.3978  -13.9344 O   0  0  0  0  0  0  0  0  0  0  0  0
    6.3818    0.1443  -14.8503 N   0  0  0  0  0  0  0  0  0  0  0  0
    6.5978    1.4284  -14.2988 C   0  0  0  0  0  0  0  0  0  0  0  0
    5.6925    2.0861  -13.5742 N   0  0  0  0  0  0  0  0  0  0  0  0
    6.2211    3.3369  -13.3158 C   0  0  0  0  0  0  0  0  0  0  0  0
    5.4648    4.3642  -12.5523 C   0  0  0  0  0  0  0  0  0  0  0  0
    7.4990    3.3348  -13.8456 C   0  0  0  0  0  0  0  0  0  0  0  0
    8.5614    4.3258  -13.6701 C   0  0  0  0  0  0  0  0  0  0  0  0
    8.5509    5.4348  -12.8671 C   0  0  0  0  0  0  0  0  0  0  0  0
    9.8106    5.9989  -12.8059 N   0  0  0  0  0  0  0  0  0  0  0  0
   10.1739    7.3532  -11.7912 S   0  0  0  0  0  0  0  0  0  0  0  0
    9.2859    8.4355  -12.2468 O   0  0  0  0  0  0  0  0  0  0  0  0
   11.6369    7.5023  -11.8002 O   0  0  0  0  0  0  0  0  0  0  0  0
    9.6953    6.8909  -10.1308 C   0  0  0  0  0  0  0  0  0  0  0  0
    9.6855    7.8957   -9.1428 C   0  0  0  0  0  0  0  0  0  0  0  0
    9.2870    7.5769   -7.8318 C   0  0  0  0  0  0  0  0  0  0  0  0
    8.8870    6.2616   -7.5208 C   0  0  0  0  0  0  0  0  0  0  0  0
    8.8890    5.2646   -8.5180 C   0  0  0  0  0  0  0  0  0  0  0  0
    8.4861    4.0030   -8.2469 F   0  0  0  0  0  0  0  0  0  0  0  0
    9.3264    5.5694   -9.8131 C   0  0  0  0  0  0  0  0  0  0  0  0
   10.6449    5.3538  -13.7166 C   0  0  0  0  0  0  0  0  0  0  0  0
   11.9758    5.5761  -14.1256 C   0  0  0  0  0  0  0  0  0  0  0  0
   12.5514    4.7586  -15.1127 C   0  0  0  0  0  0  0  0  0  0  0  0
   11.8233    3.6977  -15.6811 C   0  0  0  0  0  0  0  0  0  0  0  0
   12.4653    2.9413  -16.6398 O   0  0  0  0  0  0  0  0  0  0  0  0
   11.8388    1.7461  -17.0809 C   0  0  0  0  0  0  0  0  0  0  0  0
   10.4962    3.4670  -15.2441 C   0  0  0  0  0  0  0  0  0  0  0  0
    9.8688    4.2924  -14.2769 C   0  0  0  0  0  0  0  0  0  0  0  0
    7.7091    2.1172  -14.5087 N   0  0  0  0  0  0  0  0  0  0  0  0
    3.8960   -2.6260  -17.2121 H   0  0  0  0  0  0  0  0  0  0  0  0
    3.0290   -1.8366  -15.8949 H   0  0  0  0  0  0  0  0  0  0  0  0
    3.8630   -0.8766  -17.1111 H   0  0  0  0  0  0  0  0  0  0  0  0
    6.0773   -1.8276  -16.3292 H   0  0  0  0  0  0  0  0  0  0  0  0
    5.2627   -2.7354  -15.0809 H   0  0  0  0  0  0  0  0  0  0  0  0
    7.1045   -0.1898  -15.4707 H   0  0  0  0  0  0  0  0  0  0  0  0
    5.6482    5.3648  -12.9403 H   0  0  0  0  0  0  0  0  0  0  0  0
    4.4019    4.1705  -12.6473 H   0  0  0  0  0  0  0  0  0  0  0  0
    5.7335    4.3442  -11.4973 H   0  0  0  0  0  0  0  0  0  0  0  0
    7.7621    5.8360  -12.2468 H   0  0  0  0  0  0  0  0  0  0  0  0
    9.9649    8.9080   -9.3983 H   0  0  0  0  0  0  0  0  0  0  0  0
    9.2572    8.3435   -7.0718 H   0  0  0  0  0  0  0  0  0  0  0  0
    8.5439    6.0377   -6.5231 H   0  0  0  0  0  0  0  0  0  0  0  0
    9.3592    4.7733  -10.5380 H   0  0  0  0  0  0  0  0  0  0  0  0
   12.5668    6.3761  -13.7100 H   0  0  0  0  0  0  0  0  0  0  0  0
   13.5675    4.9434  -15.4324 H   0  0  0  0  0  0  0  0  0  0  0  0
   12.5155    1.2176  -17.7537 H   0  0  0  0  0  0  0  0  0  0  0  0
   11.6134    1.0804  -16.2446 H   0  0  0  0  0  0  0  0  0  0  0  0
   10.9243    1.9595  -17.6370 H   0  0  0  0  0  0  0  0  0  0  0  0
    9.9192    2.6603  -15.6642 H   0  0  0  0  0  0  0  0  0  0  0  0
    4.7797    1.7355  -13.3168 H   0  0  0  0  0  0  0  0  0  0  0  0
  2  1  1  0
  3  2  1  0
  4  3  2  0
  5  3  1  0
  6  5  1  0
  7  6  1  0
  8  7  1  0
  9  8  1  0
 10  8  2  0
 11 10  1  0
 12 11  2  0
 13 12  1  0
 14 13  1  0
 15 14  2  0
 16 14  2  0
 17 14  1  0
 18 17  2  0
 19 18  1  0
 20 19  2  0
 21 20  1  0
 22 21  1  0
 23 17  1  0
 23 21  2  0
 24 13  1  0
 25 24  2  0
 26 25  1  0
 27 26  2  0
 28 27  1  0
 29 28  1  0
 30 27  1  0
 31 11  1  0
 31 24  1  0
 31 30  2  0
 32  6  2  0
 32 10  1  0
 33  1  1  0
 34  1  1  0
 35  1  1  0
 36  2  1  0
 37  2  1  0
 38  5  1  0
 39  9  1  0
 40  9  1  0
 41  9  1  0
 42 12  1  0
 43 18  1  0
 44 19  1  0
 45 20  1  0
 46 23  1  0
 47 25  1  0
 48 26  1  0
 49 29  1  0
 50 29  1  0
 51 29  1  0
 52 30  1  0
 53  7  1  0
M  END
>  <b_m_subgroup_collapsed>  (1329) 
0

>  <r_i_docking_score>  (1329) 
-6.1175923617990398

>  <s_m_subgroup_title>  (1329) 
glide-dock_SP_D22_pv

>  <s_m_subgroupid>  (1329) 
glide-dock_SP_D22_pv

>  <Molecule ChEMBL ID>  (1329) 
CHEMBL4465638

>  <Standard Type>  (1329) 
Ki

>  <Standard Value>  (1329) 
10000.0

>  <label>  (1329) 
0

$$$$
CHEMBL4568693
     RDKit          3D

 68 72  0  0  1  0  0  0  0  0999 V2000
    3.7233   -3.3225  -19.6232 C   0  0  0  0  0  0  0  0  0  0  0  0
    4.6110   -2.9326  -18.4365 C   0  0  0  0  0  0  0  0  0  0  0  0
    4.0206   -1.7646  -17.6331 C   0  0  0  0  0  0  0  0  0  0  0  0
    4.8610   -1.3207  -16.5161 N   0  0  0  0  0  0  0  0  0  0  0  0
    4.0288   -0.9724  -15.3655 C   0  0  0  0  0  0  0  0  0  0  0  0
    4.8683   -0.5354  -14.1573 C   0  0  0  0  0  0  0  0  0  0  0  0
    5.7155    0.5491  -14.5142 O   0  0  0  0  0  0  0  0  0  0  0  0
    6.5807    0.2127  -15.5946 C   0  0  2  0  0  0  0  0  0  0  0  0
    7.5663    1.3153  -15.9141 C   0  0  0  0  0  0  0  0  0  0  0  0
    8.1233    2.0802  -14.8686 C   0  0  0  0  0  0  0  0  0  0  0  0
    9.0287    3.1300  -15.1469 C   0  0  0  0  0  0  0  0  0  0  0  0
    9.5474    3.9808  -14.1948 O   0  0  0  0  0  0  0  0  0  0  0  0
    9.1334    3.8194  -12.8442 C   0  0  0  0  0  0  0  0  0  0  0  0
    9.4567    5.0987  -12.0786 C   0  0  0  0  0  0  0  0  0  0  0  0
    9.2107    4.9758  -10.5667 C   0  0  0  0  0  0  0  0  0  0  0  0
    9.5796    6.2664   -9.8371 C   0  0  0  0  0  0  0  0  0  0  0  0
    9.5711    6.0630   -8.4296 O   0  0  0  0  0  0  0  0  0  0  0  0
   10.1901    7.0317   -7.6702 C   0  0  0  0  0  0  0  0  0  0  0  0
   10.5235    8.3127   -8.1639 C   0  0  0  0  0  0  0  0  0  0  0  0
   11.2066    9.2217   -7.3450 C   0  0  0  0  0  0  0  0  0  0  0  0
   11.5697    8.8814   -6.0334 C   0  0  0  0  0  0  0  0  0  0  0  0
   11.2414    7.6143   -5.5252 C   0  0  0  0  0  0  0  0  0  0  0  0
   10.5292    6.7172   -6.3380 C   0  0  0  0  0  0  0  0  0  0  0  0
   11.6591    7.2395   -4.2202 N   0  0  0  0  0  0  0  0  0  0  0  0
   12.0863    8.1156   -3.2968 C   0  0  0  0  0  0  0  0  0  0  0  0
   12.4852    7.7626   -2.1912 O   0  0  0  0  0  0  0  0  0  0  0  0
   12.0329    9.6048   -3.6649 C   0  0  0  0  0  0  0  0  0  0  0  0
   12.3366    9.8381   -5.1579 C   0  0  0  0  0  0  0  0  0  0  0  0
    9.4124    3.3569  -16.4838 C   0  0  0  0  0  0  0  0  0  0  0  0
    8.8765    2.5787  -17.5289 C   0  0  0  0  0  0  0  0  0  0  0  0
    7.9464    1.5596  -17.2545 C   0  0  0  0  0  0  0  0  0  0  0  0
    7.4136    0.8591  -18.3146 O   0  0  0  0  0  0  0  0  0  0  0  0
    6.6978   -0.3415  -18.0216 C   0  0  0  0  0  0  0  0  0  0  0  0
    5.7360   -0.1735  -16.8276 C   0  0  1  0  0  0  0  0  0  0  0  0
    4.1382   -4.1781  -20.1557 H   0  0  0  0  0  0  0  0  0  0  0  0
    2.7223   -3.5965  -19.2867 H   0  0  0  0  0  0  0  0  0  0  0  0
    3.6316   -2.4991  -20.3318 H   0  0  0  0  0  0  0  0  0  0  0  0
    5.6130   -2.7065  -18.7939 H   0  0  0  0  0  0  0  0  0  0  0  0
    4.7162   -3.7945  -17.7750 H   0  0  0  0  0  0  0  0  0  0  0  0
    3.0585   -2.1117  -17.2533 H   0  0  0  0  0  0  0  0  0  0  0  0
    3.7850   -0.9218  -18.2871 H   0  0  0  0  0  0  0  0  0  0  0  0
    3.4168   -1.8276  -15.0792 H   0  0  0  0  0  0  0  0  0  0  0  0
    3.3342   -0.1778  -15.6351 H   0  0  0  0  0  0  0  0  0  0  0  0
    5.4758   -1.3723  -13.8049 H   0  0  0  0  0  0  0  0  0  0  0  0
    4.2180   -0.2275  -13.3380 H   0  0  0  0  0  0  0  0  0  0  0  0
    7.1969   -0.6303  -15.2869 H   0  0  0  0  0  0  0  0  0  0  0  0
    7.8255    1.8449  -13.8582 H   0  0  0  0  0  0  0  0  0  0  0  0
    9.6674    2.9725  -12.4070 H   0  0  0  0  0  0  0  0  0  0  0  0
    8.0611    3.6526  -12.7609 H   0  0  0  0  0  0  0  0  0  0  0  0
    8.8591    5.9204  -12.4771 H   0  0  0  0  0  0  0  0  0  0  0  0
   10.4965    5.3633  -12.2538 H   0  0  0  0  0  0  0  0  0  0  0  0
    9.8124    4.1621  -10.1653 H   0  0  0  0  0  0  0  0  0  0  0  0
    8.1680    4.7244  -10.3673 H   0  0  0  0  0  0  0  0  0  0  0  0
    8.8856    7.0629  -10.1073 H   0  0  0  0  0  0  0  0  0  0  0  0
   10.5763    6.5702  -10.1618 H   0  0  0  0  0  0  0  0  0  0  0  0
   10.2720    8.6252   -9.1678 H   0  0  0  0  0  0  0  0  0  0  0  0
   11.4626   10.1738   -7.7520 H   0  0  0  0  0  0  0  0  0  0  0  0
   10.2493    5.7724   -5.9337 H   0  0  0  0  0  0  0  0  0  0  0  0
   11.6047    6.2622   -3.9688 H   0  0  0  0  0  0  0  0  0  0  0  0
   11.0312    9.9669   -3.4298 H   0  0  0  0  0  0  0  0  0  0  0  0
   12.7254   10.1713   -3.0437 H   0  0  0  0  0  0  0  0  0  0  0  0
   13.3975    9.7103   -5.3509 H   0  0  0  0  0  0  0  0  0  0  0  0
   12.0739   10.8545   -5.4476 H   0  0  0  0  0  0  0  0  0  0  0  0
   10.1070    4.1522  -16.7139 H   0  0  0  0  0  0  0  0  0  0  0  0
    9.1753    2.7773  -18.5484 H   0  0  0  0  0  0  0  0  0  0  0  0
    7.4053   -1.1525  -17.8393 H   0  0  0  0  0  0  0  0  0  0  0  0
    6.1477   -0.5889  -18.9266 H   0  0  0  0  0  0  0  0  0  0  0  0
    5.0975    0.6787  -17.0577 H   0  0  0  0  0  0  0  0  0  0  0  0
  2  1  1  0
  3  2  1  0
  4  3  1  0
  5  4  1  0
  6  5  1  0
  7  6  1  0
  8  7  1  0
  9  8  1  0
 10  9  1  0
 11 10  2  0
 12 11  1  0
 13 12  1  0
 14 13  1  0
 15 14  1  0
 16 15  1  0
 17 16  1  0
 18 17  1  0
 19 18  1  0
 20 19  2  0
 21 20  1  0
 22 21  2  0
 23 18  2  0
 23 22  1  0
 24 22  1  0
 25 24  1  0
 26 25  2  0
 27 25  1  0
 28 21  1  0
 28 27  1  0
 29 11  1  0
 30 29  2  0
 31  9  2  0
 31 30  1  0
 32 31  1  0
 33 32  1  0
 34  4  1  0
 34  8  1  0
 34 33  1  0
 35  1  1  0
 36  1  1  0
 37  1  1  0
 38  2  1  0
 39  2  1  0
 40  3  1  0
 41  3  1  0
 42  5  1  0
 43  5  1  0
 44  6  1  0
 45  6  1  0
  8 46  1  1
 47 10  1  0
 48 13  1  0
 49 13  1  0
 50 14  1  0
 51 14  1  0
 52 15  1  0
 53 15  1  0
 54 16  1  0
 55 16  1  0
 56 19  1  0
 57 20  1  0
 58 23  1  0
 59 24  1  0
 60 27  1  0
 61 27  1  0
 62 28  1  0
 63 28  1  0
 64 29  1  0
 65 30  1  0
 66 33  1  0
 67 33  1  0
 34 68  1  6
M  END
>  <b_m_subgroup_collapsed>  (1330) 
0

>  <r_i_docking_score>  (1330) 
-6.1131847072022696

>  <s_m_subgroup_title>  (1330) 
glide-dock_SP_D22_pv

>  <s_m_subgroupid>  (1330) 
glide-dock_SP_D22_pv

>  <Molecule ChEMBL ID>  (1330) 
CHEMBL4568693

>  <Standard Type>  (1330) 
Ki

>  <Standard Value>  (1330) 
10100.0

>  <label>  (1330) 
0

$$$$
CHEMBL126331
     RDKit          3D

 69 72  0  0  1  0  0  0  0  0999 V2000
   11.4770    6.7479   -3.8983 C   0  0  0  0  0  0  0  0  0  0  0  0
   11.4449    7.9998   -4.5816 O   0  0  0  0  0  0  0  0  0  0  0  0
   11.1091    7.9640   -5.9156 C   0  0  0  0  0  0  0  0  0  0  0  0
   11.5818    8.9938   -6.7549 C   0  0  0  0  0  0  0  0  0  0  0  0
   11.3204    8.9680   -8.1411 C   0  0  0  0  0  0  0  0  0  0  0  0
   10.6091    7.8954   -8.7072 C   0  0  0  0  0  0  0  0  0  0  0  0
   10.3999    7.8320  -10.0998 C   0  0  0  0  0  0  0  0  0  0  0  0
    9.6837    6.7534  -10.6602 C   0  0  0  0  0  0  0  0  0  0  0  0
    9.3925    6.7355  -12.1529 C   0  0  2  0  0  0  0  0  0  0  0  0
    7.9141    7.0564  -12.4067 C   0  0  0  0  0  0  0  0  0  0  0  0
    9.8114    5.4089  -12.8090 C   0  0  0  0  0  0  0  0  0  0  0  0
    9.0786    4.4206  -12.7547 O   0  0  0  0  0  0  0  0  0  0  0  0
   10.9910    5.4039  -13.4508 N   0  0  0  0  0  0  0  0  0  0  0  0
   11.5288    4.2609  -14.1772 C   0  0  0  0  0  0  0  0  0  0  0  0
   10.9065    4.1547  -15.5836 C   0  0  0  0  0  0  0  0  0  0  0  0
   11.3239    2.8682  -16.3342 C   0  0  0  0  0  0  0  0  0  0  0  0
   10.3343    1.7887  -16.3177 N   0  0  0  0  0  0  0  0  0  0  0  0
    9.9929    1.3539  -14.9592 C   0  0  0  0  0  0  0  0  0  0  0  0
    9.1198    0.0899  -15.0226 C   0  0  0  0  0  0  0  0  0  0  0  0
    7.9407    0.3278  -15.8464 N   0  0  0  0  0  0  0  0  0  0  0  0
    6.6376    0.1673  -15.3310 C   0  0  0  0  0  0  0  0  0  0  0  0
    6.3526    0.6447  -14.0339 C   0  0  0  0  0  0  0  0  0  0  0  0
    5.0736    0.4978  -13.4756 C   0  0  0  0  0  0  0  0  0  0  0  0
    4.0575   -0.1384  -14.2117 C   0  0  0  0  0  0  0  0  0  0  0  0
    4.3314   -0.6275  -15.5009 C   0  0  0  0  0  0  0  0  0  0  0  0
    5.6188   -0.4832  -16.0799 C   0  0  0  0  0  0  0  0  0  0  0  0
    5.9335   -0.9752  -17.3324 O   0  0  0  0  0  0  0  0  0  0  0  0
    4.9659   -1.7665  -18.0089 C   0  0  0  0  0  0  0  0  0  0  0  0
    8.1930    0.8809  -17.1712 C   0  0  0  0  0  0  0  0  0  0  0  0
    9.1097    2.1182  -17.0601 C   0  0  0  0  0  0  0  0  0  0  0  0
    9.1660    5.7476   -9.8142 C   0  0  0  0  0  0  0  0  0  0  0  0
    9.3699    5.8092   -8.4254 C   0  0  0  0  0  0  0  0  0  0  0  0
   10.0982    6.8779   -7.8696 C   0  0  0  0  0  0  0  0  0  0  0  0
   10.3241    6.9359   -6.4834 C   0  0  0  0  0  0  0  0  0  0  0  0
   11.9198    6.8894   -2.9128 H   0  0  0  0  0  0  0  0  0  0  0  0
   10.4887    6.3085   -3.7586 H   0  0  0  0  0  0  0  0  0  0  0  0
   12.0851    6.0250   -4.4376 H   0  0  0  0  0  0  0  0  0  0  0  0
   12.1640    9.8023   -6.3344 H   0  0  0  0  0  0  0  0  0  0  0  0
   11.6857    9.7606   -8.7788 H   0  0  0  0  0  0  0  0  0  0  0  0
   10.7766    8.6249  -10.7308 H   0  0  0  0  0  0  0  0  0  0  0  0
    9.9788    7.5271  -12.6203 H   0  0  0  0  0  0  0  0  0  0  0  0
    7.2554    6.3883  -11.8519 H   0  0  0  0  0  0  0  0  0  0  0  0
    7.6866    8.0794  -12.1072 H   0  0  0  0  0  0  0  0  0  0  0  0
    7.6668    6.9677  -13.4560 H   0  0  0  0  0  0  0  0  0  0  0  0
   11.5368    6.2533  -13.4546 H   0  0  0  0  0  0  0  0  0  0  0  0
   11.3493    3.3492  -13.6044 H   0  0  0  0  0  0  0  0  0  0  0  0
   12.6104    4.3692  -14.2500 H   0  0  0  0  0  0  0  0  0  0  0  0
   11.2368    5.0171  -16.1670 H   0  0  0  0  0  0  0  0  0  0  0  0
    9.8223    4.2464  -15.5240 H   0  0  0  0  0  0  0  0  0  0  0  0
   12.2669    2.4904  -15.9352 H   0  0  0  0  0  0  0  0  0  0  0  0
   11.5220    3.1131  -17.3788 H   0  0  0  0  0  0  0  0  0  0  0  0
    9.4622    2.1412  -14.4228 H   0  0  0  0  0  0  0  0  0  0  0  0
   10.9016    1.1373  -14.3983 H   0  0  0  0  0  0  0  0  0  0  0  0
    8.8449   -0.2236  -14.0199 H   0  0  0  0  0  0  0  0  0  0  0  0
    9.6870   -0.7298  -15.4626 H   0  0  0  0  0  0  0  0  0  0  0  0
    7.1182    1.1490  -13.4593 H   0  0  0  0  0  0  0  0  0  0  0  0
    4.8860    0.8821  -12.4822 H   0  0  0  0  0  0  0  0  0  0  0  0
    3.0661   -0.2512  -13.7938 H   0  0  0  0  0  0  0  0  0  0  0  0
    3.5269   -1.1156  -16.0288 H   0  0  0  0  0  0  0  0  0  0  0  0
    5.3962   -2.1332  -18.9404 H   0  0  0  0  0  0  0  0  0  0  0  0
    4.6745   -2.6378  -17.4201 H   0  0  0  0  0  0  0  0  0  0  0  0
    4.0781   -1.1848  -18.2613 H   0  0  0  0  0  0  0  0  0  0  0  0
    8.6570    0.1124  -17.7906 H   0  0  0  0  0  0  0  0  0  0  0  0
    7.2585    1.1631  -17.6543 H   0  0  0  0  0  0  0  0  0  0  0  0
    8.5684    2.9219  -16.5614 H   0  0  0  0  0  0  0  0  0  0  0  0
    9.3705    2.4722  -18.0577 H   0  0  0  0  0  0  0  0  0  0  0  0
    8.5864    4.9333  -10.2241 H   0  0  0  0  0  0  0  0  0  0  0  0
    8.9613    5.0285   -7.8034 H   0  0  0  0  0  0  0  0  0  0  0  0
    9.8973    6.1714   -5.8566 H   0  0  0  0  0  0  0  0  0  0  0  0
  2  1  1  0
  3  2  1  0
  4  3  1  0
  5  4  2  0
  6  5  1  0
  7  6  2  0
  8  7  1  0
  9  8  1  0
 10  9  1  0
 11  9  1  0
 12 11  2  0
 13 11  1  0
 14 13  1  0
 15 14  1  0
 16 15  1  0
 17 16  1  0
 18 17  1  0
 19 18  1  0
 20 19  1  0
 21 20  1  0
 22 21  2  0
 23 22  1  0
 24 23  2  0
 25 24  1  0
 26 21  1  0
 26 25  2  0
 27 26  1  0
 28 27  1  0
 29 20  1  0
 30 17  1  0
 30 29  1  0
 31  8  2  0
 32 31  1  0
 33  6  1  0
 33 32  2  0
 34  3  2  0
 34 33  1  0
 35  1  1  0
 36  1  1  0
 37  1  1  0
 38  4  1  0
 39  5  1  0
 40  7  1  0
  9 41  1  6
 42 10  1  0
 43 10  1  0
 44 10  1  0
 45 13  1  0
 46 14  1  0
 47 14  1  0
 48 15  1  0
 49 15  1  0
 50 16  1  0
 51 16  1  0
 52 18  1  0
 53 18  1  0
 54 19  1  0
 55 19  1  0
 56 22  1  0
 57 23  1  0
 58 24  1  0
 59 25  1  0
 60 28  1  0
 61 28  1  0
 62 28  1  0
 63 29  1  0
 64 29  1  0
 65 30  1  0
 66 30  1  0
 67 31  1  0
 68 32  1  0
 69 34  1  0
M  END
>  <b_m_subgroup_collapsed>  (1331) 
0

>  <r_i_docking_score>  (1331) 
-6.1058726465538102

>  <s_m_subgroup_title>  (1331) 
glide-dock_SP_D22_pv

>  <s_m_subgroupid>  (1331) 
glide-dock_SP_D22_pv

>  <Molecule ChEMBL ID>  (1331) 
CHEMBL126331

>  <Standard Type>  (1331) 
Ki

>  <Standard Value>  (1331) 
94.6

>  <label>  (1331) 
1

$$$$
CHEMBL212292
     RDKit          3D

 51 53  0  0  1  0  0  0  0  0999 V2000
   12.6379    5.3961  -16.3888 C   0  0  0  0  0  0  0  0  0  0  0  0
   11.6594    5.0362  -15.4316 O   0  0  0  0  0  0  0  0  0  0  0  0
   11.6350    6.0355  -14.4496 N   0  0  0  0  0  0  0  0  0  0  0  0
   10.9083    5.7344  -13.4470 C   0  0  0  0  0  0  0  0  0  0  0  0
   10.1823    4.3872  -13.3198 C   0  0  0  0  0  0  0  0  0  0  0  0
    8.9524    4.2350  -14.2458 C   0  0  0  0  0  0  0  0  0  0  0  0
    8.2515    2.9788  -13.9482 N   0  0  0  0  0  0  0  0  0  0  0  0
    6.7951    3.1821  -14.0117 C   0  0  0  0  0  0  0  0  0  0  0  0
    6.0202    1.9587  -13.4755 C   0  0  0  0  0  0  0  0  0  0  0  0
    6.4822    0.7391  -14.1322 N   0  0  0  0  0  0  0  0  0  0  0  0
    5.5774   -0.0180  -14.8918 C   0  0  0  0  0  0  0  0  0  0  0  0
    5.9129   -0.5036  -16.1765 C   0  0  0  0  0  0  0  0  0  0  0  0
    4.9511   -1.2299  -16.9005 C   0  0  0  0  0  0  0  0  0  0  0  0
    3.6860   -1.4276  -16.3258 C   0  0  0  0  0  0  0  0  0  0  0  0
    3.4418   -0.9062  -15.0443 C   0  0  0  0  0  0  0  0  0  0  0  0
    4.3621   -0.2265  -14.3352 N   0  0  0  0  0  0  0  0  0  0  0  0
    7.9240    0.5725  -14.2734 C   0  0  0  0  0  0  0  0  0  0  0  0
    8.5875    1.8474  -14.8404 C   0  0  2  0  0  0  0  0  0  0  0  0
   10.0987    1.5929  -14.9990 C   0  0  0  0  0  0  0  0  0  0  0  0
   10.8390    6.6308  -12.2573 C   0  0  0  0  0  0  0  0  0  0  0  0
   11.9803    7.3724  -11.8657 C   0  0  0  0  0  0  0  0  0  0  0  0
   11.9901    8.1058  -10.6625 C   0  0  0  0  0  0  0  0  0  0  0  0
   10.8457    8.1337   -9.8475 C   0  0  0  0  0  0  0  0  0  0  0  0
   10.8800    8.9721   -8.3418 Cl  0  0  0  0  0  0  0  0  0  0  0  0
    9.6830    7.4573  -10.2564 C   0  0  0  0  0  0  0  0  0  0  0  0
    9.6764    6.7160  -11.4546 C   0  0  0  0  0  0  0  0  0  0  0  0
   12.6796    4.6376  -17.1703 H   0  0  0  0  0  0  0  0  0  0  0  0
   12.4010    6.3515  -16.8599 H   0  0  0  0  0  0  0  0  0  0  0  0
   13.6282    5.4633  -15.9357 H   0  0  0  0  0  0  0  0  0  0  0  0
    9.8776    4.2251  -12.2858 H   0  0  0  0  0  0  0  0  0  0  0  0
   10.9133    3.6033  -13.5021 H   0  0  0  0  0  0  0  0  0  0  0  0
    9.2176    4.2950  -15.3021 H   0  0  0  0  0  0  0  0  0  0  0  0
    8.2950    5.0843  -14.0536 H   0  0  0  0  0  0  0  0  0  0  0  0
    6.4944    3.3716  -15.0442 H   0  0  0  0  0  0  0  0  0  0  0  0
    6.5072    4.0558  -13.4252 H   0  0  0  0  0  0  0  0  0  0  0  0
    4.9601    2.1225  -13.6673 H   0  0  0  0  0  0  0  0  0  0  0  0
    6.0857    1.8613  -12.3931 H   0  0  0  0  0  0  0  0  0  0  0  0
    6.8807   -0.3265  -16.6187 H   0  0  0  0  0  0  0  0  0  0  0  0
    5.1764   -1.6202  -17.8820 H   0  0  0  0  0  0  0  0  0  0  0  0
    2.9229   -1.9833  -16.8494 H   0  0  0  0  0  0  0  0  0  0  0  0
    2.4837   -1.0277  -14.5671 H   0  0  0  0  0  0  0  0  0  0  0  0
    8.3433    0.3383  -13.2986 H   0  0  0  0  0  0  0  0  0  0  0  0
    8.1631   -0.2897  -14.8949 H   0  0  0  0  0  0  0  0  0  0  0  0
    8.1821    2.0505  -15.8330 H   0  0  0  0  0  0  0  0  0  0  0  0
   10.2765    0.7133  -15.6180 H   0  0  0  0  0  0  0  0  0  0  0  0
   10.6080    2.4227  -15.4882 H   0  0  0  0  0  0  0  0  0  0  0  0
   10.5784    1.4101  -14.0376 H   0  0  0  0  0  0  0  0  0  0  0  0
   12.8831    7.3388  -12.4596 H   0  0  0  0  0  0  0  0  0  0  0  0
   12.8848    8.6266  -10.3569 H   0  0  0  0  0  0  0  0  0  0  0  0
    8.7947    7.4855   -9.6408 H   0  0  0  0  0  0  0  0  0  0  0  0
    8.7738    6.1875  -11.7275 H   0  0  0  0  0  0  0  0  0  0  0  0
  2  1  1  0
  3  2  1  0
  4  3  2  0
  5  4  1  0
  6  5  1  0
  7  6  1  0
  8  7  1  0
  9  8  1  0
 10  9  1  0
 11 10  1  0
 12 11  2  0
 13 12  1  0
 14 13  2  0
 15 14  1  0
 16 11  1  0
 16 15  2  0
 17 10  1  0
 18  7  1  0
 18 17  1  0
 19 18  1  0
 20  4  1  0
 21 20  1  0
 22 21  2  0
 23 22  1  0
 24 23  1  0
 25 23  2  0
 26 20  2  0
 26 25  1  0
 27  1  1  0
 28  1  1  0
 29  1  1  0
 30  5  1  0
 31  5  1  0
 32  6  1  0
 33  6  1  0
 34  8  1  0
 35  8  1  0
 36  9  1  0
 37  9  1  0
 38 12  1  0
 39 13  1  0
 40 14  1  0
 41 15  1  0
 42 17  1  0
 43 17  1  0
 18 44  1  6
 45 19  1  0
 46 19  1  0
 47 19  1  0
 48 21  1  0
 49 22  1  0
 50 25  1  0
 51 26  1  0
M  END
>  <b_m_subgroup_collapsed>  (1332) 
0

>  <r_i_docking_score>  (1332) 
-6.0959925175105498

>  <s_m_subgroup_title>  (1332) 
glide-dock_SP_D22_pv

>  <s_m_subgroupid>  (1332) 
glide-dock_SP_D22_pv

>  <Molecule ChEMBL ID>  (1332) 
CHEMBL212292

>  <Standard Type>  (1332) 
Ki

>  <Standard Value>  (1332) 
76.5

>  <label>  (1332) 
1

$$$$
CHEMBL15242
     RDKit          3D

 46 49  0  0  1  0  0  0  0  0999 V2000
    9.7325    7.8448   -9.7813 C   0  0  0  0  0  0  0  0  0  0  0  0
    8.8860    7.0295  -10.6771 N   0  0  0  0  0  0  0  0  0  0  0  0
    8.6575    5.6540  -10.1664 C   0  0  0  0  0  0  0  0  0  0  0  0
    7.6860    4.8922  -11.0818 C   0  0  0  0  0  0  0  0  0  0  0  0
    8.1763    4.9388  -12.4504 N   0  0  0  0  0  0  0  0  0  0  0  0
    7.9542    3.8490  -13.3056 C   0  0  0  0  0  0  0  0  0  0  0  0
    6.7104    3.3260  -13.2909 N   0  0  0  0  0  0  0  0  0  0  0  0
    6.5018    2.1114  -13.8468 C   0  0  0  0  0  0  0  0  0  0  0  0
    5.2860    1.4403  -13.5998 C   0  0  0  0  0  0  0  0  0  0  0  0
    5.0227    0.1723  -14.1514 C   0  0  0  0  0  0  0  0  0  0  0  0
    5.9979   -0.4541  -14.9435 C   0  0  0  0  0  0  0  0  0  0  0  0
    7.2394    0.1723  -15.1544 C   0  0  0  0  0  0  0  0  0  0  0  0
    7.5115    1.4359  -14.5840 C   0  0  0  0  0  0  0  0  0  0  0  0
    8.7978    2.0206  -14.6660 C   0  0  0  0  0  0  0  0  0  0  0  0
   10.0939    1.2055  -15.4820 Cl  0  0  0  0  0  0  0  0  0  0  0  0
    9.0336    3.2417  -13.9931 C   0  0  0  0  0  0  0  0  0  0  0  0
   10.6854    3.8917  -13.8582 S   0  0  0  0  0  0  0  0  0  0  0  0
   10.9637    4.7700  -15.3714 C   0  0  0  0  0  0  0  0  0  0  0  0
   12.1177    5.5737  -15.4688 C   0  0  0  0  0  0  0  0  0  0  0  0
   12.3958    6.2761  -16.6571 C   0  0  0  0  0  0  0  0  0  0  0  0
   11.5215    6.1723  -17.7559 C   0  0  0  0  0  0  0  0  0  0  0  0
   10.3668    5.3724  -17.6637 C   0  0  0  0  0  0  0  0  0  0  0  0
   10.0860    4.6728  -16.4744 C   0  0  0  0  0  0  0  0  0  0  0  0
    8.3834    6.2587  -13.0089 C   0  0  0  0  0  0  0  0  0  0  0  0
    9.3306    7.0649  -12.0966 C   0  0  0  0  0  0  0  0  0  0  0  0
   10.7449    7.4427   -9.7248 H   0  0  0  0  0  0  0  0  0  0  0  0
    9.7899    8.8742  -10.1367 H   0  0  0  0  0  0  0  0  0  0  0  0
    9.3135    7.8660   -8.7744 H   0  0  0  0  0  0  0  0  0  0  0  0
    8.2450    5.6995   -9.1572 H   0  0  0  0  0  0  0  0  0  0  0  0
    9.6085    5.1222  -10.1042 H   0  0  0  0  0  0  0  0  0  0  0  0
    6.7012    5.3599  -11.0476 H   0  0  0  0  0  0  0  0  0  0  0  0
    7.5614    3.8642  -10.7431 H   0  0  0  0  0  0  0  0  0  0  0  0
    4.5288    1.9261  -13.0023 H   0  0  0  0  0  0  0  0  0  0  0  0
    4.0705   -0.3098  -13.9821 H   0  0  0  0  0  0  0  0  0  0  0  0
    5.8079   -1.4284  -15.3733 H   0  0  0  0  0  0  0  0  0  0  0  0
    7.9839   -0.3578  -15.7298 H   0  0  0  0  0  0  0  0  0  0  0  0
   12.7966    5.6500  -14.6314 H   0  0  0  0  0  0  0  0  0  0  0  0
   13.2811    6.8911  -16.7269 H   0  0  0  0  0  0  0  0  0  0  0  0
   11.7350    6.7106  -18.6681 H   0  0  0  0  0  0  0  0  0  0  0  0
    9.6960    5.2947  -18.5068 H   0  0  0  0  0  0  0  0  0  0  0  0
    9.2007    4.0605  -16.4392 H   0  0  0  0  0  0  0  0  0  0  0  0
    8.7781    6.1723  -14.0193 H   0  0  0  0  0  0  0  0  0  0  0  0
    7.4177    6.7616  -13.0769 H   0  0  0  0  0  0  0  0  0  0  0  0
    9.3819    8.0995  -12.4375 H   0  0  0  0  0  0  0  0  0  0  0  0
   10.3401    6.6561  -12.1652 H   0  0  0  0  0  0  0  0  0  0  0  0
    7.9462    7.4428  -10.6469 H   0  0  0  0  0  0  0  0  0  0  0  0
  2  1  1  0
  3  2  1  0
  4  3  1  0
  5  4  1  0
  6  5  1  0
  7  6  2  0
  8  7  1  0
  9  8  2  0
 10  9  1  0
 11 10  2  0
 12 11  1  0
 13  8  1  0
 13 12  2  0
 14 13  1  0
 15 14  1  0
 16  6  1  0
 16 14  2  0
 17 16  1  0
 18 17  1  0
 19 18  2  0
 20 19  1  0
 21 20  2  0
 22 21  1  0
 23 18  1  0
 23 22  2  0
 24  5  1  0
 25  2  1  0
 25 24  1  0
 26  1  1  0
 27  1  1  0
 28  1  1  0
 29  3  1  0
 30  3  1  0
 31  4  1  0
 32  4  1  0
 33  9  1  0
 34 10  1  0
 35 11  1  0
 36 12  1  0
 37 19  1  0
 38 20  1  0
 39 21  1  0
 40 22  1  0
 41 23  1  0
 42 24  1  0
 43 24  1  0
 44 25  1  0
 45 25  1  0
 46  2  1  0
M  CHG  1   2   1
M  END
>  <b_m_subgroup_collapsed>  (1333) 
0

>  <r_i_docking_score>  (1333) 
-6.09579728209573

>  <s_m_subgroup_title>  (1333) 
glide-dock_SP_D22_pv

>  <s_m_subgroupid>  (1333) 
glide-dock_SP_D22_pv

>  <Molecule ChEMBL ID>  (1333) 
CHEMBL15242

>  <Standard Type>  (1333) 
Ki

>  <Standard Value>  (1333) 
31.0

>  <label>  (1333) 
1

$$$$
CHEMBL610449
     RDKit          3D

 44 47  0  0  1  0  0  0  0  0999 V2000
    8.3278    4.9725  -10.7151 C   0  0  0  0  0  0  0  0  0  0  0  0
    8.1125    4.6159  -12.1365 N   0  0  2  0  0  0  0  0  0  0  0  0
    9.1324    5.2202  -13.0368 C   0  0  0  0  0  0  0  0  0  0  0  0
   10.3498    4.2982  -13.2114 C   0  0  0  0  0  0  0  0  0  0  0  0
   10.0349    2.8958  -13.7698 C   0  0  0  0  0  0  0  0  0  0  0  0
    9.5035    2.8681  -15.1974 C   0  0  0  0  0  0  0  0  0  0  0  0
   10.3402    3.3607  -16.2298 C   0  0  0  0  0  0  0  0  0  0  0  0
    9.8960    3.2566  -17.5559 C   0  0  0  0  0  0  0  0  0  0  0  0
    8.6893    2.6722  -17.8659 C   0  0  0  0  0  0  0  0  0  0  0  0
    7.8399    2.1725  -16.8703 C   0  0  0  0  0  0  0  0  0  0  0  0
    8.2330    2.2929  -15.5153 C   0  0  0  0  0  0  0  0  0  0  0  0
    7.3044    1.7677  -14.5028 C   0  0  0  0  0  0  0  0  0  0  0  0
    7.2877    0.3686  -14.3153 C   0  0  0  0  0  0  0  0  0  0  0  0
    6.4195   -0.2274  -13.3875 C   0  0  0  0  0  0  0  0  0  0  0  0
    5.5408    0.5814  -12.6469 C   0  0  0  0  0  0  0  0  0  0  0  0
    5.5252    1.9704  -12.8338 C   0  0  0  0  0  0  0  0  0  0  0  0
    6.4146    2.5790  -13.7389 C   0  0  0  0  0  0  0  0  0  0  0  0
    6.3503    4.0953  -13.8543 C   0  0  0  0  0  0  0  0  0  0  0  0
    6.7139    4.8623  -12.5653 C   0  0  0  0  0  0  0  0  0  0  0  0
    8.4995    2.6956  -19.2091 O   0  0  0  0  0  0  0  0  0  0  0  0
    9.6383    3.3212  -19.7434 C   0  0  0  0  0  0  0  0  0  0  0  0
   10.5111    3.6605  -18.6961 O   0  0  0  0  0  0  0  0  0  0  0  0
    8.1007    6.0246  -10.5319 H   0  0  0  0  0  0  0  0  0  0  0  0
    9.3581    4.7843  -10.4118 H   0  0  0  0  0  0  0  0  0  0  0  0
    7.6866    4.3685  -10.0741 H   0  0  0  0  0  0  0  0  0  0  0  0
    8.7321    5.4475  -14.0230 H   0  0  0  0  0  0  0  0  0  0  0  0
    9.4478    6.1857  -12.6381 H   0  0  0  0  0  0  0  0  0  0  0  0
   11.0876    4.7928  -13.8439 H   0  0  0  0  0  0  0  0  0  0  0  0
   10.8333    4.1728  -12.2468 H   0  0  0  0  0  0  0  0  0  0  0  0
   10.9490    2.3010  -13.7627 H   0  0  0  0  0  0  0  0  0  0  0  0
    9.3589    2.3778  -13.0934 H   0  0  0  0  0  0  0  0  0  0  0  0
   11.3067    3.7918  -16.0135 H   0  0  0  0  0  0  0  0  0  0  0  0
    6.8944    1.7210  -17.1338 H   0  0  0  0  0  0  0  0  0  0  0  0
    7.9550   -0.2595  -14.8886 H   0  0  0  0  0  0  0  0  0  0  0  0
    6.4393   -1.2984  -13.2414 H   0  0  0  0  0  0  0  0  0  0  0  0
    4.8864    0.1652  -11.9033 H   0  0  0  0  0  0  0  0  0  0  0  0
    4.8416    2.5716  -12.2531 H   0  0  0  0  0  0  0  0  0  0  0  0
    7.0045    4.4182  -14.6468 H   0  0  0  0  0  0  0  0  0  0  0  0
    5.3415    4.3682  -14.1674 H   0  0  0  0  0  0  0  0  0  0  0  0
    6.0285    4.5677  -11.7698 H   0  0  0  0  0  0  0  0  0  0  0  0
    6.5664    5.9347  -12.7055 H   0  0  0  0  0  0  0  0  0  0  0  0
   10.1400    2.6416  -20.4326 H   0  0  0  0  0  0  0  0  0  0  0  0
    9.3417    4.2246  -20.2777 H   0  0  0  0  0  0  0  0  0  0  0  0
    8.2342    3.6149  -12.1985 H   0  0  0  0  0  0  0  0  0  0  0  0
  2  1  1  0
  3  2  1  0
  4  3  1  0
  5  4  1  0
  6  5  1  0
  7  6  2  0
  8  7  1  0
  9  8  2  0
 10  9  1  0
 11  6  1  0
 11 10  2  0
 12 11  1  0
 13 12  2  0
 14 13  1  0
 15 14  2  0
 16 15  1  0
 17 12  1  0
 17 16  2  0
 18 17  1  0
 19  2  1  0
 19 18  1  0
 20  9  1  0
 21 20  1  0
 22  8  1  0
 22 21  1  0
 23  1  1  0
 24  1  1  0
 25  1  1  0
 26  3  1  0
 27  3  1  0
 28  4  1  0
 29  4  1  0
 30  5  1  0
 31  5  1  0
 32  7  1  0
 33 10  1  0
 34 13  1  0
 35 14  1  0
 36 15  1  0
 37 16  1  0
 38 18  1  0
 39 18  1  0
 40 19  1  0
 41 19  1  0
 42 21  1  0
 43 21  1  0
  2 44  1  1
M  CHG  1   2   1
M  END
>  <b_m_subgroup_collapsed>  (1334) 
0

>  <r_i_docking_score>  (1334) 
-6.0930230552553404

>  <s_m_subgroup_title>  (1334) 
glide-dock_SP_D22_pv

>  <s_m_subgroupid>  (1334) 
glide-dock_SP_D22_pv

>  <Molecule ChEMBL ID>  (1334) 
CHEMBL610449

>  <Standard Type>  (1334) 
Ki

>  <Standard Value>  (1334) 
10000.0

>  <label>  (1334) 
0

$$$$
CHEMBL4517552
     RDKit          3D

 34 36  0  0  1  0  0  0  0  0999 V2000
   12.4619    6.9878  -13.8287 C   0  0  0  0  0  0  0  0  0  0  0  0
   11.9073    5.6080  -13.4460 C   0  0  0  0  0  0  0  0  0  0  0  0
   11.2956    4.9293  -14.5779 N   0  0  0  0  0  0  0  0  0  0  0  0
   11.9619    4.5112  -15.6640 C   0  0  0  0  0  0  0  0  0  0  0  0
   11.2227    3.8882  -16.5696 N   0  0  0  0  0  0  0  0  0  0  0  0
    9.9489    3.8954  -16.0121 C   0  0  0  0  0  0  0  0  0  0  0  0
    9.9680    4.5262  -14.7860 C   0  0  0  0  0  0  0  0  0  0  0  0
    8.8592    4.7299  -13.8472 C   0  0  0  0  0  0  0  0  0  0  0  0
    8.6381    5.7771  -12.9815 C   0  0  0  0  0  0  0  0  0  0  0  0
    7.4604    5.5877  -12.2838 N   0  0  0  0  0  0  0  0  0  0  0  0
    6.8672    4.4087  -12.6705 C   0  0  0  0  0  0  0  0  0  0  0  0
    5.6862    3.7728  -12.2526 C   0  0  0  0  0  0  0  0  0  0  0  0
    5.3208    2.5418  -12.8271 C   0  0  0  0  0  0  0  0  0  0  0  0
    6.1440    1.9646  -13.8133 C   0  0  0  0  0  0  0  0  0  0  0  0
    5.7507    0.3473  -14.4709 S   0  0  0  0  0  0  0  0  0  0  0  0
    6.8857   -0.6288  -13.6652 N   0  0  0  0  0  0  0  0  0  0  0  0
    4.4236   -0.0515  -13.9746 O   0  0  0  0  0  0  0  0  0  0  0  0
    6.0854    0.3098  -15.9022 O   0  0  0  0  0  0  0  0  0  0  0  0
    7.3204    2.6166  -14.2460 C   0  0  0  0  0  0  0  0  0  0  0  0
    7.7223    3.8518  -13.6718 C   0  0  0  0  0  0  0  0  0  0  0  0
   12.8818    7.4899  -12.9558 H   0  0  0  0  0  0  0  0  0  0  0  0
   13.2570    6.9033  -14.5692 H   0  0  0  0  0  0  0  0  0  0  0  0
   11.6862    7.6316  -14.2430 H   0  0  0  0  0  0  0  0  0  0  0  0
   11.1859    5.7078  -12.6472 H   0  0  0  0  0  0  0  0  0  0  0  0
   12.7068    4.9787  -13.0510 H   0  0  0  0  0  0  0  0  0  0  0  0
   13.0226    4.6650  -15.7913 H   0  0  0  0  0  0  0  0  0  0  0  0
    9.1207    3.4420  -16.5374 H   0  0  0  0  0  0  0  0  0  0  0  0
    9.2207    6.6670  -12.7984 H   0  0  0  0  0  0  0  0  0  0  0  0
    7.1053    6.2423  -11.5901 H   0  0  0  0  0  0  0  0  0  0  0  0
    5.0835    4.2247  -11.4791 H   0  0  0  0  0  0  0  0  0  0  0  0
    4.4282    2.0361  -12.4973 H   0  0  0  0  0  0  0  0  0  0  0  0
    6.5642   -0.8917  -12.7346 H   0  0  0  0  0  0  0  0  0  0  0  0
    7.0898   -1.4558  -14.2325 H   0  0  0  0  0  0  0  0  0  0  0  0
    7.9425    2.1362  -14.9859 H   0  0  0  0  0  0  0  0  0  0  0  0
  2  1  1  0
  3  2  1  0
  4  3  1  0
  5  4  2  0
  6  5  1  0
  7  3  1  0
  7  6  2  0
  8  7  1  0
  9  8  2  0
 10  9  1  0
 11 10  1  0
 12 11  2  0
 13 12  1  0
 14 13  2  0
 15 14  1  0
 16 15  1  0
 17 15  2  0
 18 15  2  0
 19 14  1  0
 20  8  1  0
 20 11  1  0
 20 19  2  0
 21  1  1  0
 22  1  1  0
 23  1  1  0
 24  2  1  0
 25  2  1  0
 26  4  1  0
 27  6  1  0
 28  9  1  0
 29 10  1  0
 30 12  1  0
 31 13  1  0
 32 16  1  0
 33 16  1  0
 34 19  1  0
M  END
>  <b_m_subgroup_collapsed>  (1335) 
0

>  <r_i_docking_score>  (1335) 
-6.0920664715063797

>  <s_m_subgroup_title>  (1335) 
glide-dock_SP_D22_pv

>  <s_m_subgroupid>  (1335) 
glide-dock_SP_D22_pv

>  <Molecule ChEMBL ID>  (1335) 
CHEMBL4517552

>  <Standard Type>  (1335) 
Ki

>  <Standard Value>  (1335) 
10000.0

>  <label>  (1335) 
0

$$$$
CHEMBL498566
     RDKit          3D

 49 50  0  0  1  0  0  0  0  0999 V2000
   13.0084    8.3690  -11.6516 C   0  0  0  0  0  0  0  0  0  0  0  0
   11.6630    7.6394  -11.7983 C   0  0  0  0  0  0  0  0  0  0  0  0
   10.6464    8.1135  -10.8544 N   0  0  0  0  0  0  0  0  0  0  0  0
   11.0069    7.8091   -9.4644 C   0  0  0  0  0  0  0  0  0  0  0  0
    9.9732    8.2941   -8.4331 C   0  0  0  0  0  0  0  0  0  0  0  0
   10.5599    8.3252   -7.0351 C   0  0  0  0  0  0  0  0  0  0  0  0
   10.9733    9.5544   -6.4912 C   0  0  0  0  0  0  0  0  0  0  0  0
   11.5125    9.6151   -5.2021 C   0  0  0  0  0  0  0  0  0  0  0  0
   11.6841    8.4508   -4.4377 C   0  0  0  0  0  0  0  0  0  0  0  0
   12.2364    8.6453   -3.1963 O   0  0  0  0  0  0  0  0  0  0  0  0
   12.2402    7.6794   -2.2463 C   0  0  0  0  0  0  0  0  0  0  0  0
   12.8860    8.1723   -1.1627 F   0  0  0  0  0  0  0  0  0  0  0  0
   10.9987    7.3259   -1.8469 F   0  0  0  0  0  0  0  0  0  0  0  0
   12.8860    6.5614   -2.6469 F   0  0  0  0  0  0  0  0  0  0  0  0
   11.2860    7.2043   -4.9856 C   0  0  0  0  0  0  0  0  0  0  0  0
   10.7173    7.1464   -6.2762 C   0  0  0  0  0  0  0  0  0  0  0  0
    9.3030    7.6859  -11.2613 C   0  0  0  0  0  0  0  0  0  0  0  0
    9.1073    6.1551  -11.2922 C   0  0  0  0  0  0  0  0  0  0  0  0
    7.6860    5.7723  -11.4468 N   0  0  0  0  0  0  0  0  0  0  0  0
    7.0377    6.1893  -12.7100 C   0  0  0  0  0  0  0  0  0  0  0  0
    6.2625    4.9723  -13.2443 C   0  0  0  0  0  0  0  0  0  0  0  0
    6.1583    4.0333  -12.0531 C   0  0  0  0  0  0  0  0  0  0  0  0
    7.4538    4.3203  -11.3017 C   0  0  0  0  0  0  0  0  0  0  0  0
   13.6860    8.0908  -12.4577 H   0  0  0  0  0  0  0  0  0  0  0  0
   12.8860    9.4424  -11.6984 H   0  0  0  0  0  0  0  0  0  0  0  0
   13.5112    8.1723  -10.7070 H   0  0  0  0  0  0  0  0  0  0  0  0
   11.8140    6.5723  -11.6939 H   0  0  0  0  0  0  0  0  0  0  0  0
   11.3021    7.7723  -12.8186 H   0  0  0  0  0  0  0  0  0  0  0  0
   11.9426    8.3209   -9.2418 H   0  0  0  0  0  0  0  0  0  0  0  0
   11.1996    6.7442   -9.3324 H   0  0  0  0  0  0  0  0  0  0  0  0
    9.0930    7.6493   -8.4290 H   0  0  0  0  0  0  0  0  0  0  0  0
    9.6225    9.2944   -8.6925 H   0  0  0  0  0  0  0  0  0  0  0  0
   10.8860   10.4704   -7.0469 H   0  0  0  0  0  0  0  0  0  0  0  0
   11.7913   10.5723   -4.7959 H   0  0  0  0  0  0  0  0  0  0  0  0
   11.3861    6.2823   -4.4334 H   0  0  0  0  0  0  0  0  0  0  0  0
   10.4061    6.1941   -6.6805 H   0  0  0  0  0  0  0  0  0  0  0  0
    8.5657    8.1451  -10.6038 H   0  0  0  0  0  0  0  0  0  0  0  0
    9.0968    8.1037  -12.2469 H   0  0  0  0  0  0  0  0  0  0  0  0
    9.6938    5.7041  -12.0937 H   0  0  0  0  0  0  0  0  0  0  0  0
    9.4583    5.7168  -10.3577 H   0  0  0  0  0  0  0  0  0  0  0  0
    6.3597    7.0170  -12.4976 H   0  0  0  0  0  0  0  0  0  0  0  0
    7.7624    6.5366  -13.4469 H   0  0  0  0  0  0  0  0  0  0  0  0
    5.2860    5.2383  -13.6515 H   0  0  0  0  0  0  0  0  0  0  0  0
    6.8346    4.4908  -14.0384 H   0  0  0  0  0  0  0  0  0  0  0  0
    5.2934    4.3031  -11.4469 H   0  0  0  0  0  0  0  0  0  0  0  0
    6.0555    2.9867  -12.3414 H   0  0  0  0  0  0  0  0  0  0  0  0
    8.2673    3.7750  -11.7846 H   0  0  0  0  0  0  0  0  0  0  0  0
    7.4271    4.0097  -10.2591 H   0  0  0  0  0  0  0  0  0  0  0  0
    7.1666    6.2712  -10.7217 H   0  0  0  0  0  0  0  0  0  0  0  0
  2  1  1  0
  3  2  1  0
  4  3  1  0
  5  4  1  0
  6  5  1  0
  7  6  1  0
  8  7  2  0
  9  8  1  0
 10  9  1  0
 11 10  1  0
 12 11  1  0
 13 11  1  0
 14 11  1  0
 15  9  2  0
 16  6  2  0
 16 15  1  0
 17  3  1  0
 18 17  1  0
 19 18  1  0
 20 19  1  0
 21 20  1  0
 22 21  1  0
 23 19  1  0
 23 22  1  0
 24  1  1  0
 25  1  1  0
 26  1  1  0
 27  2  1  0
 28  2  1  0
 29  4  1  0
 30  4  1  0
 31  5  1  0
 32  5  1  0
 33  7  1  0
 34  8  1  0
 35 15  1  0
 36 16  1  0
 37 17  1  0
 38 17  1  0
 39 18  1  0
 40 18  1  0
 41 20  1  0
 42 20  1  0
 43 21  1  0
 44 21  1  0
 45 22  1  0
 46 22  1  0
 47 23  1  0
 48 23  1  0
 49 19  1  0
M  CHG  1  19   1
M  END
>  <b_m_subgroup_collapsed>  (1336) 
0

>  <r_i_docking_score>  (1336) 
-6.0919728925609302

>  <s_m_subgroup_title>  (1336) 
glide-dock_SP_D22_pv

>  <s_m_subgroupid>  (1336) 
glide-dock_SP_D22_pv

>  <Molecule ChEMBL ID>  (1336) 
CHEMBL498566

>  <Standard Type>  (1336) 
Ki

>  <Standard Value>  (1336) 
10000.0

>  <label>  (1336) 
0

$$$$
CHEMBL4100358
     RDKit          3D

 35 36  0  0  1  0  0  0  0  0999 V2000
    9.6047    4.4733  -12.0952 C   0  0  0  0  0  0  0  0  0  0  0  0
    8.4264    5.1422  -11.3737 C   0  0  0  0  0  0  0  0  0  0  0  0
    8.8133    5.8258  -10.0479 C   0  0  0  0  0  0  0  0  0  0  0  0
    9.8010    7.0103  -10.1424 C   0  0  1  0  0  0  0  0  0  0  0  0
    9.2883    8.1694  -11.0221 C   0  0  0  0  0  0  0  0  0  0  0  0
   10.0849    7.4442   -8.7751 N   0  0  0  0  0  0  0  0  0  0  0  0
   10.8261    8.4863   -8.3679 C   0  0  0  0  0  0  0  0  0  0  0  0
   11.2853    9.3419   -9.1212 O   0  0  0  0  0  0  0  0  0  0  0  0
   11.0520    8.5741   -6.9133 C   0  0  0  0  0  0  0  0  0  0  0  0
   11.2089    9.6389   -6.0577 C   0  0  0  0  0  0  0  0  0  0  0  0
   11.4859    9.0932   -4.7552 C   0  0  0  0  0  0  0  0  0  0  0  0
   11.7400    9.6301   -3.4696 C   0  0  0  0  0  0  0  0  0  0  0  0
   12.0861    8.8011   -2.3817 C   0  0  0  0  0  0  0  0  0  0  0  0
   12.1134    7.4044   -2.5401 C   0  0  0  0  0  0  0  0  0  0  0  0
   11.7991    6.8393   -3.7851 C   0  0  0  0  0  0  0  0  0  0  0  0
   11.5010    7.6750   -4.8718 C   0  0  0  0  0  0  0  0  0  0  0  0
   11.1953    7.4028   -6.1864 N   0  0  0  0  0  0  0  0  0  0  0  0
    9.2655    3.9565  -12.9936 H   0  0  0  0  0  0  0  0  0  0  0  0
   10.3538    5.2039  -12.4000 H   0  0  0  0  0  0  0  0  0  0  0  0
   10.0845    3.7356  -11.4532 H   0  0  0  0  0  0  0  0  0  0  0  0
    7.6796    4.3782  -11.1564 H   0  0  0  0  0  0  0  0  0  0  0  0
    7.9289    5.8475  -12.0415 H   0  0  0  0  0  0  0  0  0  0  0  0
    9.2291    5.0642   -9.3876 H   0  0  0  0  0  0  0  0  0  0  0  0
    7.9005    6.1705   -9.5610 H   0  0  0  0  0  0  0  0  0  0  0  0
   10.7375    6.6471  -10.5686 H   0  0  0  0  0  0  0  0  0  0  0  0
    8.9232    7.8255  -11.9900 H   0  0  0  0  0  0  0  0  0  0  0  0
    8.4860    8.7152  -10.5299 H   0  0  0  0  0  0  0  0  0  0  0  0
   10.0797    8.8860  -11.2364 H   0  0  0  0  0  0  0  0  0  0  0  0
    9.6663    6.8830   -8.0487 H   0  0  0  0  0  0  0  0  0  0  0  0
   11.1571   10.6863   -6.3096 H   0  0  0  0  0  0  0  0  0  0  0  0
   11.6868   10.6945   -3.3155 H   0  0  0  0  0  0  0  0  0  0  0  0
   12.3030    9.2416   -1.4191 H   0  0  0  0  0  0  0  0  0  0  0  0
   12.3773    6.7638   -1.7137 H   0  0  0  0  0  0  0  0  0  0  0  0
   11.8086    5.7719   -3.9104 H   0  0  0  0  0  0  0  0  0  0  0  0
   11.1528    6.4830   -6.6008 H   0  0  0  0  0  0  0  0  0  0  0  0
  2  1  1  0
  3  2  1  0
  4  3  1  0
  5  4  1  0
  6  4  1  0
  7  6  1  0
  8  7  2  0
  9  7  1  0
 10  9  2  0
 11 10  1  0
 12 11  2  0
 13 12  1  0
 14 13  2  0
 15 14  1  0
 16 11  1  0
 16 15  2  0
 17  9  1  0
 17 16  1  0
 18  1  1  0
 19  1  1  0
 20  1  1  0
 21  2  1  0
 22  2  1  0
 23  3  1  0
 24  3  1  0
  4 25  1  6
 26  5  1  0
 27  5  1  0
 28  5  1  0
 29  6  1  0
 30 10  1  0
 31 12  1  0
 32 13  1  0
 33 14  1  0
 34 15  1  0
 35 17  1  0
M  END
>  <b_m_subgroup_collapsed>  (1337) 
0

>  <r_i_docking_score>  (1337) 
-6.0901291491358496

>  <s_m_subgroup_title>  (1337) 
glide-dock_SP_D22_pv

>  <s_m_subgroupid>  (1337) 
glide-dock_SP_D22_pv

>  <Molecule ChEMBL ID>  (1337) 
CHEMBL4100358

>  <Standard Type>  (1337) 
Ki

>  <Standard Value>  (1337) 
30000.0

>  <label>  (1337) 
0

$$$$
CHEMBL381573
     RDKit          3D

 51 54  0  0  1  0  0  0  0  0999 V2000
    9.9368    5.4535  -17.9339 C   0  0  0  0  0  0  0  0  0  0  0  0
   10.7152    4.5759  -17.0221 N   0  0  1  0  0  0  0  0  0  0  0  0
   11.1255    3.2969  -17.6750 C   0  0  0  0  0  0  0  0  0  0  0  0
    9.9465    2.3315  -17.9783 C   0  0  0  0  0  0  0  0  0  0  0  0
    9.4353    1.4292  -16.8273 C   0  0  0  0  0  0  0  0  0  0  0  0
    9.0501    2.1735  -15.5285 C   0  0  1  0  0  0  0  0  0  0  0  0
    7.8356    1.5969  -14.8054 C   0  0  0  0  0  0  0  0  0  0  0  0
    7.6791    0.2028  -14.6351 C   0  0  0  0  0  0  0  0  0  0  0  0
    6.5813   -0.3055  -13.9107 C   0  0  0  0  0  0  0  0  0  0  0  0
    5.6429    0.5724  -13.3393 C   0  0  0  0  0  0  0  0  0  0  0  0
    5.7946    1.9627  -13.4965 C   0  0  0  0  0  0  0  0  0  0  0  0
    6.8767    2.4707  -14.2457 C   0  0  0  0  0  0  0  0  0  0  0  0
   10.2511    2.2828  -14.5657 C   0  0  0  0  0  0  0  0  0  0  0  0
   10.3155    3.5900  -13.8502 C   0  0  0  0  0  0  0  0  0  0  0  0
    9.4310    3.8854  -12.8326 N   0  0  0  0  0  0  0  0  0  0  0  0
    9.6826    5.1299  -12.3064 C   0  0  0  0  0  0  0  0  0  0  0  0
    9.0760    5.8434  -11.2595 C   0  0  0  0  0  0  0  0  0  0  0  0
    9.5910    7.0969  -10.8915 C   0  0  0  0  0  0  0  0  0  0  0  0
   10.7046    7.6181  -11.5733 C   0  0  0  0  0  0  0  0  0  0  0  0
   11.2863    6.9111  -12.6482 C   0  0  0  0  0  0  0  0  0  0  0  0
   10.7900    5.6433  -13.0469 C   0  0  0  0  0  0  0  0  0  0  0  0
   11.1635    4.6575  -14.0338 C   0  0  0  0  0  0  0  0  0  0  0  0
   12.2831    4.7426  -15.0359 C   0  0  0  0  0  0  0  0  0  0  0  0
   11.8431    5.3212  -16.3936 C   0  0  0  0  0  0  0  0  0  0  0  0
   10.5046    5.6860  -18.8358 H   0  0  0  0  0  0  0  0  0  0  0  0
    9.6858    6.3954  -17.4506 H   0  0  0  0  0  0  0  0  0  0  0  0
    8.9907    5.0036  -18.2307 H   0  0  0  0  0  0  0  0  0  0  0  0
   11.6268    3.5478  -18.6103 H   0  0  0  0  0  0  0  0  0  0  0  0
   11.8780    2.7758  -17.0850 H   0  0  0  0  0  0  0  0  0  0  0  0
    9.1026    2.8650  -18.4125 H   0  0  0  0  0  0  0  0  0  0  0  0
   10.2735    1.6608  -18.7747 H   0  0  0  0  0  0  0  0  0  0  0  0
    8.5525    0.9178  -17.2151 H   0  0  0  0  0  0  0  0  0  0  0  0
   10.1499    0.6339  -16.6103 H   0  0  0  0  0  0  0  0  0  0  0  0
    8.7502    3.1751  -15.8363 H   0  0  0  0  0  0  0  0  0  0  0  0
    8.4043   -0.4837  -15.0455 H   0  0  0  0  0  0  0  0  0  0  0  0
    6.4698   -1.3736  -13.7865 H   0  0  0  0  0  0  0  0  0  0  0  0
    4.8091    0.1792  -12.7785 H   0  0  0  0  0  0  0  0  0  0  0  0
    5.0771    2.6391  -13.0557 H   0  0  0  0  0  0  0  0  0  0  0  0
    6.9795    3.5407  -14.3537 H   0  0  0  0  0  0  0  0  0  0  0  0
   10.2332    1.4627  -13.8473 H   0  0  0  0  0  0  0  0  0  0  0  0
   11.1848    2.1354  -15.1000 H   0  0  0  0  0  0  0  0  0  0  0  0
    8.7304    3.2347  -12.5064 H   0  0  0  0  0  0  0  0  0  0  0  0
    8.2263    5.4375  -10.7294 H   0  0  0  0  0  0  0  0  0  0  0  0
    9.1292    7.6521  -10.0858 H   0  0  0  0  0  0  0  0  0  0  0  0
   11.1084    8.5722  -11.2687 H   0  0  0  0  0  0  0  0  0  0  0  0
   12.1403    7.3303  -13.1589 H   0  0  0  0  0  0  0  0  0  0  0  0
   13.0777    5.3725  -14.6341 H   0  0  0  0  0  0  0  0  0  0  0  0
   12.7525    3.7702  -15.1727 H   0  0  0  0  0  0  0  0  0  0  0  0
   12.6871    5.3673  -17.0820 H   0  0  0  0  0  0  0  0  0  0  0  0
   11.5450    6.3557  -16.2159 H   0  0  0  0  0  0  0  0  0  0  0  0
   10.1037    4.3374  -16.2530 H   0  0  0  0  0  0  0  0  0  0  0  0
  2  1  1  0
  3  2  1  0
  4  3  1  0
  5  4  1  0
  6  5  1  0
  7  6  1  0
  8  7  2  0
  9  8  1  0
 10  9  2  0
 11 10  1  0
 12  7  1  0
 12 11  2  0
 13  6  1  0
 14 13  1  0
 15 14  1  0
 16 15  1  0
 17 16  2  0
 18 17  1  0
 19 18  2  0
 20 19  1  0
 21 16  1  0
 21 20  2  0
 22 14  2  0
 22 21  1  0
 23 22  1  0
 24  2  1  0
 24 23  1  0
 25  1  1  0
 26  1  1  0
 27  1  1  0
 28  3  1  0
 29  3  1  0
 30  4  1  0
 31  4  1  0
 32  5  1  0
 33  5  1  0
  6 34  1  6
 35  8  1  0
 36  9  1  0
 37 10  1  0
 38 11  1  0
 39 12  1  0
 40 13  1  0
 41 13  1  0
 42 15  1  0
 43 17  1  0
 44 18  1  0
 45 19  1  0
 46 20  1  0
 47 23  1  0
 48 23  1  0
 49 24  1  0
 50 24  1  0
  2 51  1  1
M  CHG  1   2   1
M  END
>  <b_m_subgroup_collapsed>  (1338) 
0

>  <r_i_docking_score>  (1338) 
-6.0868756940787101

>  <s_m_subgroup_title>  (1338) 
glide-dock_SP_D22_pv

>  <s_m_subgroupid>  (1338) 
glide-dock_SP_D22_pv

>  <Molecule ChEMBL ID>  (1338) 
CHEMBL381573

>  <Standard Type>  (1338) 
Ki

>  <Standard Value>  (1338) 
10000.0

>  <label>  (1338) 
0

$$$$
CHEMBL2021539
     RDKit          3D

 43 44  0  0  1  0  0  0  0  0999 V2000
    9.2091    4.6798   -8.9283 C   0  0  0  0  0  0  0  0  0  0  0  0
    9.2875    6.1049   -9.4950 C   0  0  0  0  0  0  0  0  0  0  0  0
    9.0676    6.1538  -11.0117 C   0  0  0  0  0  0  0  0  0  0  0  0
    7.6829    5.7545  -11.3250 N   0  0  0  0  0  0  0  0  0  0  0  0
    7.2546    5.7796  -12.7433 C   0  0  2  0  0  0  0  0  0  0  0  0
    5.7308    5.5773  -12.7849 C   0  0  0  0  0  0  0  0  0  0  0  0
    5.3055    4.1325  -12.5065 C   0  0  0  0  0  0  0  0  0  0  0  0
    6.1030    3.0908  -13.2612 C   0  0  0  0  0  0  0  0  0  0  0  0
    5.5521    1.7995  -13.3772 C   0  0  0  0  0  0  0  0  0  0  0  0
    6.2542    0.7841  -14.0410 C   0  0  0  0  0  0  0  0  0  0  0  0
    7.5144    1.0558  -14.5957 C   0  0  0  0  0  0  0  0  0  0  0  0
    8.0926    2.3456  -14.4926 C   0  0  0  0  0  0  0  0  0  0  0  0
    9.4807    2.6327  -15.0739 C   0  0  0  0  0  0  0  0  0  0  0  0
   10.0864    1.3879  -16.3018 S   0  0  0  0  0  0  0  0  0  0  0  0
   10.4866    0.1720  -15.5756 O   0  0  0  0  0  0  0  0  0  0  0  0
    9.1014    1.3028  -17.3915 O   0  0  0  0  0  0  0  0  0  0  0  0
   11.6005    2.2164  -16.9513 C   0  0  0  0  0  0  0  0  0  0  0  0
   12.2525    1.3641  -17.7411 F   0  0  0  0  0  0  0  0  0  0  0  0
   11.2416    3.2943  -17.6473 F   0  0  0  0  0  0  0  0  0  0  0  0
   12.3771    2.5732  -15.9306 F   0  0  0  0  0  0  0  0  0  0  0  0
    7.3837    3.3732  -13.8045 C   0  0  0  0  0  0  0  0  0  0  0  0
    8.0062    4.7674  -13.6506 C   0  0  0  0  0  0  0  0  0  0  0  0
    9.2939    4.7029   -7.8453 H   0  0  0  0  0  0  0  0  0  0  0  0
    8.2590    4.1952   -9.1562 H   0  0  0  0  0  0  0  0  0  0  0  0
   10.0109    4.0508   -9.3162 H   0  0  0  0  0  0  0  0  0  0  0  0
   10.2639    6.5290   -9.2568 H   0  0  0  0  0  0  0  0  0  0  0  0
    8.5524    6.7388   -8.9955 H   0  0  0  0  0  0  0  0  0  0  0  0
    9.7915    5.5040  -11.5006 H   0  0  0  0  0  0  0  0  0  0  0  0
    9.2366    7.1667  -11.3793 H   0  0  0  0  0  0  0  0  0  0  0  0
    7.0937    6.4337  -10.8330 H   0  0  0  0  0  0  0  0  0  0  0  0
    7.4795    6.7894  -13.0892 H   0  0  0  0  0  0  0  0  0  0  0  0
    5.2860    6.2561  -12.0590 H   0  0  0  0  0  0  0  0  0  0  0  0
    5.2970    5.8487  -13.7480 H   0  0  0  0  0  0  0  0  0  0  0  0
    4.2582    4.0013  -12.7738 H   0  0  0  0  0  0  0  0  0  0  0  0
    5.3906    3.9113  -11.4462 H   0  0  0  0  0  0  0  0  0  0  0  0
    4.5819    1.5836  -12.9541 H   0  0  0  0  0  0  0  0  0  0  0  0
    5.8298   -0.2058  -14.1271 H   0  0  0  0  0  0  0  0  0  0  0  0
    8.0158    0.2371  -15.0868 H   0  0  0  0  0  0  0  0  0  0  0  0
    9.4814    3.5912  -15.5885 H   0  0  0  0  0  0  0  0  0  0  0  0
   10.2114    2.6759  -14.2669 H   0  0  0  0  0  0  0  0  0  0  0  0
    9.0403    4.6584  -13.3338 H   0  0  0  0  0  0  0  0  0  0  0  0
    8.0698    5.2006  -14.6476 H   0  0  0  0  0  0  0  0  0  0  0  0
    7.4939    4.8441  -10.9302 H   0  0  0  0  0  0  0  0  0  0  0  0
  2  1  1  0
  3  2  1  0
  4  3  1  0
  5  4  1  0
  6  5  1  0
  7  6  1  0
  8  7  1  0
  9  8  1  0
 10  9  2  0
 11 10  1  0
 12 11  2  0
 13 12  1  0
 14 13  1  0
 15 14  2  0
 16 14  2  0
 17 14  1  0
 18 17  1  0
 19 17  1  0
 20 17  1  0
 21  8  2  0
 21 12  1  0
 22  5  1  0
 22 21  1  0
 23  1  1  0
 24  1  1  0
 25  1  1  0
 26  2  1  0
 27  2  1  0
 28  3  1  0
 29  3  1  0
 30  4  1  0
  5 31  1  6
 32  6  1  0
 33  6  1  0
 34  7  1  0
 35  7  1  0
 36  9  1  0
 37 10  1  0
 38 11  1  0
 39 13  1  0
 40 13  1  0
 41 22  1  0
 42 22  1  0
 43  4  1  0
M  CHG  1   4   1
M  END
>  <b_m_subgroup_collapsed>  (1339) 
0

>  <r_i_docking_score>  (1339) 
-6.0863215666171104

>  <s_m_subgroup_title>  (1339) 
glide-dock_SP_D22_pv

>  <s_m_subgroupid>  (1339) 
glide-dock_SP_D22_pv

>  <Molecule ChEMBL ID>  (1339) 
CHEMBL2021539

>  <Standard Type>  (1339) 
Ki

>  <Standard Value>  (1339) 
69.0

>  <label>  (1339) 
1

$$$$
CHEMBL516
     RDKit          3D

 44 47  0  0  1  0  0  0  0  0999 V2000
   10.0776   -1.0519  -16.9676 C   0  0  0  0  0  0  0  0  0  0  0  0
   10.5930    0.1850  -16.3555 N   0  0  0  0  0  0  0  0  0  0  0  0
    9.7773    0.6540  -15.2044 C   0  0  0  0  0  0  0  0  0  0  0  0
   10.4261    1.8694  -14.5156 C   0  0  0  0  0  0  0  0  0  0  0  0
   10.7522    2.9600  -15.5299 C   0  0  0  0  0  0  0  0  0  0  0  0
   10.4406    4.2708  -15.3913 C   0  0  0  0  0  0  0  0  0  0  0  0
    9.8022    4.8353  -14.1973 C   0  0  0  0  0  0  0  0  0  0  0  0
    8.4837    4.4747  -13.8420 C   0  0  0  0  0  0  0  0  0  0  0  0
    7.8854    5.0134  -12.6882 C   0  0  0  0  0  0  0  0  0  0  0  0
    8.6031    5.9193  -11.8876 C   0  0  0  0  0  0  0  0  0  0  0  0
    9.9128    6.2923  -12.2462 C   0  0  0  0  0  0  0  0  0  0  0  0
   10.5226    5.7653  -13.4052 C   0  0  0  0  0  0  0  0  0  0  0  0
   11.8634    6.2650  -13.7799 C   0  0  0  0  0  0  0  0  0  0  0  0
   12.3869    6.4317  -15.0138 C   0  0  0  0  0  0  0  0  0  0  0  0
   11.7407    6.1725  -16.3164 C   0  0  0  0  0  0  0  0  0  0  0  0
   12.0897    6.9738  -17.4217 C   0  0  0  0  0  0  0  0  0  0  0  0
   11.4098    6.8626  -18.6481 C   0  0  0  0  0  0  0  0  0  0  0  0
   10.3605    5.9371  -18.7821 C   0  0  0  0  0  0  0  0  0  0  0  0
   10.0218    5.1083  -17.6983 C   0  0  0  0  0  0  0  0  0  0  0  0
   10.7243    5.2079  -16.4772 C   0  0  0  0  0  0  0  0  0  0  0  0
   11.5553    2.4134  -16.7084 C   0  0  0  0  0  0  0  0  0  0  0  0
   10.8313    1.2413  -17.3606 C   0  0  0  0  0  0  0  0  0  0  0  0
    9.0573   -0.9236  -17.3355 H   0  0  0  0  0  0  0  0  0  0  0  0
   10.7080   -1.3840  -17.7938 H   0  0  0  0  0  0  0  0  0  0  0  0
   10.0863   -1.8309  -16.2154 H   0  0  0  0  0  0  0  0  0  0  0  0
    9.6660   -0.1546  -14.4803 H   0  0  0  0  0  0  0  0  0  0  0  0
    8.7752    0.9113  -15.5504 H   0  0  0  0  0  0  0  0  0  0  0  0
   11.3492    1.5684  -14.0268 H   0  0  0  0  0  0  0  0  0  0  0  0
    9.7797    2.2206  -13.7145 H   0  0  0  0  0  0  0  0  0  0  0  0
    7.9283    3.7803  -14.4540 H   0  0  0  0  0  0  0  0  0  0  0  0
    6.8755    4.7408  -12.4166 H   0  0  0  0  0  0  0  0  0  0  0  0
    8.1379    6.3423  -11.0063 H   0  0  0  0  0  0  0  0  0  0  0  0
   10.4400    7.0076  -11.6328 H   0  0  0  0  0  0  0  0  0  0  0  0
   12.5350    6.5119  -12.9703 H   0  0  0  0  0  0  0  0  0  0  0  0
   13.4097    6.7821  -15.0291 H   0  0  0  0  0  0  0  0  0  0  0  0
   12.8665    7.7200  -17.3215 H   0  0  0  0  0  0  0  0  0  0  0  0
   11.6772    7.5034  -19.4766 H   0  0  0  0  0  0  0  0  0  0  0  0
    9.8252    5.8555  -19.7169 H   0  0  0  0  0  0  0  0  0  0  0  0
    9.2326    4.3807  -17.8120 H   0  0  0  0  0  0  0  0  0  0  0  0
   11.7957    3.1563  -17.4656 H   0  0  0  0  0  0  0  0  0  0  0  0
   12.5190    2.0777  -16.3241 H   0  0  0  0  0  0  0  0  0  0  0  0
   11.4410    0.8478  -18.1751 H   0  0  0  0  0  0  0  0  0  0  0  0
    9.8852    1.5666  -17.7957 H   0  0  0  0  0  0  0  0  0  0  0  0
   11.5041   -0.0387  -15.9777 H   0  0  0  0  0  0  0  0  0  0  0  0
  2  1  1  0
  3  2  1  0
  4  3  1  0
  5  4  1  0
  6  5  2  3
  7  6  1  0
  8  7  2  0
  9  8  1  0
 10  9  2  0
 11 10  1  0
 12  7  1  0
 12 11  2  0
 13 12  1  0
 14 13  2  0
 15 14  1  0
 16 15  2  0
 17 16  1  0
 18 17  2  0
 19 18  1  0
 20  6  1  0
 20 15  1  0
 20 19  2  0
 21  5  1  0
 22  2  1  0
 22 21  1  0
 23  1  1  0
 24  1  1  0
 25  1  1  0
 26  3  1  0
 27  3  1  0
 28  4  1  0
 29  4  1  0
 30  8  1  0
 31  9  1  0
 32 10  1  0
 33 11  1  0
 34 13  1  0
 35 14  1  0
 36 16  1  0
 37 17  1  0
 38 18  1  0
 39 19  1  0
 40 21  1  0
 41 21  1  0
 42 22  1  0
 43 22  1  0
 44  2  1  0
M  CHG  1   2   1
M  END
>  <b_m_subgroup_collapsed>  (1340) 
0

>  <r_i_docking_score>  (1340) 
-6.0855198874760204

>  <s_m_subgroup_title>  (1340) 
glide-dock_SP_D22_pv

>  <s_m_subgroupid>  (1340) 
glide-dock_SP_D22_pv

>  <Molecule ChEMBL ID>  (1340) 
CHEMBL516

>  <Standard Type>  (1340) 
Ki

>  <Standard Value>  (1340) 
55.0

>  <label>  (1340) 
1

$$$$
CHEMBL91362
     RDKit          3D

 51 54  0  0  1  0  0  0  0  0999 V2000
   11.0487    8.0647  -20.3104 C   0  0  0  0  0  0  0  0  0  0  0  0
   11.6334    7.2635  -19.1473 C   0  0  0  0  0  0  0  0  0  0  0  0
   10.8210    6.1240  -18.9124 O   0  0  0  0  0  0  0  0  0  0  0  0
   11.0208    5.3638  -17.8133 C   0  0  0  0  0  0  0  0  0  0  0  0
   11.8862    5.6350  -16.9837 O   0  0  0  0  0  0  0  0  0  0  0  0
   10.1132    4.2153  -17.7800 C   0  0  0  0  0  0  0  0  0  0  0  0
    9.2580    3.8039  -18.8348 C   0  0  0  0  0  0  0  0  0  0  0  0
    8.5291    2.7520  -18.5585 N   0  0  0  0  0  0  0  0  0  0  0  0
    8.8926    2.4254  -17.2796 N   0  0  0  0  0  0  0  0  0  0  0  0
    8.3618    1.3763  -16.5929 C   0  0  0  0  0  0  0  0  0  0  0  0
    8.7856    1.1295  -15.3137 C   0  0  0  0  0  0  0  0  0  0  0  0
    9.7612    1.9621  -14.7252 C   0  0  0  0  0  0  0  0  0  0  0  0
   10.3111    3.0203  -15.4145 C   0  0  0  0  0  0  0  0  0  0  0  0
   11.3766    3.8255  -14.6932 C   0  0  0  0  0  0  0  0  0  0  0  0
   10.9048    5.0980  -14.1402 N   0  0  0  0  0  0  0  0  0  0  0  0
   10.0036    4.8537  -13.0062 C   0  0  0  0  0  0  0  0  0  0  0  0
    9.5531    6.1711  -12.3441 C   0  0  0  0  0  0  0  0  0  0  0  0
   10.7143    6.9711  -11.9538 N   0  0  0  0  0  0  0  0  0  0  0  0
   10.7838    7.6022  -10.6889 C   0  0  0  0  0  0  0  0  0  0  0  0
   12.0237    7.9864  -10.1297 C   0  0  0  0  0  0  0  0  0  0  0  0
   12.0941    8.5408   -8.8343 C   0  0  0  0  0  0  0  0  0  0  0  0
   10.9262    8.7310   -8.0785 C   0  0  0  0  0  0  0  0  0  0  0  0
   11.0236    9.3728   -6.4794 Cl  0  0  0  0  0  0  0  0  0  0  0  0
    9.6816    8.3904   -8.6331 C   0  0  0  0  0  0  0  0  0  0  0  0
    9.6147    7.8351   -9.9256 C   0  0  0  0  0  0  0  0  0  0  0  0
   11.7050    7.1654  -13.0134 C   0  0  0  0  0  0  0  0  0  0  0  0
   12.0864    5.8282  -13.6749 C   0  0  0  0  0  0  0  0  0  0  0  0
    9.8792    3.3087  -16.7547 C   0  0  0  0  0  0  0  0  0  0  0  0
   11.6564    8.9449  -20.5172 H   0  0  0  0  0  0  0  0  0  0  0  0
   11.0102    7.4602  -21.2189 H   0  0  0  0  0  0  0  0  0  0  0  0
   10.0362    8.4021  -20.0895 H   0  0  0  0  0  0  0  0  0  0  0  0
   11.6868    7.8874  -18.2533 H   0  0  0  0  0  0  0  0  0  0  0  0
   12.6500    6.9445  -19.3805 H   0  0  0  0  0  0  0  0  0  0  0  0
    9.1575    4.2723  -19.8034 H   0  0  0  0  0  0  0  0  0  0  0  0
    7.6154    0.7761  -17.1023 H   0  0  0  0  0  0  0  0  0  0  0  0
    8.3715    0.2954  -14.7562 H   0  0  0  0  0  0  0  0  0  0  0  0
   10.0828    1.7701  -13.7095 H   0  0  0  0  0  0  0  0  0  0  0  0
   11.7922    3.2232  -13.8831 H   0  0  0  0  0  0  0  0  0  0  0  0
   12.2124    3.9702  -15.3747 H   0  0  0  0  0  0  0  0  0  0  0  0
    9.1202    4.3146  -13.3479 H   0  0  0  0  0  0  0  0  0  0  0  0
   10.4858    4.2171  -12.2642 H   0  0  0  0  0  0  0  0  0  0  0  0
    8.9239    6.7439  -13.0254 H   0  0  0  0  0  0  0  0  0  0  0  0
    8.9301    5.9071  -11.4911 H   0  0  0  0  0  0  0  0  0  0  0  0
   12.9477    7.8392  -10.6615 H   0  0  0  0  0  0  0  0  0  0  0  0
   13.0557    8.8128   -8.4234 H   0  0  0  0  0  0  0  0  0  0  0  0
    8.7726    8.5420   -8.0659 H   0  0  0  0  0  0  0  0  0  0  0  0
    8.6345    7.5945  -10.3090 H   0  0  0  0  0  0  0  0  0  0  0  0
   11.2866    7.8154  -13.7783 H   0  0  0  0  0  0  0  0  0  0  0  0
   12.6071    7.6655  -12.6654 H   0  0  0  0  0  0  0  0  0  0  0  0
   12.6691    5.2082  -12.9937 H   0  0  0  0  0  0  0  0  0  0  0  0
   12.7405    6.0314  -14.5231 H   0  0  0  0  0  0  0  0  0  0  0  0
  2  1  1  0
  3  2  1  0
  4  3  1  0
  5  4  2  0
  6  4  1  0
  7  6  1  0
  8  7  2  0
  9  8  1  0
 10  9  1  0
 11 10  2  0
 12 11  1  0
 13 12  2  0
 14 13  1  0
 15 14  1  0
 16 15  1  0
 17 16  1  0
 18 17  1  0
 19 18  1  0
 20 19  1  0
 21 20  2  0
 22 21  1  0
 23 22  1  0
 24 22  2  0
 25 19  2  0
 25 24  1  0
 26 18  1  0
 27 15  1  0
 27 26  1  0
 28  6  2  0
 28  9  1  0
 28 13  1  0
 29  1  1  0
 30  1  1  0
 31  1  1  0
 32  2  1  0
 33  2  1  0
 34  7  1  0
 35 10  1  0
 36 11  1  0
 37 12  1  0
 38 14  1  0
 39 14  1  0
 40 16  1  0
 41 16  1  0
 42 17  1  0
 43 17  1  0
 44 20  1  0
 45 21  1  0
 46 24  1  0
 47 25  1  0
 48 26  1  0
 49 26  1  0
 50 27  1  0
 51 27  1  0
M  END
>  <b_m_subgroup_collapsed>  (1341) 
0

>  <r_i_docking_score>  (1341) 
-6.0838274433715904

>  <s_m_subgroup_title>  (1341) 
glide-dock_SP_D22_pv

>  <s_m_subgroupid>  (1341) 
glide-dock_SP_D22_pv

>  <Molecule ChEMBL ID>  (1341) 
CHEMBL91362

>  <Standard Type>  (1341) 
Ki

>  <Standard Value>  (1341) 
37000.0

>  <label>  (1341) 
0

$$$$
CHEMBL4636778
     RDKit          3D

 63 65  0  0  1  0  0  0  0  0999 V2000
   11.7684    8.7337   -4.7541 C   0  0  0  0  0  0  0  0  0  0  0  0
   11.0149    8.8144   -6.0888 C   0  0  1  0  0  0  0  0  0  0  0  0
   11.2856   10.0815   -6.6460 O   0  0  0  0  0  0  0  0  0  0  0  0
   11.4365    7.7182   -7.0907 C   0  0  0  0  0  0  0  0  0  0  0  0
   10.4770    7.5963   -8.2288 N   0  0  1  0  0  0  0  0  0  0  0  0
   11.1357    7.7203   -9.5647 C   0  0  2  0  0  0  0  0  0  0  0  0
   11.6882    9.1353   -9.7690 C   0  0  0  0  0  0  0  0  0  0  0  0
   10.1619    7.4519  -10.7235 C   0  0  0  0  0  0  0  0  0  0  0  0
    9.5979    6.1180  -10.5952 N   0  0  0  0  0  0  0  0  0  0  0  0
    8.7538    5.8670  -11.7673 C   0  0  0  0  0  0  0  0  0  0  0  0
    8.3142    4.3976  -11.8123 C   0  0  0  0  0  0  0  0  0  0  0  0
    7.7511    3.8671  -13.4580 S   0  0  0  0  0  0  0  0  0  0  0  0
    9.2593    3.0790  -14.1258 C   0  0  0  0  0  0  0  0  0  0  0  0
   10.2058    4.1438  -14.6701 C   0  0  0  0  0  0  0  0  0  0  0  0
   11.2297    4.6520  -13.8467 C   0  0  0  0  0  0  0  0  0  0  0  0
   12.1134    5.6384  -14.3253 C   0  0  0  0  0  0  0  0  0  0  0  0
   11.9951    6.1087  -15.6453 C   0  0  0  0  0  0  0  0  0  0  0  0
   12.8464    7.0535  -16.1088 F   0  0  0  0  0  0  0  0  0  0  0  0
   10.9819    5.6014  -16.4801 C   0  0  0  0  0  0  0  0  0  0  0  0
   10.0851    4.6299  -15.9939 C   0  0  0  0  0  0  0  0  0  0  0  0
    8.9762    1.9804  -15.1519 C   0  0  0  0  0  0  0  0  0  0  0  0
   10.0045    1.0525  -15.4315 C   0  0  0  0  0  0  0  0  0  0  0  0
    9.8291    0.0614  -16.4155 C   0  0  0  0  0  0  0  0  0  0  0  0
    8.6179   -0.0190  -17.1258 C   0  0  0  0  0  0  0  0  0  0  0  0
    8.4567   -0.9607  -18.0849 F   0  0  0  0  0  0  0  0  0  0  0  0
    7.5759    0.8834  -16.8387 C   0  0  0  0  0  0  0  0  0  0  0  0
    7.7536    1.8801  -15.8595 C   0  0  0  0  0  0  0  0  0  0  0  0
    8.7839    6.1539   -9.3846 C   0  0  0  0  0  0  0  0  0  0  0  0
    9.6242    6.3751   -8.1190 C   0  0  2  0  0  0  0  0  0  0  0  0
    8.6559    6.5028   -6.9293 C   0  0  0  0  0  0  0  0  0  0  0  0
   11.6319    7.7584   -4.2829 H   0  0  0  0  0  0  0  0  0  0  0  0
   12.8399    8.8990   -4.8837 H   0  0  0  0  0  0  0  0  0  0  0  0
   11.4041    9.4855   -4.0520 H   0  0  0  0  0  0  0  0  0  0  0  0
    9.9444    8.7527   -5.8850 H   0  0  0  0  0  0  0  0  0  0  0  0
   11.1105   10.7458   -5.9967 H   0  0  0  0  0  0  0  0  0  0  0  0
   12.4480    7.9105   -7.4467 H   0  0  0  0  0  0  0  0  0  0  0  0
   11.5149    6.7632   -6.5684 H   0  0  0  0  0  0  0  0  0  0  0  0
   11.9419    6.9842   -9.6317 H   0  0  0  0  0  0  0  0  0  0  0  0
   12.1038    9.2511  -10.7696 H   0  0  0  0  0  0  0  0  0  0  0  0
   10.9091    9.8892   -9.6447 H   0  0  0  0  0  0  0  0  0  0  0  0
   12.4852    9.3710   -9.0680 H   0  0  0  0  0  0  0  0  0  0  0  0
   10.7033    7.5202  -11.6684 H   0  0  0  0  0  0  0  0  0  0  0  0
    9.3719    8.2035  -10.7608 H   0  0  0  0  0  0  0  0  0  0  0  0
    7.8888    6.5338  -11.7838 H   0  0  0  0  0  0  0  0  0  0  0  0
    9.3266    6.0888  -12.6673 H   0  0  0  0  0  0  0  0  0  0  0  0
    9.1378    3.7654  -11.4916 H   0  0  0  0  0  0  0  0  0  0  0  0
    7.4933    4.2315  -11.1148 H   0  0  0  0  0  0  0  0  0  0  0  0
    9.7501    2.5728  -13.2937 H   0  0  0  0  0  0  0  0  0  0  0  0
   11.3204    4.2987  -12.8325 H   0  0  0  0  0  0  0  0  0  0  0  0
   12.8857    6.0322  -13.6821 H   0  0  0  0  0  0  0  0  0  0  0  0
   10.8881    5.9650  -17.4937 H   0  0  0  0  0  0  0  0  0  0  0  0
    9.3059    4.2589  -16.6433 H   0  0  0  0  0  0  0  0  0  0  0  0
   10.9456    1.1126  -14.9030 H   0  0  0  0  0  0  0  0  0  0  0  0
   10.6310   -0.6274  -16.6327 H   0  0  0  0  0  0  0  0  0  0  0  0
    6.6423    0.8151  -17.3789 H   0  0  0  0  0  0  0  0  0  0  0  0
    6.9439    2.5723  -15.6785 H   0  0  0  0  0  0  0  0  0  0  0  0
    8.2059    5.2365   -9.2760 H   0  0  0  0  0  0  0  0  0  0  0  0
    8.0860    6.9723   -9.4536 H   0  0  0  0  0  0  0  0  0  0  0  0
   10.2577    5.4979   -7.9814 H   0  0  0  0  0  0  0  0  0  0  0  0
    7.9096    5.7120   -6.9421 H   0  0  0  0  0  0  0  0  0  0  0  0
    9.1710    6.4528   -5.9704 H   0  0  0  0  0  0  0  0  0  0  0  0
    8.0924    7.4381   -6.9633 H   0  0  0  0  0  0  0  0  0  0  0  0
    9.8487    8.3871   -8.1705 H   0  0  0  0  0  0  0  0  0  0  0  0
  2  1  1  0
  3  2  1  0
  4  2  1  0
  5  4  1  0
  6  5  1  0
  7  6  1  0
  8  6  1  0
  9  8  1  0
 10  9  1  0
 11 10  1  0
 12 11  1  0
 13 12  1  0
 14 13  1  0
 15 14  1  0
 16 15  2  0
 17 16  1  0
 18 17  1  0
 19 17  2  0
 20 14  2  0
 20 19  1  0
 21 13  1  0
 22 21  1  0
 23 22  2  0
 24 23  1  0
 25 24  1  0
 26 24  2  0
 27 21  2  0
 27 26  1  0
 28  9  1  0
 29  5  1  0
 29 28  1  0
 30 29  1  0
 31  1  1  0
 32  1  1  0
 33  1  1  0
  2 34  1  1
 35  3  1  0
 36  4  1  0
 37  4  1  0
  6 38  1  1
 39  7  1  0
 40  7  1  0
 41  7  1  0
 42  8  1  0
 43  8  1  0
 44 10  1  0
 45 10  1  0
 46 11  1  0
 47 11  1  0
 48 13  1  0
 49 15  1  0
 50 16  1  0
 51 19  1  0
 52 20  1  0
 53 22  1  0
 54 23  1  0
 55 26  1  0
 56 27  1  0
 57 28  1  0
 58 28  1  0
 29 59  1  1
 60 30  1  0
 61 30  1  0
 62 30  1  0
  5 63  1  1
M  CHG  1   5   1
M  END
>  <b_m_subgroup_collapsed>  (1342) 
0

>  <r_i_docking_score>  (1342) 
-6.0815246369759501

>  <s_m_subgroup_title>  (1342) 
glide-dock_SP_D22_pv

>  <s_m_subgroupid>  (1342) 
glide-dock_SP_D22_pv

>  <Molecule ChEMBL ID>  (1342) 
CHEMBL4636778

>  <Standard Type>  (1342) 
Ki

>  <Standard Value>  (1342) 
11900.0

>  <label>  (1342) 
0

$$$$
CHEMBL4064919
     RDKit          3D

 41 42  0  0  1  0  0  0  0  0999 V2000
    6.8662    4.5904  -12.2959 C   0  0  0  0  0  0  0  0  0  0  0  0
    8.3884    4.4196  -12.4030 C   0  0  0  0  0  0  0  0  0  0  0  0
    9.1595    4.8502  -11.1370 C   0  0  0  0  0  0  0  0  0  0  0  0
    9.1355    6.3634  -10.8301 C   0  0  0  0  0  0  0  0  0  0  0  0
    9.6532    7.2594  -11.9891 C   0  0  0  0  0  0  0  0  0  0  0  0
   11.1381    7.1315  -12.4002 C   0  0  0  0  0  0  0  0  0  0  0  0
   12.1406    7.7078  -11.3914 C   0  0  0  0  0  0  0  0  0  0  0  0
    9.7622    6.6506   -9.5374 N   0  0  0  0  0  0  0  0  0  0  0  0
    9.7266    7.8261   -8.8839 C   0  0  0  0  0  0  0  0  0  0  0  0
    9.2859    8.8733   -9.3579 O   0  0  0  0  0  0  0  0  0  0  0  0
   10.3149    7.8258   -7.5320 C   0  0  0  0  0  0  0  0  0  0  0  0
   10.7211    6.8295   -6.6833 C   0  0  0  0  0  0  0  0  0  0  0  0
   11.1743    7.4570   -5.4740 C   0  0  0  0  0  0  0  0  0  0  0  0
   11.6889    6.9929   -4.2419 C   0  0  0  0  0  0  0  0  0  0  0  0
   12.0882    7.8957   -3.2320 C   0  0  0  0  0  0  0  0  0  0  0  0
   11.9471    9.2839   -3.4237 C   0  0  0  0  0  0  0  0  0  0  0  0
   11.4050    9.7723   -4.6271 C   0  0  0  0  0  0  0  0  0  0  0  0
   11.0364    8.8661   -5.6364 C   0  0  0  0  0  0  0  0  0  0  0  0
   10.4991    9.0391   -6.8935 N   0  0  0  0  0  0  0  0  0  0  0  0
    6.3672    4.2190  -13.1901 H   0  0  0  0  0  0  0  0  0  0  0  0
    6.4683    4.0367  -11.4463 H   0  0  0  0  0  0  0  0  0  0  0  0
    6.5847    5.6380  -12.1781 H   0  0  0  0  0  0  0  0  0  0  0  0
    8.7630    4.9372  -13.2854 H   0  0  0  0  0  0  0  0  0  0  0  0
    8.6073    3.3724  -12.5970 H   0  0  0  0  0  0  0  0  0  0  0  0
   10.1806    4.5048  -11.2425 H   0  0  0  0  0  0  0  0  0  0  0  0
    8.7546    4.3127  -10.2794 H   0  0  0  0  0  0  0  0  0  0  0  0
    8.0862    6.5856  -10.6852 H   0  0  0  0  0  0  0  0  0  0  0  0
    9.0305    7.0328  -12.8511 H   0  0  0  0  0  0  0  0  0  0  0  0
    9.4347    8.3073  -11.7863 H   0  0  0  0  0  0  0  0  0  0  0  0
   11.3792    6.0974  -12.6427 H   0  0  0  0  0  0  0  0  0  0  0  0
   11.2857    7.6830  -13.3311 H   0  0  0  0  0  0  0  0  0  0  0  0
   13.1262    7.8073  -11.8470 H   0  0  0  0  0  0  0  0  0  0  0  0
   11.8427    8.6982  -11.0473 H   0  0  0  0  0  0  0  0  0  0  0  0
   12.2435    7.0673  -10.5174 H   0  0  0  0  0  0  0  0  0  0  0  0
   10.1638    5.8675   -9.0480 H   0  0  0  0  0  0  0  0  0  0  0  0
   10.6976    5.7705   -6.8747 H   0  0  0  0  0  0  0  0  0  0  0  0
   11.7919    5.9308   -4.0791 H   0  0  0  0  0  0  0  0  0  0  0  0
   12.4902    7.5201   -2.3028 H   0  0  0  0  0  0  0  0  0  0  0  0
   12.2442    9.9729   -2.6444 H   0  0  0  0  0  0  0  0  0  0  0  0
   11.2814   10.8349   -4.7766 H   0  0  0  0  0  0  0  0  0  0  0  0
   10.2414    9.9095   -7.3367 H   0  0  0  0  0  0  0  0  0  0  0  0
  2  1  1  0
  3  2  1  0
  4  3  1  0
  5  4  1  0
  6  5  1  0
  7  6  1  0
  8  4  1  0
  9  8  1  0
 10  9  2  0
 11  9  1  0
 12 11  2  0
 13 12  1  0
 14 13  2  0
 15 14  1  0
 16 15  2  0
 17 16  1  0
 18 13  1  0
 18 17  2  0
 19 11  1  0
 19 18  1  0
 20  1  1  0
 21  1  1  0
 22  1  1  0
 23  2  1  0
 24  2  1  0
 25  3  1  0
 26  3  1  0
 27  4  1  0
 28  5  1  0
 29  5  1  0
 30  6  1  0
 31  6  1  0
 32  7  1  0
 33  7  1  0
 34  7  1  0
 35  8  1  0
 36 12  1  0
 37 14  1  0
 38 15  1  0
 39 16  1  0
 40 17  1  0
 41 19  1  0
M  END
>  <b_m_subgroup_collapsed>  (1343) 
0

>  <r_i_docking_score>  (1343) 
-6.0793711370881098

>  <s_m_subgroup_title>  (1343) 
glide-dock_SP_D22_pv

>  <s_m_subgroupid>  (1343) 
glide-dock_SP_D22_pv

>  <Molecule ChEMBL ID>  (1343) 
CHEMBL4064919

>  <Standard Type>  (1343) 
Ki

>  <Standard Value>  (1343) 
13400.0

>  <label>  (1343) 
0

$$$$
CHEMBL382642
     RDKit          3D

 46 50  0  0  1  0  0  0  0  0999 V2000
   12.3409    5.9344  -14.4134 C   0  0  0  0  0  0  0  0  0  0  0  0
   11.3778    4.9145  -14.3507 C   0  0  0  0  0  0  0  0  0  0  0  0
   10.3753    4.9481  -13.3628 C   0  0  0  0  0  0  0  0  0  0  0  0
   10.3077    6.0011  -12.4136 C   0  0  0  0  0  0  0  0  0  0  0  0
    9.1496    6.1280  -11.3855 C   0  0  2  0  0  0  0  0  0  0  0  0
    8.3450    4.8081  -11.1785 C   0  0  0  0  0  0  0  0  0  0  0  0
    7.2522    4.4655  -12.2228 C   0  0  0  0  0  0  0  0  0  0  0  0
    6.4471    5.6945  -12.6346 C   0  0  0  0  0  0  0  0  0  0  0  0
    7.3962    6.8322  -13.0247 C   0  0  0  0  0  0  0  0  0  0  0  0
    8.1912    7.1887  -11.8469 N   0  0  2  0  0  0  0  0  0  0  0  0
    8.6886    8.5909  -11.8012 C   0  0  0  0  0  0  0  0  0  0  0  0
    8.9815    8.9754  -10.3295 C   0  0  0  0  0  0  0  0  0  0  0  0
    9.5540    7.8574   -9.5522 C   0  0  0  0  0  0  0  0  0  0  0  0
    9.6582    6.5859  -10.0315 C   0  0  0  0  0  0  0  0  0  0  0  0
   10.2626    5.8138   -9.0469 N   0  0  0  0  0  0  0  0  0  0  0  0
   10.5654    6.5858   -7.9331 C   0  0  0  0  0  0  0  0  0  0  0  0
   11.2310    6.3290   -6.7220 C   0  0  0  0  0  0  0  0  0  0  0  0
   11.2860    7.3172   -5.7219 C   0  0  0  0  0  0  0  0  0  0  0  0
   10.7292    8.5841   -5.9631 C   0  0  0  0  0  0  0  0  0  0  0  0
   10.1222    8.8494   -7.2040 C   0  0  0  0  0  0  0  0  0  0  0  0
   10.0433    7.8714   -8.2146 C   0  0  0  0  0  0  0  0  0  0  0  0
   11.3401    6.9723  -12.4511 C   0  0  0  0  0  0  0  0  0  0  0  0
   12.3240    6.9619  -13.4559 C   0  0  0  0  0  0  0  0  0  0  0  0
   13.1083    5.9143  -15.1736 H   0  0  0  0  0  0  0  0  0  0  0  0
   11.4040    4.1055  -15.0662 H   0  0  0  0  0  0  0  0  0  0  0  0
    9.6761    4.1335  -13.3630 H   0  0  0  0  0  0  0  0  0  0  0  0
    9.0343    3.9758  -11.0469 H   0  0  0  0  0  0  0  0  0  0  0  0
    7.8065    4.8954  -10.2336 H   0  0  0  0  0  0  0  0  0  0  0  0
    7.6621    4.0025  -13.1161 H   0  0  0  0  0  0  0  0  0  0  0  0
    6.5778    3.7185  -11.8022 H   0  0  0  0  0  0  0  0  0  0  0  0
    5.7692    5.4398  -13.4469 H   0  0  0  0  0  0  0  0  0  0  0  0
    5.8111    6.0148  -11.8073 H   0  0  0  0  0  0  0  0  0  0  0  0
    8.0572    6.5513  -13.8468 H   0  0  0  0  0  0  0  0  0  0  0  0
    6.8080    7.6934  -13.3468 H   0  0  0  0  0  0  0  0  0  0  0  0
    9.5440    8.7396  -12.4519 H   0  0  0  0  0  0  0  0  0  0  0  0
    7.9267    9.2740  -12.1783 H   0  0  0  0  0  0  0  0  0  0  0  0
    9.7023    9.7723  -10.2469 H   0  0  0  0  0  0  0  0  0  0  0  0
    8.0860    9.3704   -9.8479 H   0  0  0  0  0  0  0  0  0  0  0  0
   10.4738    4.8323   -9.1621 H   0  0  0  0  0  0  0  0  0  0  0  0
   11.6860    5.3723   -6.5462 H   0  0  0  0  0  0  0  0  0  0  0  0
   11.7690    7.1065   -4.7786 H   0  0  0  0  0  0  0  0  0  0  0  0
   10.7725    9.3507   -5.2032 H   0  0  0  0  0  0  0  0  0  0  0  0
    9.6862    9.8055   -7.4067 H   0  0  0  0  0  0  0  0  0  0  0  0
   11.3795    7.7663  -11.7206 H   0  0  0  0  0  0  0  0  0  0  0  0
   13.0848    7.7289  -13.4774 H   0  0  0  0  0  0  0  0  0  0  0  0
    7.4785    7.2507  -11.1072 H   0  0  0  0  0  0  0  0  0  0  0  0
  2  1  2  0
  3  2  1  0
  4  3  2  0
  5  4  1  6
  6  5  1  0
  7  6  1  0
  8  7  1  0
  9  8  1  0
 10  5  1  0
 10  9  1  0
 11 10  1  0
 12 11  1  0
 13 12  1  0
 14  5  1  0
 14 13  2  0
 15 14  1  0
 16 15  1  0
 17 16  2  0
 18 17  1  0
 19 18  2  0
 20 19  1  0
 21 13  1  0
 21 16  1  0
 21 20  2  0
 22  4  1  0
 23  1  1  0
 23 22  2  0
 24  1  1  0
 25  2  1  0
 26  3  1  0
 27  6  1  0
 28  6  1  0
 29  7  1  0
 30  7  1  0
 31  8  1  0
 32  8  1  0
 33  9  1  0
 34  9  1  0
 35 11  1  0
 36 11  1  0
 37 12  1  0
 38 12  1  0
 39 15  1  0
 40 17  1  0
 41 18  1  0
 42 19  1  0
 43 20  1  0
 44 22  1  0
 45 23  1  0
 10 46  1  1
M  CHG  1  10   1
M  END
>  <b_m_subgroup_collapsed>  (1344) 
0

>  <r_i_docking_score>  (1344) 
-6.07737165437503

>  <s_m_subgroup_title>  (1344) 
glide-dock_SP_D22_pv

>  <s_m_subgroupid>  (1344) 
glide-dock_SP_D22_pv

>  <Molecule ChEMBL ID>  (1344) 
CHEMBL382642

>  <Standard Type>  (1344) 
Ki

>  <Standard Value>  (1344) 
10000.0

>  <label>  (1344) 
0

$$$$
CHEMBL241082
     RDKit          3D

 41 44  0  0  1  0  0  0  0  0999 V2000
    7.1857    1.1605  -15.2498 C   0  0  0  0  0  0  0  0  0  0  0  0
    8.1931    2.0511  -14.7986 O   0  0  0  0  0  0  0  0  0  0  0  0
    7.8185    3.1077  -13.9972 C   0  0  0  0  0  0  0  0  0  0  0  0
    6.4865    3.3785  -13.5966 C   0  0  0  0  0  0  0  0  0  0  0  0
    6.2060    4.4788  -12.7629 C   0  0  0  0  0  0  0  0  0  0  0  0
    7.2423    5.3207  -12.3181 C   0  0  0  0  0  0  0  0  0  0  0  0
    8.5756    5.0503  -12.6942 C   0  0  0  0  0  0  0  0  0  0  0  0
    9.7007    5.8970  -12.2255 C   0  0  0  0  0  0  0  0  0  0  0  0
   10.6464    6.1723  -13.0469 N   0  0  0  0  0  0  0  0  0  0  0  0
   11.8764    6.8932  -12.6639 C   0  0  0  0  0  0  0  0  0  0  0  0
   11.8656    7.6652  -11.3069 C   0  0  0  0  0  0  0  0  0  0  0  0
   10.8047    7.1734  -10.3992 C   0  0  0  0  0  0  0  0  0  0  0  0
    9.8086    6.3700  -10.8530 C   0  0  0  0  0  0  0  0  0  0  0  0
    8.9786    6.0245   -9.8017 N   0  0  0  0  0  0  0  0  0  0  0  0
    9.4340    6.6184   -8.6391 C   0  0  0  0  0  0  0  0  0  0  0  0
    8.9812    6.5723   -7.3168 C   0  0  0  0  0  0  0  0  0  0  0  0
    9.6871    7.2769   -6.3300 C   0  0  0  0  0  0  0  0  0  0  0  0
   10.8050    8.0704   -6.6489 C   0  0  0  0  0  0  0  0  0  0  0  0
   11.4025    8.7526   -5.6121 O   0  0  0  0  0  0  0  0  0  0  0  0
   12.3521    9.7584   -5.9320 C   0  0  0  0  0  0  0  0  0  0  0  0
   11.2491    8.1122   -7.9928 C   0  0  0  0  0  0  0  0  0  0  0  0
   10.5868    7.3763   -9.0027 C   0  0  0  0  0  0  0  0  0  0  0  0
    8.8484    3.9512  -13.5394 C   0  0  0  0  0  0  0  0  0  0  0  0
    7.6473    0.3529  -15.8175 H   0  0  0  0  0  0  0  0  0  0  0  0
    6.4862    1.6709  -15.9113 H   0  0  0  0  0  0  0  0  0  0  0  0
    6.6429    0.7082  -14.4191 H   0  0  0  0  0  0  0  0  0  0  0  0
    5.6636    2.7574  -13.9142 H   0  0  0  0  0  0  0  0  0  0  0  0
    5.1910    4.6775  -12.4588 H   0  0  0  0  0  0  0  0  0  0  0  0
    7.0024    6.1685  -11.6902 H   0  0  0  0  0  0  0  0  0  0  0  0
   12.6872    6.1671  -12.6468 H   0  0  0  0  0  0  0  0  0  0  0  0
   12.1502    7.5862  -13.4599 H   0  0  0  0  0  0  0  0  0  0  0  0
   12.8401    7.5918  -10.8268 H   0  0  0  0  0  0  0  0  0  0  0  0
   11.7217    8.7261  -11.4466 H   0  0  0  0  0  0  0  0  0  0  0  0
    8.1427    5.4654   -9.9007 H   0  0  0  0  0  0  0  0  0  0  0  0
    8.0987    6.0047   -7.0600 H   0  0  0  0  0  0  0  0  0  0  0  0
    9.3521    7.2112   -5.3134 H   0  0  0  0  0  0  0  0  0  0  0  0
   12.7433   10.1722   -5.0050 H   0  0  0  0  0  0  0  0  0  0  0  0
   11.8915   10.5687   -6.4984 H   0  0  0  0  0  0  0  0  0  0  0  0
   13.2037    9.3724   -6.4896 H   0  0  0  0  0  0  0  0  0  0  0  0
   12.1118    8.6911   -8.2836 H   0  0  0  0  0  0  0  0  0  0  0  0
    9.8653    3.7337  -13.8337 H   0  0  0  0  0  0  0  0  0  0  0  0
  2  1  1  0
  3  2  1  0
  4  3  1  0
  5  4  2  0
  6  5  1  0
  7  6  2  0
  8  7  1  0
  9  8  2  0
 10  9  1  0
 11 10  1  0
 12 11  1  0
 13  8  1  0
 13 12  2  0
 14 13  1  0
 15 14  1  0
 16 15  2  0
 17 16  1  0
 18 17  2  0
 19 18  1  0
 20 19  1  0
 21 18  1  0
 22 12  1  0
 22 15  1  0
 22 21  2  0
 23  3  2  0
 23  7  1  0
 24  1  1  0
 25  1  1  0
 26  1  1  0
 27  4  1  0
 28  5  1  0
 29  6  1  0
 30 10  1  0
 31 10  1  0
 32 11  1  0
 33 11  1  0
 34 14  1  0
 35 16  1  0
 36 17  1  0
 37 20  1  0
 38 20  1  0
 39 20  1  0
 40 21  1  0
 41 23  1  0
M  END
>  <b_m_subgroup_collapsed>  (1345) 
0

>  <r_i_docking_score>  (1345) 
-6.0591885718688996

>  <s_m_subgroup_title>  (1345) 
glide-dock_SP_D22_pv

>  <s_m_subgroupid>  (1345) 
glide-dock_SP_D22_pv

>  <Molecule ChEMBL ID>  (1345) 
CHEMBL241082

>  <Standard Type>  (1345) 
Ki

>  <Standard Value>  (1345) 
25000.0

>  <label>  (1345) 
0

$$$$
CHEMBL397103
     RDKit          3D

 43 44  0  0  1  0  0  0  0  0999 V2000
   11.6452    8.9724   -8.0688 C   0  0  0  0  0  0  0  0  0  0  0  0
   10.9786    8.6582   -9.1907 C   0  0  0  0  0  0  0  0  0  0  0  0
    9.4645    8.6470   -9.3304 C   0  0  0  0  0  0  0  0  0  0  0  0
    8.8874    7.2767   -9.3772 N   0  0  2  0  0  0  0  0  0  0  0  0
    8.8750    6.5767   -8.0784 C   0  0  0  0  0  0  0  0  0  0  0  0
    8.6864    5.0990   -8.4112 C   0  0  0  0  0  0  0  0  0  0  0  0
    8.9281    4.9622   -9.9155 C   0  0  0  0  0  0  0  0  0  0  0  0
    9.4466    6.3304  -10.3657 C   0  0  1  0  0  0  0  0  0  0  0  0
    9.0726    6.6864  -11.8162 C   0  0  0  0  0  0  0  0  0  0  0  0
    9.7109    5.7738  -12.7559 N   0  0  0  0  0  0  0  0  0  0  0  0
    9.1100    4.7833  -13.4299 C   0  0  0  0  0  0  0  0  0  0  0  0
    7.9270    4.4838  -13.2753 O   0  0  0  0  0  0  0  0  0  0  0  0
    9.9922    3.9877  -14.3578 C   0  0  0  0  0  0  0  0  0  0  0  0
    9.7263    2.6080  -14.5009 C   0  0  0  0  0  0  0  0  0  0  0  0
   10.4851    1.8144  -15.3779 C   0  0  0  0  0  0  0  0  0  0  0  0
   10.0853   -0.2271  -15.5491 I   0  0  0  0  0  0  0  0  0  0  0  0
   11.5182    2.3961  -16.1309 C   0  0  0  0  0  0  0  0  0  0  0  0
   11.7999    3.7658  -15.9955 C   0  0  0  0  0  0  0  0  0  0  0  0
   11.0434    4.5823  -15.1160 C   0  0  0  0  0  0  0  0  0  0  0  0
   11.2867    5.9352  -14.9706 O   0  0  0  0  0  0  0  0  0  0  0  0
   12.3508    6.5293  -15.7017 C   0  0  0  0  0  0  0  0  0  0  0  0
   11.1246    9.2445   -7.1593 H   0  0  0  0  0  0  0  0  0  0  0  0
   12.7240    8.9613   -8.0451 H   0  0  0  0  0  0  0  0  0  0  0  0
   11.5455    8.3904  -10.0729 H   0  0  0  0  0  0  0  0  0  0  0  0
    9.0082    9.1921   -8.5038 H   0  0  0  0  0  0  0  0  0  0  0  0
    9.1910    9.1880  -10.2371 H   0  0  0  0  0  0  0  0  0  0  0  0
    9.8276    6.7120   -7.5632 H   0  0  0  0  0  0  0  0  0  0  0  0
    8.0867    6.9567   -7.4234 H   0  0  0  0  0  0  0  0  0  0  0  0
    9.3841    4.4936   -7.8472 H   0  0  0  0  0  0  0  0  0  0  0  0
    7.6866    4.7667   -8.1427 H   0  0  0  0  0  0  0  0  0  0  0  0
    9.6415    4.1717  -10.1475 H   0  0  0  0  0  0  0  0  0  0  0  0
    7.9882    4.7197  -10.4103 H   0  0  0  0  0  0  0  0  0  0  0  0
   10.5321    6.3145  -10.2629 H   0  0  0  0  0  0  0  0  0  0  0  0
    7.9871    6.6958  -11.9443 H   0  0  0  0  0  0  0  0  0  0  0  0
    9.4170    7.6898  -12.0608 H   0  0  0  0  0  0  0  0  0  0  0  0
   10.6775    5.9499  -12.9960 H   0  0  0  0  0  0  0  0  0  0  0  0
    8.9335    2.1434  -13.9306 H   0  0  0  0  0  0  0  0  0  0  0  0
   12.1054    1.7850  -16.7984 H   0  0  0  0  0  0  0  0  0  0  0  0
   12.6056    4.1665  -16.5905 H   0  0  0  0  0  0  0  0  0  0  0  0
   12.4004    7.5905  -15.4554 H   0  0  0  0  0  0  0  0  0  0  0  0
   13.3121    6.0846  -15.4391 H   0  0  0  0  0  0  0  0  0  0  0  0
   12.1914    6.4493  -16.7784 H   0  0  0  0  0  0  0  0  0  0  0  0
    7.9014    7.3879   -9.6360 H   0  0  0  0  0  0  0  0  0  0  0  0
  2  1  2  0
  3  2  1  0
  4  3  1  0
  5  4  1  0
  6  5  1  0
  7  6  1  0
  8  4  1  0
  8  7  1  0
  9  8  1  0
 10  9  1  0
 11 10  1  0
 12 11  2  0
 13 11  1  0
 14 13  1  0
 15 14  2  0
 16 15  1  0
 17 15  1  0
 18 17  2  0
 19 13  2  0
 19 18  1  0
 20 19  1  0
 21 20  1  0
 22  1  1  0
 23  1  1  0
 24  2  1  0
 25  3  1  0
 26  3  1  0
 27  5  1  0
 28  5  1  0
 29  6  1  0
 30  6  1  0
 31  7  1  0
 32  7  1  0
  8 33  1  6
 34  9  1  0
 35  9  1  0
 36 10  1  0
 37 14  1  0
 38 17  1  0
 39 18  1  0
 40 21  1  0
 41 21  1  0
 42 21  1  0
  4 43  1  6
M  CHG  1   4   1
M  END
>  <b_m_subgroup_collapsed>  (1346) 
0

>  <r_i_docking_score>  (1346) 
-6.0523546277001099

>  <s_m_subgroup_title>  (1346) 
glide-dock_SP_D22_pv

>  <s_m_subgroupid>  (1346) 
glide-dock_SP_D22_pv

>  <Molecule ChEMBL ID>  (1346) 
CHEMBL397103

>  <Standard Type>  (1346) 
Ki

>  <Standard Value>  (1346) 
14.0

>  <label>  (1346) 
1

$$$$
CHEMBL4524906
     RDKit          3D

 54 58  0  0  1  0  0  0  0  0999 V2000
   12.4468    8.7866   -7.6718 C   0  0  0  0  0  0  0  0  0  0  0  0
   10.9895    8.6187   -7.2447 C   0  0  0  0  0  0  0  0  0  0  0  0
   10.6435    9.1554   -6.1923 O   0  0  0  0  0  0  0  0  0  0  0  0
   10.1394    7.8792   -8.0032 N   0  0  0  0  0  0  0  0  0  0  0  0
    8.9210    7.3538   -7.3703 C   0  0  0  0  0  0  0  0  0  0  0  0
    8.6689    5.9066   -7.8223 C   0  0  0  0  0  0  0  0  0  0  0  0
    8.6196    5.7796   -9.3482 C   0  0  0  0  0  0  0  0  0  0  0  0
    9.6457    6.5788  -10.0258 N   0  0  0  0  0  0  0  0  0  0  0  0
   10.3434    7.5231   -9.3800 C   0  0  0  0  0  0  0  0  0  0  0  0
   11.2444    8.0236  -10.2306 N   0  0  0  0  0  0  0  0  0  0  0  0
   11.1741    7.3724  -11.4332 C   0  0  0  0  0  0  0  0  0  0  0  0
   12.1992    7.6149  -12.4989 C   0  0  0  0  0  0  0  0  0  0  0  0
   10.0904    6.5159  -11.3316 C   0  0  0  0  0  0  0  0  0  0  0  0
    9.6865    5.5911  -12.4101 C   0  0  0  0  0  0  0  0  0  0  0  0
   10.5328    5.0460  -13.3433 C   0  0  0  0  0  0  0  0  0  0  0  0
    9.8732    4.1724  -14.1833 N   0  0  0  0  0  0  0  0  0  0  0  0
   10.6611    3.3607  -15.4816 S   0  0  0  0  0  0  0  0  0  0  0  0
    9.9400    2.0969  -15.6962 O   0  0  0  0  0  0  0  0  0  0  0  0
   12.0859    3.3723  -15.1228 O   0  0  0  0  0  0  0  0  0  0  0  0
   10.4313    4.4490  -16.8838 C   0  0  0  0  0  0  0  0  0  0  0  0
    9.4437    4.1659  -17.8477 C   0  0  0  0  0  0  0  0  0  0  0  0
    9.2846    5.0274  -18.9515 C   0  0  0  0  0  0  0  0  0  0  0  0
   10.1130    6.1586  -19.0929 C   0  0  0  0  0  0  0  0  0  0  0  0
   11.1098    6.4288  -18.1344 C   0  0  0  0  0  0  0  0  0  0  0  0
   11.2666    5.5767  -17.0231 C   0  0  0  0  0  0  0  0  0  0  0  0
    8.5501    4.0807  -13.7918 C   0  0  0  0  0  0  0  0  0  0  0  0
    7.4771    3.2875  -14.2465 C   0  0  0  0  0  0  0  0  0  0  0  0
    6.2066    3.4395  -13.6684 C   0  0  0  0  0  0  0  0  0  0  0  0
    6.0028    4.4238  -12.6892 C   0  0  0  0  0  0  0  0  0  0  0  0
    7.0737    5.2207  -12.2477 C   0  0  0  0  0  0  0  0  0  0  0  0
    8.3905    5.0339  -12.7340 C   0  0  0  0  0  0  0  0  0  0  0  0
   12.8968    7.8109   -7.8504 H   0  0  0  0  0  0  0  0  0  0  0  0
   12.5413    9.3723   -8.5768 H   0  0  0  0  0  0  0  0  0  0  0  0
   13.0157    9.2986   -6.8949 H   0  0  0  0  0  0  0  0  0  0  0  0
    8.0869    8.0016   -7.6381 H   0  0  0  0  0  0  0  0  0  0  0  0
    8.9693    7.3589   -6.2796 H   0  0  0  0  0  0  0  0  0  0  0  0
    7.7407    5.5324   -7.3880 H   0  0  0  0  0  0  0  0  0  0  0  0
    9.4743    5.2781   -7.4470 H   0  0  0  0  0  0  0  0  0  0  0  0
    7.6697    6.1714   -9.6659 H   0  0  0  0  0  0  0  0  0  0  0  0
    8.6927    4.7419   -9.6738 H   0  0  0  0  0  0  0  0  0  0  0  0
   11.7203    7.7724  -13.4656 H   0  0  0  0  0  0  0  0  0  0  0  0
   12.8364    8.4677  -12.2526 H   0  0  0  0  0  0  0  0  0  0  0  0
   12.8594    6.7530  -12.5839 H   0  0  0  0  0  0  0  0  0  0  0  0
   11.5929    5.1888  -13.4793 H   0  0  0  0  0  0  0  0  0  0  0  0
    8.8119    3.2965  -17.7430 H   0  0  0  0  0  0  0  0  0  0  0  0
    8.5241    4.8210  -19.6902 H   0  0  0  0  0  0  0  0  0  0  0  0
    9.9866    6.8161  -19.9409 H   0  0  0  0  0  0  0  0  0  0  0  0
   11.7451    7.2951  -18.2474 H   0  0  0  0  0  0  0  0  0  0  0  0
   12.0273    5.7853  -16.2852 H   0  0  0  0  0  0  0  0  0  0  0  0
    7.6197    2.5548  -15.0259 H   0  0  0  0  0  0  0  0  0  0  0  0
    5.3842    2.8192  -13.9876 H   0  0  0  0  0  0  0  0  0  0  0  0
    5.0223    4.5696  -12.2641 H   0  0  0  0  0  0  0  0  0  0  0  0
    6.8623    5.9889  -11.5231 H   0  0  0  0  0  0  0  0  0  0  0  0
   11.9194    8.7425   -9.9997 H   0  0  0  0  0  0  0  0  0  0  0  0
  2  1  1  0
  3  2  2  0
  4  2  1  0
  5  4  1  0
  6  5  1  0
  7  6  1  0
  8  7  1  0
  9  4  1  0
  9  8  1  0
 10  9  2  0
 11 10  1  0
 12 11  1  0
 13  8  1  0
 13 11  2  0
 14 13  1  0
 15 14  2  0
 16 15  1  0
 17 16  1  0
 18 17  2  0
 19 17  2  0
 20 17  1  0
 21 20  2  0
 22 21  1  0
 23 22  2  0
 24 23  1  0
 25 20  1  0
 25 24  2  0
 26 16  1  0
 27 26  2  0
 28 27  1  0
 29 28  2  0
 30 29  1  0
 31 14  1  0
 31 26  1  0
 31 30  2  0
 32  1  1  0
 33  1  1  0
 34  1  1  0
 35  5  1  0
 36  5  1  0
 37  6  1  0
 38  6  1  0
 39  7  1  0
 40  7  1  0
 41 12  1  0
 42 12  1  0
 43 12  1  0
 44 15  1  0
 45 21  1  0
 46 22  1  0
 47 23  1  0
 48 24  1  0
 49 25  1  0
 50 27  1  0
 51 28  1  0
 52 29  1  0
 53 30  1  0
 54 10  1  0
M  CHG  1  10   1
M  END
>  <b_m_subgroup_collapsed>  (1347) 
0

>  <r_i_docking_score>  (1347) 
-6.0457464292483998

>  <s_m_subgroup_title>  (1347) 
glide-dock_SP_D22_pv

>  <s_m_subgroupid>  (1347) 
glide-dock_SP_D22_pv

>  <Molecule ChEMBL ID>  (1347) 
CHEMBL4524906

>  <Standard Type>  (1347) 
Ki

>  <Standard Value>  (1347) 
10000.0

>  <label>  (1347) 
0

$$$$
CHEMBL592752
     RDKit          3D

 48 51  0  0  1  0  0  0  0  0999 V2000
   12.7106    3.8193  -16.3822 C   0  0  0  0  0  0  0  0  0  0  0  0
   11.9301    4.4899  -15.2687 C   0  0  0  0  0  0  0  0  0  0  0  0
   12.4863    5.5760  -14.5633 C   0  0  0  0  0  0  0  0  0  0  0  0
   11.7521    6.2061  -13.5407 C   0  0  0  0  0  0  0  0  0  0  0  0
   10.4520    5.7595  -13.2400 C   0  0  0  0  0  0  0  0  0  0  0  0
    9.8652    4.6600  -13.9413 C   0  0  0  0  0  0  0  0  0  0  0  0
   10.6354    4.0333  -14.9486 C   0  0  0  0  0  0  0  0  0  0  0  0
    8.5502    4.4613  -13.4112 C   0  0  0  0  0  0  0  0  0  0  0  0
    8.3562    5.4337  -12.4788 C   0  0  0  0  0  0  0  0  0  0  0  0
    9.5091    6.1920  -12.3126 N   0  0  0  0  0  0  0  0  0  0  0  0
    9.6909    7.2408  -11.3162 C   0  0  0  0  0  0  0  0  0  0  0  0
   10.4865    6.6921  -10.1232 C   0  0  0  0  0  0  0  0  0  0  0  0
   10.4647    7.5528   -8.8790 C   0  0  0  0  0  0  0  0  0  0  0  0
    9.3100    7.5781   -8.0723 C   0  0  0  0  0  0  0  0  0  0  0  0
    9.3134    8.2933   -6.8621 C   0  0  0  0  0  0  0  0  0  0  0  0
   10.4713    8.9820   -6.4520 C   0  0  0  0  0  0  0  0  0  0  0  0
   11.6214    8.9720   -7.2633 C   0  0  0  0  0  0  0  0  0  0  0  0
   11.6180    8.2611   -8.4785 C   0  0  0  0  0  0  0  0  0  0  0  0
    7.0939    5.5993  -11.7134 C   0  0  0  0  0  0  0  0  0  0  0  0
    5.9624    4.7002  -12.2405 C   0  0  0  0  0  0  0  0  0  0  0  0
    6.4838    3.3724  -12.6466 N   0  0  1  0  0  0  0  0  0  0  0  0
    5.4239    2.3882  -12.9461 C   0  0  0  0  0  0  0  0  0  0  0  0
    7.4980    3.4474  -13.7342 C   0  0  0  0  0  0  0  0  0  0  0  0
   13.7375    4.1816  -16.4250 H   0  0  0  0  0  0  0  0  0  0  0  0
   12.7385    2.7397  -16.2387 H   0  0  0  0  0  0  0  0  0  0  0  0
   12.2382    4.0198  -17.3451 H   0  0  0  0  0  0  0  0  0  0  0  0
   13.4806    5.9280  -14.8025 H   0  0  0  0  0  0  0  0  0  0  0  0
   12.1863    7.0339  -13.0009 H   0  0  0  0  0  0  0  0  0  0  0  0
   10.2172    3.1996  -15.4931 H   0  0  0  0  0  0  0  0  0  0  0  0
    8.7131    7.5959  -10.9906 H   0  0  0  0  0  0  0  0  0  0  0  0
   10.1957    8.0945  -11.7698 H   0  0  0  0  0  0  0  0  0  0  0  0
   11.5245    6.5748  -10.4206 H   0  0  0  0  0  0  0  0  0  0  0  0
   10.1187    5.6998   -9.8503 H   0  0  0  0  0  0  0  0  0  0  0  0
    8.4288    7.0323   -8.3696 H   0  0  0  0  0  0  0  0  0  0  0  0
    8.4251    8.3008   -6.2490 H   0  0  0  0  0  0  0  0  0  0  0  0
   10.4743    9.5246   -5.5174 H   0  0  0  0  0  0  0  0  0  0  0  0
   12.5097    9.5024   -6.9518 H   0  0  0  0  0  0  0  0  0  0  0  0
   12.5098    8.2445   -9.0877 H   0  0  0  0  0  0  0  0  0  0  0  0
    7.2855    5.4327  -10.6524 H   0  0  0  0  0  0  0  0  0  0  0  0
    6.7481    6.6143  -11.8470 H   0  0  0  0  0  0  0  0  0  0  0  0
    5.4850    5.1688  -13.1040 H   0  0  0  0  0  0  0  0  0  0  0  0
    5.2041    4.6011  -11.4578 H   0  0  0  0  0  0  0  0  0  0  0  0
    4.8865    2.6772  -13.8463 H   0  0  0  0  0  0  0  0  0  0  0  0
    5.8570    1.4004  -13.1111 H   0  0  0  0  0  0  0  0  0  0  0  0
    4.7165    2.3036  -12.1220 H   0  0  0  0  0  0  0  0  0  0  0  0
    6.9871    3.7295  -14.6466 H   0  0  0  0  0  0  0  0  0  0  0  0
    7.9473    2.4670  -13.8946 H   0  0  0  0  0  0  0  0  0  0  0  0
    6.9744    3.0262  -11.8322 H   0  0  0  0  0  0  0  0  0  0  0  0
  2  1  1  0
  3  2  2  0
  4  3  1  0
  5  4  2  0
  6  5  1  0
  7  2  1  0
  7  6  2  0
  8  6  1  0
  9  8  2  0
 10  5  1  0
 10  9  1  0
 11 10  1  0
 12 11  1  0
 13 12  1  0
 14 13  2  0
 15 14  1  0
 16 15  2  0
 17 16  1  0
 18 13  1  0
 18 17  2  0
 19  9  1  0
 20 19  1  0
 21 20  1  0
 22 21  1  0
 23  8  1  0
 23 21  1  0
 24  1  1  0
 25  1  1  0
 26  1  1  0
 27  3  1  0
 28  4  1  0
 29  7  1  0
 30 11  1  0
 31 11  1  0
 32 12  1  0
 33 12  1  0
 34 14  1  0
 35 15  1  0
 36 16  1  0
 37 17  1  0
 38 18  1  0
 39 19  1  0
 40 19  1  0
 41 20  1  0
 42 20  1  0
 43 22  1  0
 44 22  1  0
 45 22  1  0
 46 23  1  0
 47 23  1  0
 21 48  1  1
M  CHG  1  21   1
M  END
>  <b_m_subgroup_collapsed>  (1348) 
0

>  <r_i_docking_score>  (1348) 
-6.0445479093535699

>  <s_m_subgroup_title>  (1348) 
glide-dock_SP_D22_pv

>  <s_m_subgroupid>  (1348) 
glide-dock_SP_D22_pv

>  <Molecule ChEMBL ID>  (1348) 
CHEMBL592752

>  <Standard Type>  (1348) 
Ki

>  <Standard Value>  (1348) 
85.11

>  <label>  (1348) 
1

$$$$
CHEMBL1626
     RDKit          3D

 51 53  0  0  1  0  0  0  0  0999 V2000
    9.2977    8.3747  -10.0105 C   0  0  0  0  0  0  0  0  0  0  0  0
    8.8866    7.4815   -8.9070 N   0  0  2  0  0  0  0  0  0  0  0  0
    9.6636    7.6090   -7.6567 C   0  0  0  0  0  0  0  0  0  0  0  0
    9.7085    6.2091   -7.0384 C   0  0  0  0  0  0  0  0  0  0  0  0
    8.6715    5.4042   -7.8235 C   0  0  0  0  0  0  0  0  0  0  0  0
    8.6729    6.0426   -9.1976 C   0  0  2  0  0  0  0  0  0  0  0  0
    9.7245    5.3891  -10.1187 C   0  0  0  0  0  0  0  0  0  0  0  0
    9.3654    5.5512  -11.5946 C   0  0  0  0  0  0  0  0  0  0  0  0
    9.8644    4.4860  -12.4039 O   0  0  0  0  0  0  0  0  0  0  0  0
    9.5688    4.5182  -13.8160 C   0  0  2  0  0  0  0  0  0  0  0  0
    8.2899    5.3514  -14.0936 C   0  0  0  0  0  0  0  0  0  0  0  0
    9.3922    3.0616  -14.3009 C   0  0  0  0  0  0  0  0  0  0  0  0
    8.1161    2.4903  -14.5470 C   0  0  0  0  0  0  0  0  0  0  0  0
    7.9896    1.1698  -15.0163 C   0  0  0  0  0  0  0  0  0  0  0  0
    9.1340    0.3906  -15.2575 C   0  0  0  0  0  0  0  0  0  0  0  0
   10.4046    0.9388  -15.0156 C   0  0  0  0  0  0  0  0  0  0  0  0
   10.5306    2.2521  -14.5248 C   0  0  0  0  0  0  0  0  0  0  0  0
   10.6924    5.1989  -14.6161 C   0  0  0  0  0  0  0  0  0  0  0  0
   11.7206    5.9346  -13.9814 C   0  0  0  0  0  0  0  0  0  0  0  0
   12.6900    6.6136  -14.7458 C   0  0  0  0  0  0  0  0  0  0  0  0
   12.6612    6.5478  -16.1504 C   0  0  0  0  0  0  0  0  0  0  0  0
   13.8567    7.3683  -17.0828 Cl  0  0  0  0  0  0  0  0  0  0  0  0
   11.6602    5.7981  -16.7923 C   0  0  0  0  0  0  0  0  0  0  0  0
   10.6801    5.1363  -16.0320 C   0  0  0  0  0  0  0  0  0  0  0  0
   10.3183    8.1674  -10.3347 H   0  0  0  0  0  0  0  0  0  0  0  0
    8.6193    8.2782  -10.8607 H   0  0  0  0  0  0  0  0  0  0  0  0
    9.2613    9.4140   -9.6793 H   0  0  0  0  0  0  0  0  0  0  0  0
    9.1685    8.3239   -6.9963 H   0  0  0  0  0  0  0  0  0  0  0  0
   10.6764    7.9730   -7.8463 H   0  0  0  0  0  0  0  0  0  0  0  0
    9.4987    6.2260   -5.9679 H   0  0  0  0  0  0  0  0  0  0  0  0
   10.7021    5.7754   -7.1730 H   0  0  0  0  0  0  0  0  0  0  0  0
    7.6887    5.5434   -7.3643 H   0  0  0  0  0  0  0  0  0  0  0  0
    8.8761    4.3333   -7.8477 H   0  0  0  0  0  0  0  0  0  0  0  0
    7.6849    5.9039   -9.6241 H   0  0  0  0  0  0  0  0  0  0  0  0
    9.7563    4.3194   -9.9141 H   0  0  0  0  0  0  0  0  0  0  0  0
   10.7182    5.7719   -9.8900 H   0  0  0  0  0  0  0  0  0  0  0  0
    9.7116    6.5117  -11.9685 H   0  0  0  0  0  0  0  0  0  0  0  0
    8.2806    5.5523  -11.6471 H   0  0  0  0  0  0  0  0  0  0  0  0
    8.0937    5.3746  -15.1477 H   0  0  0  0  0  0  0  0  0  0  0  0
    7.4016    4.9748  -13.5858 H   0  0  0  0  0  0  0  0  0  0  0  0
    8.3910    6.3966  -13.8172 H   0  0  0  0  0  0  0  0  0  0  0  0
    7.2038    3.0386  -14.3832 H   0  0  0  0  0  0  0  0  0  0  0  0
    7.0103    0.7502  -15.1968 H   0  0  0  0  0  0  0  0  0  0  0  0
    9.0377   -0.6249  -15.6168 H   0  0  0  0  0  0  0  0  0  0  0  0
   11.2850    0.3419  -15.1891 H   0  0  0  0  0  0  0  0  0  0  0  0
   11.5193    2.6414  -14.3317 H   0  0  0  0  0  0  0  0  0  0  0  0
   11.7761    5.9989  -12.9078 H   0  0  0  0  0  0  0  0  0  0  0  0
   13.4660    7.1764  -14.2484 H   0  0  0  0  0  0  0  0  0  0  0  0
   11.6385    5.7456  -17.8711 H   0  0  0  0  0  0  0  0  0  0  0  0
    9.9073    4.5821  -16.5458 H   0  0  0  0  0  0  0  0  0  0  0  0
    7.9384    7.7737   -8.6861 H   0  0  0  0  0  0  0  0  0  0  0  0
  2  1  1  0
  3  2  1  0
  4  3  1  0
  5  4  1  0
  6  2  1  0
  6  5  1  0
  7  6  1  0
  8  7  1  0
  9  8  1  0
 10  9  1  1
 11 10  1  0
 12 10  1  0
 13 12  2  0
 14 13  1  0
 15 14  2  0
 16 15  1  0
 17 12  1  0
 17 16  2  0
 18 10  1  0
 19 18  1  0
 20 19  2  0
 21 20  1  0
 22 21  1  0
 23 21  2  0
 24 18  2  0
 24 23  1  0
 25  1  1  0
 26  1  1  0
 27  1  1  0
 28  3  1  0
 29  3  1  0
 30  4  1  0
 31  4  1  0
 32  5  1  0
 33  5  1  0
  6 34  1  6
 35  7  1  0
 36  7  1  0
 37  8  1  0
 38  8  1  0
 39 11  1  0
 40 11  1  0
 41 11  1  0
 42 13  1  0
 43 14  1  0
 44 15  1  0
 45 16  1  0
 46 17  1  0
 47 19  1  0
 48 20  1  0
 49 23  1  0
 50 24  1  0
  2 51  1  1
M  CHG  1   2   1
M  END
>  <b_m_subgroup_collapsed>  (1349) 
0

>  <r_i_docking_score>  (1349) 
-6.0439939777945497

>  <s_m_subgroup_title>  (1349) 
glide-dock_SP_D22_pv

>  <s_m_subgroupid>  (1349) 
glide-dock_SP_D22_pv

>  <Molecule ChEMBL ID>  (1349) 
CHEMBL1626

>  <Standard Type>  (1349) 
Ki

>  <Standard Value>  (1349) 
45.0

>  <label>  (1349) 
1

$$$$
CHEMBL570998
     RDKit          3D

 52 54  0  0  1  0  0  0  0  0999 V2000
    9.2695    6.8697   -7.4890 C   0  0  0  0  0  0  0  0  0  0  0  0
    9.6623    7.3891   -8.8896 C   0  0  0  0  0  0  0  0  0  0  0  0
    9.5294    8.9248   -8.9040 C   0  0  0  0  0  0  0  0  0  0  0  0
    8.8860    6.7677  -10.0107 N   0  0  0  0  0  0  0  0  0  0  0  0
    8.6031    5.3149   -9.8600 C   0  0  0  0  0  0  0  0  0  0  0  0
    7.7159    4.8144  -11.0202 C   0  0  0  0  0  0  0  0  0  0  0  0
    8.3738    4.9885  -12.3088 N   0  0  0  0  0  0  0  0  0  0  0  0
    9.5332    4.1158  -12.5085 C   0  0  0  0  0  0  0  0  0  0  0  0
    9.8317    3.8995  -14.0065 C   0  0  0  0  0  0  0  0  0  0  0  0
    9.3736    2.5888  -14.4669 N   0  0  0  0  0  0  0  0  0  0  0  0
   10.3172    1.5736  -14.8939 C   0  0  0  0  0  0  0  0  0  0  0  0
    9.4078    0.4855  -15.4613 C   0  0  0  0  0  0  0  0  0  0  0  0
    8.0709    0.9730  -15.1498 N   0  0  0  0  0  0  0  0  0  0  0  0
    6.8870    0.2905  -15.5475 C   0  0  0  0  0  0  0  0  0  0  0  0
    6.7783   -0.2276  -16.8580 C   0  0  0  0  0  0  0  0  0  0  0  0
    5.6033   -0.8882  -17.2680 C   0  0  0  0  0  0  0  0  0  0  0  0
    4.5236   -1.0277  -16.3761 C   0  0  0  0  0  0  0  0  0  0  0  0
    4.6252   -0.5119  -15.0709 C   0  0  0  0  0  0  0  0  0  0  0  0
    3.2860   -0.6278  -13.9965 Cl  0  0  0  0  0  0  0  0  0  0  0  0
    5.8068    0.1262  -14.6464 C   0  0  0  0  0  0  0  0  0  0  0  0
    5.8974    0.5714  -13.3682 F   0  0  0  0  0  0  0  0  0  0  0  0
    8.0961    2.2206  -14.6470 C   0  0  0  0  0  0  0  0  0  0  0  0
    7.1124    2.9211  -14.4074 O   0  0  0  0  0  0  0  0  0  0  0  0
    8.6271    6.4167  -12.4852 C   0  0  0  0  0  0  0  0  0  0  0  0
    9.4867    7.0191  -11.3501 C   0  0  0  0  0  0  0  0  0  0  0  0
    9.8050    7.4109   -6.7083 H   0  0  0  0  0  0  0  0  0  0  0  0
    8.2036    6.9946   -7.2934 H   0  0  0  0  0  0  0  0  0  0  0  0
    9.5204    5.8174   -7.3545 H   0  0  0  0  0  0  0  0  0  0  0  0
   10.7142    7.1372   -9.0329 H   0  0  0  0  0  0  0  0  0  0  0  0
   10.0573    9.3712   -8.0609 H   0  0  0  0  0  0  0  0  0  0  0  0
    9.9508    9.3726   -9.8019 H   0  0  0  0  0  0  0  0  0  0  0  0
    8.4860    9.2335   -8.8316 H   0  0  0  0  0  0  0  0  0  0  0  0
    8.0682    5.1239   -8.9323 H   0  0  0  0  0  0  0  0  0  0  0  0
    9.5351    4.7512   -9.8022 H   0  0  0  0  0  0  0  0  0  0  0  0
    6.7785    5.3720  -11.0469 H   0  0  0  0  0  0  0  0  0  0  0  0
    7.4376    3.7724  -10.8801 H   0  0  0  0  0  0  0  0  0  0  0  0
    9.3596    3.1494  -12.0390 H   0  0  0  0  0  0  0  0  0  0  0  0
   10.4111    4.5247  -12.0133 H   0  0  0  0  0  0  0  0  0  0  0  0
   10.9097    3.9604  -14.1607 H   0  0  0  0  0  0  0  0  0  0  0  0
    9.3955    4.6776  -14.6344 H   0  0  0  0  0  0  0  0  0  0  0  0
   11.0108    1.9588  -15.6424 H   0  0  0  0  0  0  0  0  0  0  0  0
   10.8861    1.2133  -14.0367 H   0  0  0  0  0  0  0  0  0  0  0  0
    9.5914   -0.4842  -14.9978 H   0  0  0  0  0  0  0  0  0  0  0  0
    9.5504    0.3864  -16.5374 H   0  0  0  0  0  0  0  0  0  0  0  0
    7.5888   -0.1189  -17.5625 H   0  0  0  0  0  0  0  0  0  0  0  0
    5.5270   -1.2838  -18.2706 H   0  0  0  0  0  0  0  0  0  0  0  0
    3.6187   -1.5281  -16.6921 H   0  0  0  0  0  0  0  0  0  0  0  0
    9.1052    6.5625  -13.4468 H   0  0  0  0  0  0  0  0  0  0  0  0
    7.6703    6.9397  -12.5341 H   0  0  0  0  0  0  0  0  0  0  0  0
    9.5684    8.0895  -11.5316 H   0  0  0  0  0  0  0  0  0  0  0  0
   10.5024    6.6251  -11.3814 H   0  0  0  0  0  0  0  0  0  0  0  0
    7.9596    7.2110  -10.0174 H   0  0  0  0  0  0  0  0  0  0  0  0
  2  1  1  0
  3  2  1  0
  4  2  1  0
  5  4  1  0
  6  5  1  0
  7  6  1  0
  8  7  1  0
  9  8  1  0
 10  9  1  0
 11 10  1  0
 12 11  1  0
 13 12  1  0
 14 13  1  0
 15 14  2  0
 16 15  1  0
 17 16  2  0
 18 17  1  0
 19 18  1  0
 20 14  1  0
 20 18  2  0
 21 20  1  0
 22 10  1  0
 22 13  1  0
 23 22  2  0
 24  7  1  0
 25  4  1  0
 25 24  1  0
 26  1  1  0
 27  1  1  0
 28  1  1  0
 29  2  1  0
 30  3  1  0
 31  3  1  0
 32  3  1  0
 33  5  1  0
 34  5  1  0
 35  6  1  0
 36  6  1  0
 37  8  1  0
 38  8  1  0
 39  9  1  0
 40  9  1  0
 41 11  1  0
 42 11  1  0
 43 12  1  0
 44 12  1  0
 45 15  1  0
 46 16  1  0
 47 17  1  0
 48 24  1  0
 49 24  1  0
 50 25  1  0
 51 25  1  0
 52  4  1  0
M  CHG  1   4   1
M  END
>  <b_m_subgroup_collapsed>  (1350) 
0

>  <r_i_docking_score>  (1350) 
-6.04383350110517

>  <s_m_subgroup_title>  (1350) 
glide-dock_SP_D22_pv

>  <s_m_subgroupid>  (1350) 
glide-dock_SP_D22_pv

>  <Molecule ChEMBL ID>  (1350) 
CHEMBL570998

>  <Standard Type>  (1350) 
Ki

>  <Standard Value>  (1350) 
10000.0

>  <label>  (1350) 
0

$$$$
CHEMBL4453250
     RDKit          3D

 56 60  0  0  1  0  0  0  0  0999 V2000
    8.4892    0.2403  -15.0072 C   0  0  0  0  0  0  0  0  0  0  0  0
    8.5862    1.4355  -14.2470 O   0  0  0  0  0  0  0  0  0  0  0  0
    9.5278    2.3747  -14.6047 C   0  0  0  0  0  0  0  0  0  0  0  0
   10.3072    2.2804  -15.7771 C   0  0  0  0  0  0  0  0  0  0  0  0
   11.2211    3.2950  -16.0913 C   0  0  0  0  0  0  0  0  0  0  0  0
   11.3505    4.4173  -15.2491 C   0  0  0  0  0  0  0  0  0  0  0  0
   10.5834    4.5554  -14.0481 C   0  0  0  0  0  0  0  0  0  0  0  0
    9.6984    3.4863  -13.7498 C   0  0  0  0  0  0  0  0  0  0  0  0
   10.9667    5.8224  -13.4595 C   0  0  0  0  0  0  0  0  0  0  0  0
   10.4466    6.5136  -12.2482 C   0  0  0  0  0  0  0  0  0  0  0  0
   11.2373    7.3659  -11.4939 N   0  0  0  0  0  0  0  0  0  0  0  0
   10.5617    7.7439  -10.3462 C   0  0  0  0  0  0  0  0  0  0  0  0
   11.1122    8.3947   -9.3683 N   0  0  0  0  0  0  0  0  0  0  0  0
   10.3817    8.6778   -8.2230 C   0  0  0  0  0  0  0  0  0  0  0  0
   11.2623    9.1673   -7.0769 C   0  0  0  0  0  0  0  0  0  0  0  0
    9.1685    8.5824   -8.0319 O   0  0  0  0  0  0  0  0  0  0  0  0
    9.2858    7.2197  -10.4987 N   0  0  0  0  0  0  0  0  0  0  0  0
    9.2591    6.4344  -11.6259 C   0  0  0  0  0  0  0  0  0  0  0  0
    7.9894    5.6902  -11.9829 C   0  0  0  0  0  0  0  0  0  0  0  0
   11.9134    6.3899  -14.2704 C   0  0  0  0  0  0  0  0  0  0  0  0
   12.1352    5.5575  -15.3596 N   0  0  0  0  0  0  0  0  0  0  0  0
   13.2285    5.9200  -16.6489 S   0  0  0  0  0  0  0  0  0  0  0  0
   13.7857    4.6369  -17.1023 O   0  0  0  0  0  0  0  0  0  0  0  0
   14.1082    6.9722  -16.1223 O   0  0  0  0  0  0  0  0  0  0  0  0
   12.2340    6.6211  -17.9682 C   0  0  0  0  0  0  0  0  0  0  0  0
   12.8144    7.6043  -18.7962 C   0  0  0  0  0  0  0  0  0  0  0  0
   12.0623    8.1712  -19.8440 C   0  0  0  0  0  0  0  0  0  0  0  0
   10.7261    7.7712  -20.0517 C   0  0  0  0  0  0  0  0  0  0  0  0
    9.9589    8.3569  -21.0795 C   0  0  0  0  0  0  0  0  0  0  0  0
    8.6225    7.9589  -21.2783 C   0  0  0  0  0  0  0  0  0  0  0  0
    8.0493    6.9739  -20.4523 C   0  0  0  0  0  0  0  0  0  0  0  0
    8.8117    6.3825  -19.4266 C   0  0  0  0  0  0  0  0  0  0  0  0
   10.1490    6.7792  -19.2193 C   0  0  0  0  0  0  0  0  0  0  0  0
   10.9065    6.1973  -18.1837 C   0  0  0  0  0  0  0  0  0  0  0  0
    7.7364   -0.4087  -14.5585 H   0  0  0  0  0  0  0  0  0  0  0  0
    8.1724    0.4426  -16.0299 H   0  0  0  0  0  0  0  0  0  0  0  0
    9.4340   -0.3051  -15.0223 H   0  0  0  0  0  0  0  0  0  0  0  0
   10.2188    1.4434  -16.4522 H   0  0  0  0  0  0  0  0  0  0  0  0
   11.8043    3.2089  -16.9949 H   0  0  0  0  0  0  0  0  0  0  0  0
    9.1308    3.4980  -12.8382 H   0  0  0  0  0  0  0  0  0  0  0  0
   12.2064    7.5506  -11.7069 H   0  0  0  0  0  0  0  0  0  0  0  0
   11.6800   10.1482   -7.2974 H   0  0  0  0  0  0  0  0  0  0  0  0
    7.8483    5.6469  -13.0643 H   0  0  0  0  0  0  0  0  0  0  0  0
    8.0093    4.6823  -11.5696 H   0  0  0  0  0  0  0  0  0  0  0  0
    7.1151    6.1725  -11.5454 H   0  0  0  0  0  0  0  0  0  0  0  0
   12.4347    7.3332  -14.1832 H   0  0  0  0  0  0  0  0  0  0  0  0
   13.8310    7.9253  -18.6251 H   0  0  0  0  0  0  0  0  0  0  0  0
   12.5087    8.9294  -20.4713 H   0  0  0  0  0  0  0  0  0  0  0  0
   10.3882    9.1171  -21.7164 H   0  0  0  0  0  0  0  0  0  0  0  0
    8.0362    8.4107  -22.0632 H   0  0  0  0  0  0  0  0  0  0  0  0
    7.0254    6.6672  -20.6052 H   0  0  0  0  0  0  0  0  0  0  0  0
    8.3629    5.6273  -18.7979 H   0  0  0  0  0  0  0  0  0  0  0  0
   10.4577    5.4436  -17.5574 H   0  0  0  0  0  0  0  0  0  0  0  0
   10.6834    9.2447   -6.1555 H   0  0  0  0  0  0  0  0  0  0  0  0
   12.0858    8.4732   -6.9062 H   0  0  0  0  0  0  0  0  0  0  0  0
    8.4597    7.3729   -9.9166 H   0  0  0  0  0  0  0  0  0  0  0  0
  2  1  1  0
  3  2  1  0
  4  3  2  0
  5  4  1  0
  6  5  2  0
  7  6  1  0
  8  3  1  0
  8  7  2  0
  9  7  1  0
 10  9  1  0
 11 10  1  0
 12 11  1  0
 13 12  2  0
 14 13  1  0
 15 14  1  0
 16 14  2  0
 17 12  1  0
 18 10  2  0
 18 17  1  0
 19 18  1  0
 20  9  2  0
 21  6  1  0
 21 20  1  0
 22 21  1  0
 23 22  2  0
 24 22  2  0
 25 22  1  0
 26 25  1  0
 27 26  2  0
 28 27  1  0
 29 28  2  0
 30 29  1  0
 31 30  2  0
 32 31  1  0
 33 28  1  0
 33 32  2  0
 34 25  2  0
 34 33  1  0
 35  1  1  0
 36  1  1  0
 37  1  1  0
 38  4  1  0
 39  5  1  0
 40  8  1  0
 41 11  1  0
 42 15  1  0
 43 19  1  0
 44 19  1  0
 45 19  1  0
 46 20  1  0
 47 26  1  0
 48 27  1  0
 49 29  1  0
 50 30  1  0
 51 31  1  0
 52 32  1  0
 53 34  1  0
 54 15  1  0
 55 15  1  0
 56 17  1  0
M  END
>  <b_m_subgroup_collapsed>  (1351) 
0

>  <r_i_docking_score>  (1351) 
-6.03887096803353

>  <s_m_subgroup_title>  (1351) 
glide-dock_SP_D22_pv

>  <s_m_subgroupid>  (1351) 
glide-dock_SP_D22_pv

>  <Molecule ChEMBL ID>  (1351) 
CHEMBL4453250

>  <Standard Type>  (1351) 
Ki

>  <Standard Value>  (1351) 
10000.0

>  <label>  (1351) 
0

$$$$
CHEMBL4455588
     RDKit          3D

 32 34  0  0  1  0  0  0  0  0999 V2000
   12.1889    6.4016  -15.0084 C   0  0  0  0  0  0  0  0  0  0  0  0
   11.9072    5.4308  -13.8538 C   0  0  0  0  0  0  0  0  0  0  0  0
   10.5505    5.5730  -13.3505 N   0  0  0  0  0  0  0  0  0  0  0  0
    9.4745    4.9723  -13.8798 C   0  0  0  0  0  0  0  0  0  0  0  0
    8.3276    5.2490  -13.2783 N   0  0  0  0  0  0  0  0  0  0  0  0
    8.6966    6.1046  -12.2447 C   0  0  0  0  0  0  0  0  0  0  0  0
   10.0608    6.3117  -12.2644 C   0  0  0  0  0  0  0  0  0  0  0  0
   10.8858    7.1109  -11.3554 C   0  0  0  0  0  0  0  0  0  0  0  0
   12.0668    7.7722  -11.6037 C   0  0  0  0  0  0  0  0  0  0  0  0
   12.4858    8.4393  -10.4673 N   0  0  0  0  0  0  0  0  0  0  0  0
   11.6416    8.1752   -9.4174 C   0  0  0  0  0  0  0  0  0  0  0  0
   11.6626    8.5712   -8.0681 C   0  0  0  0  0  0  0  0  0  0  0  0
   10.6401    8.1346   -7.2087 C   0  0  0  0  0  0  0  0  0  0  0  0
    9.6116    7.3148   -7.7121 C   0  0  0  0  0  0  0  0  0  0  0  0
    8.5028    6.8481   -6.8037 C   0  0  0  0  0  0  0  0  0  0  0  0
    9.5992    6.9339   -9.0674 C   0  0  0  0  0  0  0  0  0  0  0  0
   10.6149    7.3476   -9.9576 C   0  0  0  0  0  0  0  0  0  0  0  0
   13.2179    6.3023  -15.3540 H   0  0  0  0  0  0  0  0  0  0  0  0
   11.5325    6.2056  -15.8568 H   0  0  0  0  0  0  0  0  0  0  0  0
   12.0376    7.4386  -14.7088 H   0  0  0  0  0  0  0  0  0  0  0  0
   12.6203    5.5721  -13.0468 H   0  0  0  0  0  0  0  0  0  0  0  0
   12.0423    4.4036  -14.1941 H   0  0  0  0  0  0  0  0  0  0  0  0
    9.5325    4.3221  -14.7404 H   0  0  0  0  0  0  0  0  0  0  0  0
    7.9531    6.5037  -11.5693 H   0  0  0  0  0  0  0  0  0  0  0  0
   12.6317    7.8639  -12.5194 H   0  0  0  0  0  0  0  0  0  0  0  0
   13.2665    9.0932  -10.4353 H   0  0  0  0  0  0  0  0  0  0  0  0
   12.4587    9.1972   -7.6940 H   0  0  0  0  0  0  0  0  0  0  0  0
   10.6429    8.4284   -6.1692 H   0  0  0  0  0  0  0  0  0  0  0  0
    7.9647    6.0015   -7.2303 H   0  0  0  0  0  0  0  0  0  0  0  0
    8.9139    6.5369   -5.8469 H   0  0  0  0  0  0  0  0  0  0  0  0
    7.7941    7.6609   -6.6465 H   0  0  0  0  0  0  0  0  0  0  0  0
    8.7908    6.3167   -9.4314 H   0  0  0  0  0  0  0  0  0  0  0  0
  2  1  1  0
  3  2  1  0
  4  3  1  0
  5  4  2  0
  6  5  1  0
  7  3  1  0
  7  6  2  0
  8  7  1  0
  9  8  2  0
 10  9  1  0
 11 10  1  0
 12 11  2  0
 13 12  1  0
 14 13  2  0
 15 14  1  0
 16 14  1  0
 17  8  1  0
 17 11  1  0
 17 16  2  0
 18  1  1  0
 19  1  1  0
 20  1  1  0
 21  2  1  0
 22  2  1  0
 23  4  1  0
 24  6  1  0
 25  9  1  0
 26 10  1  0
 27 12  1  0
 28 13  1  0
 29 15  1  0
 30 15  1  0
 31 15  1  0
 32 16  1  0
M  END
>  <b_m_subgroup_collapsed>  (1352) 
0

>  <r_i_docking_score>  (1352) 
-6.0376868189876696

>  <s_m_subgroup_title>  (1352) 
glide-dock_SP_D22_pv

>  <s_m_subgroupid>  (1352) 
glide-dock_SP_D22_pv

>  <Molecule ChEMBL ID>  (1352) 
CHEMBL4455588

>  <Standard Type>  (1352) 
Ki

>  <Standard Value>  (1352) 
10000.0

>  <label>  (1352) 
0

$$$$
CHEMBL4746800
     RDKit          3D

 43 45  0  0  1  0  0  0  0  0999 V2000
    8.4850    5.1743  -10.1027 C   0  0  0  0  0  0  0  0  0  0  0  0
    8.4863    6.1720  -11.1971 N   0  0  0  0  0  0  0  0  0  0  0  0
    9.5858    7.1512  -11.0674 C   0  0  0  0  0  0  0  0  0  0  0  0
    8.3809    5.5818  -12.5622 C   0  0  0  0  0  0  0  0  0  0  0  0
    9.3889    4.4334  -12.8587 C   0  0  0  0  0  0  0  0  0  0  0  0
    9.3461    3.9253  -14.2497 N   0  0  0  0  0  0  0  0  0  0  0  0
   10.0819    4.5613  -15.2060 C   0  0  0  0  0  0  0  0  0  0  0  0
   10.7513    5.5638  -14.9534 O   0  0  0  0  0  0  0  0  0  0  0  0
   10.0892    4.0597  -16.6302 C   0  0  0  0  0  0  0  0  0  0  0  0
    9.6458    4.9244  -17.6583 C   0  0  0  0  0  0  0  0  0  0  0  0
    9.7039    4.5385  -19.0082 C   0  0  0  0  0  0  0  0  0  0  0  0
   10.2474    3.2935  -19.3585 C   0  0  0  0  0  0  0  0  0  0  0  0
   10.7343    2.4396  -18.3535 C   0  0  0  0  0  0  0  0  0  0  0  0
   10.6574    2.8090  -16.9947 C   0  0  0  0  0  0  0  0  0  0  0  0
   11.2190    1.8730  -16.0205 C   0  0  0  0  0  0  0  0  0  0  0  0
   10.5175    1.2861  -15.0398 C   0  0  0  0  0  0  0  0  0  0  0  0
    9.0968    1.4962  -14.7837 C   0  0  0  0  0  0  0  0  0  0  0  0
    8.2770    0.3499  -14.8159 C   0  0  0  0  0  0  0  0  0  0  0  0
    6.9044    0.4388  -14.5369 C   0  0  0  0  0  0  0  0  0  0  0  0
    6.3425    1.6908  -14.2469 C   0  0  0  0  0  0  0  0  0  0  0  0
    7.1435    2.8474  -14.2418 C   0  0  0  0  0  0  0  0  0  0  0  0
    8.5353    2.7646  -14.4782 C   0  0  0  0  0  0  0  0  0  0  0  0
    9.4316    4.6326  -10.0503 H   0  0  0  0  0  0  0  0  0  0  0  0
    7.6863    4.4492  -10.2475 H   0  0  0  0  0  0  0  0  0  0  0  0
    8.3178    5.6630   -9.1420 H   0  0  0  0  0  0  0  0  0  0  0  0
   10.5584    6.6734  -11.1769 H   0  0  0  0  0  0  0  0  0  0  0  0
    9.5518    7.6353  -10.0911 H   0  0  0  0  0  0  0  0  0  0  0  0
    9.5010    7.9340  -11.8211 H   0  0  0  0  0  0  0  0  0  0  0  0
    7.3613    5.2166  -12.6498 H   0  0  0  0  0  0  0  0  0  0  0  0
    8.4739    6.3736  -13.3053 H   0  0  0  0  0  0  0  0  0  0  0  0
   10.4045    4.7508  -12.6149 H   0  0  0  0  0  0  0  0  0  0  0  0
    9.2019    3.5920  -12.1909 H   0  0  0  0  0  0  0  0  0  0  0  0
    9.2500    5.9015  -17.4313 H   0  0  0  0  0  0  0  0  0  0  0  0
    9.3446    5.2085  -19.7774 H   0  0  0  0  0  0  0  0  0  0  0  0
   10.3059    2.9973  -20.3967 H   0  0  0  0  0  0  0  0  0  0  0  0
   11.1712    1.4912  -18.6304 H   0  0  0  0  0  0  0  0  0  0  0  0
   12.2735    1.6640  -16.1136 H   0  0  0  0  0  0  0  0  0  0  0  0
   11.0180    0.6183  -14.3574 H   0  0  0  0  0  0  0  0  0  0  0  0
    8.7043   -0.6163  -15.0472 H   0  0  0  0  0  0  0  0  0  0  0  0
    6.2905   -0.4503  -14.5505 H   0  0  0  0  0  0  0  0  0  0  0  0
    5.2883    1.7636  -14.0277 H   0  0  0  0  0  0  0  0  0  0  0  0
    6.6702    3.7918  -14.0290 H   0  0  0  0  0  0  0  0  0  0  0  0
    7.6384    6.7198  -11.0430 H   0  0  0  0  0  0  0  0  0  0  0  0
  2  1  1  0
  3  2  1  0
  4  2  1  0
  5  4  1  0
  6  5  1  0
  7  6  1  0
  8  7  2  0
  9  7  1  0
 10  9  2  0
 11 10  1  0
 12 11  2  0
 13 12  1  0
 14  9  1  0
 14 13  2  0
 15 14  1  0
 16 15  2  0
 17 16  1  0
 18 17  2  0
 19 18  1  0
 20 19  2  0
 21 20  1  0
 22  6  1  0
 22 17  1  0
 22 21  2  0
 23  1  1  0
 24  1  1  0
 25  1  1  0
 26  3  1  0
 27  3  1  0
 28  3  1  0
 29  4  1  0
 30  4  1  0
 31  5  1  0
 32  5  1  0
 33 10  1  0
 34 11  1  0
 35 12  1  0
 36 13  1  0
 37 15  1  0
 38 16  1  0
 39 18  1  0
 40 19  1  0
 41 20  1  0
 42 21  1  0
 43  2  1  0
M  CHG  1   2   1
M  END
>  <b_m_subgroup_collapsed>  (1353) 
0

>  <r_i_docking_score>  (1353) 
-6.0262417803197801

>  <s_m_subgroup_title>  (1353) 
glide-dock_SP_D22_pv

>  <s_m_subgroupid>  (1353) 
glide-dock_SP_D22_pv

>  <Molecule ChEMBL ID>  (1353) 
CHEMBL4746800

>  <Standard Type>  (1353) 
Ki

>  <Standard Value>  (1353) 
11600.0

>  <label>  (1353) 
0

$$$$
CHEMBL1949726
     RDKit          3D

 48 51  0  0  1  0  0  0  0  0999 V2000
   10.3741    0.6018  -17.0476 C   0  0  0  0  0  0  0  0  0  0  0  0
   10.6144    1.9067  -16.2604 C   0  0  2  0  0  0  0  0  0  0  0  0
    9.6715    1.9857  -15.0391 C   0  0  0  0  0  0  0  0  0  0  0  0
    9.5869    3.3081  -14.3141 C   0  0  0  0  0  0  0  0  0  0  0  0
   10.5773    4.2181  -13.9943 C   0  0  0  0  0  0  0  0  0  0  0  0
   10.0000    5.2538  -13.2754 N   0  0  0  0  0  0  0  0  0  0  0  0
    8.6502    5.0598  -13.1058 C   0  0  0  0  0  0  0  0  0  0  0  0
    7.6644    5.8131  -12.4447 C   0  0  0  0  0  0  0  0  0  0  0  0
    6.3415    5.3439  -12.4167 C   0  0  0  0  0  0  0  0  0  0  0  0
    6.0122    4.1373  -13.0647 C   0  0  0  0  0  0  0  0  0  0  0  0
    7.0079    3.3986  -13.7393 C   0  0  0  0  0  0  0  0  0  0  0  0
    8.3572    3.8358  -13.7671 C   0  0  0  0  0  0  0  0  0  0  0  0
   12.0586    4.2461  -14.2529 C   0  0  0  0  0  0  0  0  0  0  0  0
   12.4785    5.3662  -15.2018 C   0  0  0  0  0  0  0  0  0  0  0  0
   12.4955    6.6819  -14.6839 C   0  0  0  0  0  0  0  0  0  0  0  0
   12.8855    7.7728  -15.4814 C   0  0  0  0  0  0  0  0  0  0  0  0
   13.2329    7.5671  -16.8262 C   0  0  0  0  0  0  0  0  0  0  0  0
   13.2237    6.2654  -17.3557 C   0  0  0  0  0  0  0  0  0  0  0  0
   12.8712    5.1543  -16.5551 C   0  0  0  0  0  0  0  0  0  0  0  0
   12.9771    3.7795  -17.2037 C   0  0  0  0  0  0  0  0  0  0  0  0
   11.7177    3.3578  -17.9811 C   0  0  0  0  0  0  0  0  0  0  0  0
   10.5321    3.1357  -17.1119 N   0  0  1  0  0  0  0  0  0  0  0  0
    9.2629    3.2734  -17.8673 C   0  0  0  0  0  0  0  0  0  0  0  0
   10.5020   -0.2634  -16.3959 H   0  0  0  0  0  0  0  0  0  0  0  0
   11.0773    0.4830  -17.8723 H   0  0  0  0  0  0  0  0  0  0  0  0
    9.3636    0.5465  -17.4545 H   0  0  0  0  0  0  0  0  0  0  0  0
   11.6203    1.8202  -15.8637 H   0  0  0  0  0  0  0  0  0  0  0  0
    8.6700    1.7008  -15.3603 H   0  0  0  0  0  0  0  0  0  0  0  0
    9.9591    1.2120  -14.3261 H   0  0  0  0  0  0  0  0  0  0  0  0
   10.5254    6.0349  -12.9149 H   0  0  0  0  0  0  0  0  0  0  0  0
    7.9128    6.7360  -11.9387 H   0  0  0  0  0  0  0  0  0  0  0  0
    5.5900    5.9126  -11.8841 H   0  0  0  0  0  0  0  0  0  0  0  0
    4.9952    3.7746  -13.0345 H   0  0  0  0  0  0  0  0  0  0  0  0
    6.7384    2.4705  -14.2196 H   0  0  0  0  0  0  0  0  0  0  0  0
   12.5759    4.4093  -13.3070 H   0  0  0  0  0  0  0  0  0  0  0  0
   12.4197    3.2807  -14.5754 H   0  0  0  0  0  0  0  0  0  0  0  0
   12.2393    6.8613  -13.6509 H   0  0  0  0  0  0  0  0  0  0  0  0
   12.9028    8.7691  -15.0643 H   0  0  0  0  0  0  0  0  0  0  0  0
   13.5080    8.4075  -17.4481 H   0  0  0  0  0  0  0  0  0  0  0  0
   13.5080    6.1217  -18.3870 H   0  0  0  0  0  0  0  0  0  0  0  0
   13.8093    3.8181  -17.9078 H   0  0  0  0  0  0  0  0  0  0  0  0
   13.2873    3.0201  -16.4919 H   0  0  0  0  0  0  0  0  0  0  0  0
   11.4954    4.1405  -18.7086 H   0  0  0  0  0  0  0  0  0  0  0  0
   11.9214    2.4628  -18.5672 H   0  0  0  0  0  0  0  0  0  0  0  0
    9.2183    2.5699  -18.6995 H   0  0  0  0  0  0  0  0  0  0  0  0
    9.1691    4.2809  -18.2766 H   0  0  0  0  0  0  0  0  0  0  0  0
    8.3991    3.1007  -17.2273 H   0  0  0  0  0  0  0  0  0  0  0  0
   10.5400    3.9103  -16.4608 H   0  0  0  0  0  0  0  0  0  0  0  0
  2  1  1  0
  3  2  1  0
  4  3  1  0
  5  4  2  0
  6  5  1  0
  7  6  1  0
  8  7  2  0
  9  8  1  0
 10  9  2  0
 11 10  1  0
 12  4  1  0
 12  7  1  0
 12 11  2  0
 13  5  1  0
 14 13  1  0
 15 14  2  0
 16 15  1  0
 17 16  2  0
 18 17  1  0
 19 14  1  0
 19 18  2  0
 20 19  1  0
 21 20  1  0
 22  2  1  0
 22 21  1  0
 23 22  1  0
 24  1  1  0
 25  1  1  0
 26  1  1  0
  2 27  1  1
 28  3  1  0
 29  3  1  0
 30  6  1  0
 31  8  1  0
 32  9  1  0
 33 10  1  0
 34 11  1  0
 35 13  1  0
 36 13  1  0
 37 15  1  0
 38 16  1  0
 39 17  1  0
 40 18  1  0
 41 20  1  0
 42 20  1  0
 43 21  1  0
 44 21  1  0
 45 23  1  0
 46 23  1  0
 47 23  1  0
 22 48  1  1
M  CHG  1  22   1
M  END
>  <b_m_subgroup_collapsed>  (1354) 
0

>  <r_i_docking_score>  (1354) 
-6.0253182168338704

>  <s_m_subgroup_title>  (1354) 
glide-dock_SP_D22_pv

>  <s_m_subgroupid>  (1354) 
glide-dock_SP_D22_pv

>  <Molecule ChEMBL ID>  (1354) 
CHEMBL1949726

>  <Standard Type>  (1354) 
Ki

>  <Standard Value>  (1354) 
10000.0

>  <label>  (1354) 
0

$$$$
CHEMBL157910
     RDKit          3D

 45 47  0  0  1  0  0  0  0  0999 V2000
   12.7798    7.8862  -13.9373 C   0  0  0  0  0  0  0  0  0  0  0  0
   11.8518    7.0617  -13.2503 O   0  0  0  0  0  0  0  0  0  0  0  0
   11.4536    5.8819  -13.8487 C   0  0  0  0  0  0  0  0  0  0  0  0
   12.0046    5.4328  -15.0777 C   0  0  0  0  0  0  0  0  0  0  0  0
   11.6293    4.1992  -15.6315 C   0  0  0  0  0  0  0  0  0  0  0  0
   10.7226    3.3793  -14.9423 C   0  0  0  0  0  0  0  0  0  0  0  0
   10.1758    1.8400  -15.6940 S   0  0  0  0  0  0  0  0  0  0  0  0
   10.2754    0.8030  -14.6550 O   0  0  0  0  0  0  0  0  0  0  0  0
   10.9836    1.6685  -16.9123 O   0  0  0  0  0  0  0  0  0  0  0  0
    8.6501    2.3018  -16.0183 N   0  0  0  0  0  0  0  0  0  0  0  0
    7.5907    2.0365  -15.2360 C   0  0  0  0  0  0  0  0  0  0  0  0
    7.1601    2.9602  -14.2584 C   0  0  0  0  0  0  0  0  0  0  0  0
    6.0872    2.6730  -13.4099 C   0  0  0  0  0  0  0  0  0  0  0  0
    5.6430    3.8547  -12.2506 Cl  0  0  0  0  0  0  0  0  0  0  0  0
    5.4280    1.4356  -13.4963 C   0  0  0  0  0  0  0  0  0  0  0  0
    5.8044    0.5169  -14.4940 C   0  0  0  0  0  0  0  0  0  0  0  0
    4.9154   -0.9554  -14.6515 Cl  0  0  0  0  0  0  0  0  0  0  0  0
    6.8642    0.8294  -15.3789 C   0  0  0  0  0  0  0  0  0  0  0  0
    7.2223   -0.2278  -16.7007 Cl  0  0  0  0  0  0  0  0  0  0  0  0
   10.1944    3.7953  -13.7050 C   0  0  0  0  0  0  0  0  0  0  0  0
   10.4869    5.0775  -13.1798 C   0  0  0  0  0  0  0  0  0  0  0  0
    9.8467    5.5255  -11.9967 N   0  0  0  0  0  0  0  0  0  0  0  0
    9.2502    6.8585  -11.9282 C   0  0  0  0  0  0  0  0  0  0  0  0
    9.4260    7.4418  -10.5186 C   0  0  0  0  0  0  0  0  0  0  0  0
    8.8799    6.5160   -9.5063 N   0  0  0  0  0  0  0  0  0  0  0  0
    9.4357    5.1451   -9.5842 C   0  0  0  0  0  0  0  0  0  0  0  0
    9.3527    4.5661  -11.0128 C   0  0  0  0  0  0  0  0  0  0  0  0
   13.0892    8.6985  -13.2854 H   0  0  0  0  0  0  0  0  0  0  0  0
   13.6863    7.3609  -14.2170 H   0  0  0  0  0  0  0  0  0  0  0  0
   12.3335    8.3200  -14.8318 H   0  0  0  0  0  0  0  0  0  0  0  0
   12.7215    6.0172  -15.6318 H   0  0  0  0  0  0  0  0  0  0  0  0
   12.0404    3.8890  -16.5810 H   0  0  0  0  0  0  0  0  0  0  0  0
    7.6415    3.9223  -14.1684 H   0  0  0  0  0  0  0  0  0  0  0  0
    4.6094    1.2126  -12.8311 H   0  0  0  0  0  0  0  0  0  0  0  0
    9.5181    3.1282  -13.1937 H   0  0  0  0  0  0  0  0  0  0  0  0
    9.6684    7.5542  -12.6470 H   0  0  0  0  0  0  0  0  0  0  0  0
    8.1883    6.7758  -12.1656 H   0  0  0  0  0  0  0  0  0  0  0  0
   10.4819    7.6233  -10.3135 H   0  0  0  0  0  0  0  0  0  0  0  0
    8.9116    8.4004  -10.4399 H   0  0  0  0  0  0  0  0  0  0  0  0
    9.0234    6.8979   -8.5834 H   0  0  0  0  0  0  0  0  0  0  0  0
   10.4775    5.1823   -9.2608 H   0  0  0  0  0  0  0  0  0  0  0  0
    8.9103    4.4974   -8.8811 H   0  0  0  0  0  0  0  0  0  0  0  0
    8.3222    4.3076  -11.2574 H   0  0  0  0  0  0  0  0  0  0  0  0
    9.9374    3.6460  -11.0510 H   0  0  0  0  0  0  0  0  0  0  0  0
    7.8769    6.4884   -9.6720 H   0  0  0  0  0  0  0  0  0  0  0  0
  2  1  1  0
  3  2  1  0
  4  3  1  0
  5  4  2  0
  6  5  1  0
  7  6  1  0
  8  7  2  0
  9  7  2  0
 10  7  1  0
 11 10  1  0
 12 11  2  0
 13 12  1  0
 14 13  1  0
 15 13  2  0
 16 15  1  0
 17 16  1  0
 18 11  1  0
 18 16  2  0
 19 18  1  0
 20  6  2  0
 21  3  2  0
 21 20  1  0
 22 21  1  0
 23 22  1  0
 24 23  1  0
 25 24  1  0
 26 25  1  0
 27 22  1  0
 27 26  1  0
 28  1  1  0
 29  1  1  0
 30  1  1  0
 31  4  1  0
 32  5  1  0
 33 12  1  0
 34 15  1  0
 35 20  1  0
 36 23  1  0
 37 23  1  0
 38 24  1  0
 39 24  1  0
 40 25  1  0
 41 26  1  0
 42 26  1  0
 43 27  1  0
 44 27  1  0
 45 25  1  0
M  CHG  2  10  -1  25   1
M  END
>  <b_m_subgroup_collapsed>  (1355) 
0

>  <r_i_docking_score>  (1355) 
-6.0243622116756104

>  <s_m_subgroup_title>  (1355) 
glide-dock_SP_D22_pv

>  <s_m_subgroupid>  (1355) 
glide-dock_SP_D22_pv

>  <Molecule ChEMBL ID>  (1355) 
CHEMBL157910

>  <Standard Type>  (1355) 
Ki

>  <Standard Value>  (1355) 
10000.0

>  <label>  (1355) 
0

$$$$
CHEMBL201288
     RDKit          3D

 45 48  0  0  1  0  0  0  0  0999 V2000
    9.2981    5.7260  -18.6032 C   0  0  0  0  0  0  0  0  0  0  0  0
    9.6921    4.2411  -18.5106 C   0  0  0  0  0  0  0  0  0  0  0  0
   10.2840    3.8697  -17.1891 N   0  0  1  0  0  0  0  0  0  0  0  0
    9.7413    2.5779  -16.6745 C   0  0  0  0  0  0  0  0  0  0  0  0
   10.0522    2.3210  -15.1871 C   0  0  0  0  0  0  0  0  0  0  0  0
    9.6973    3.4915  -14.3178 C   0  0  0  0  0  0  0  0  0  0  0  0
   10.5518    4.4845  -13.9000 C   0  0  0  0  0  0  0  0  0  0  0  0
    9.8451    5.3716  -13.1081 N   0  0  0  0  0  0  0  0  0  0  0  0
    8.5237    4.9956  -13.0036 C   0  0  0  0  0  0  0  0  0  0  0  0
    7.4321    5.5610  -12.3246 C   0  0  0  0  0  0  0  0  0  0  0  0
    6.1751    4.9366  -12.4014 C   0  0  0  0  0  0  0  0  0  0  0  0
    6.0183    3.7660  -13.1655 C   0  0  0  0  0  0  0  0  0  0  0  0
    7.1206    3.2084  -13.8468 C   0  0  0  0  0  0  0  0  0  0  0  0
    8.4024    3.8045  -13.7750 C   0  0  0  0  0  0  0  0  0  0  0  0
   12.0086    4.6787  -14.1758 C   0  0  0  0  0  0  0  0  0  0  0  0
   12.2774    5.6814  -15.2904 C   0  0  0  0  0  0  0  0  0  0  0  0
   12.6177    7.0002  -14.9198 C   0  0  0  0  0  0  0  0  0  0  0  0
   12.9176    7.9656  -15.8950 C   0  0  0  0  0  0  0  0  0  0  0  0
   12.8966    7.6191  -17.2550 C   0  0  0  0  0  0  0  0  0  0  0  0
   12.5539    6.3112  -17.6380 C   0  0  0  0  0  0  0  0  0  0  0  0
   12.2162    5.3401  -16.6700 C   0  0  0  0  0  0  0  0  0  0  0  0
   11.7732    3.9641  -17.1523 C   0  0  0  0  0  0  0  0  0  0  0  0
    8.8492    5.9360  -19.5743 H   0  0  0  0  0  0  0  0  0  0  0  0
   10.1484    6.3949  -18.4948 H   0  0  0  0  0  0  0  0  0  0  0  0
    8.5616    5.9942  -17.8463 H   0  0  0  0  0  0  0  0  0  0  0  0
    8.7787    3.6689  -18.6871 H   0  0  0  0  0  0  0  0  0  0  0  0
   10.3619    3.9707  -19.3332 H   0  0  0  0  0  0  0  0  0  0  0  0
    8.6534    2.5984  -16.7707 H   0  0  0  0  0  0  0  0  0  0  0  0
   10.0925    1.7471  -17.2901 H   0  0  0  0  0  0  0  0  0  0  0  0
    9.4915    1.4440  -14.8616 H   0  0  0  0  0  0  0  0  0  0  0  0
   11.0947    2.0359  -15.0488 H   0  0  0  0  0  0  0  0  0  0  0  0
   10.2620    6.1776  -12.6657 H   0  0  0  0  0  0  0  0  0  0  0  0
    7.5480    6.4618  -11.7367 H   0  0  0  0  0  0  0  0  0  0  0  0
    5.3392    5.3549  -11.8622 H   0  0  0  0  0  0  0  0  0  0  0  0
    5.0519    3.2854  -13.2192 H   0  0  0  0  0  0  0  0  0  0  0  0
    6.9857    2.3017  -14.4189 H   0  0  0  0  0  0  0  0  0  0  0  0
   12.4998    5.0252  -13.2664 H   0  0  0  0  0  0  0  0  0  0  0  0
   12.4924    3.7318  -14.3974 H   0  0  0  0  0  0  0  0  0  0  0  0
   12.6664    7.2742  -13.8778 H   0  0  0  0  0  0  0  0  0  0  0  0
   13.1779    8.9709  -15.5997 H   0  0  0  0  0  0  0  0  0  0  0  0
   13.1258    8.3640  -18.0032 H   0  0  0  0  0  0  0  0  0  0  0  0
   12.5272    6.0621  -18.6890 H   0  0  0  0  0  0  0  0  0  0  0  0
   12.2176    3.2023  -16.5161 H   0  0  0  0  0  0  0  0  0  0  0  0
   12.1970    3.7600  -18.1381 H   0  0  0  0  0  0  0  0  0  0  0  0
    9.9551    4.5577  -16.5231 H   0  0  0  0  0  0  0  0  0  0  0  0
  2  1  1  0
  3  2  1  0
  4  3  1  0
  5  4  1  0
  6  5  1  0
  7  6  2  0
  8  7  1  0
  9  8  1  0
 10  9  2  0
 11 10  1  0
 12 11  2  0
 13 12  1  0
 14  6  1  0
 14  9  1  0
 14 13  2  0
 15  7  1  0
 16 15  1  0
 17 16  2  0
 18 17  1  0
 19 18  2  0
 20 19  1  0
 21 16  1  0
 21 20  2  0
 22  3  1  0
 22 21  1  0
 23  1  1  0
 24  1  1  0
 25  1  1  0
 26  2  1  0
 27  2  1  0
 28  4  1  0
 29  4  1  0
 30  5  1  0
 31  5  1  0
 32  8  1  0
 33 10  1  0
 34 11  1  0
 35 12  1  0
 36 13  1  0
 37 15  1  0
 38 15  1  0
 39 17  1  0
 40 18  1  0
 41 19  1  0
 42 20  1  0
 43 22  1  0
 44 22  1  0
  3 45  1  1
M  CHG  1   3   1
M  END
>  <b_m_subgroup_collapsed>  (1356) 
0

>  <r_i_docking_score>  (1356) 
-6.0226028265477103

>  <s_m_subgroup_title>  (1356) 
glide-dock_SP_D22_pv

>  <s_m_subgroupid>  (1356) 
glide-dock_SP_D22_pv

>  <Molecule ChEMBL ID>  (1356) 
CHEMBL201288

>  <Standard Type>  (1356) 
Ki

>  <Standard Value>  (1356) 
10000.0

>  <label>  (1356) 
0

$$$$
CHEMBL3979230
     RDKit          3D

 46 49  0  0  1  0  0  0  0  0999 V2000
   10.4162    0.3504  -16.8733 C   0  0  0  0  0  0  0  0  0  0  0  0
    9.0816    0.9336  -16.6251 N   0  0  0  0  0  0  0  0  0  0  0  0
    8.7507    1.0685  -15.1960 C   0  0  1  0  0  0  0  0  0  0  0  0
    9.3450    2.2981  -14.5552 C   0  0  0  0  0  0  0  0  0  0  0  0
   10.5563    2.8991  -14.1958 C   0  0  0  0  0  0  0  0  0  0  0  0
   10.4223    4.1289  -13.4885 C   0  0  0  0  0  0  0  0  0  0  0  0
    9.1354    4.6634  -13.1457 C   0  0  0  0  0  0  0  0  0  0  0  0
    7.9684    4.0100  -13.5118 C   0  0  0  0  0  0  0  0  0  0  0  0
    6.8108    4.6573  -13.0480 C   0  0  0  0  0  0  0  0  0  0  0  0
    7.3016    5.7764  -12.4175 C   0  0  0  0  0  0  0  0  0  0  0  0
    8.6998    5.8058  -12.4782 N   0  0  0  0  0  0  0  0  0  0  0  0
    9.6601    7.1082  -11.8467 S   0  0  0  0  0  0  0  0  0  0  0  0
   10.9996    6.9650  -12.4389 O   0  0  0  0  0  0  0  0  0  0  0  0
    8.8809    8.3318  -12.0869 O   0  0  0  0  0  0  0  0  0  0  0  0
    9.7992    6.8573  -10.0805 C   0  0  0  0  0  0  0  0  0  0  0  0
   10.8293    7.5312   -9.3925 C   0  0  0  0  0  0  0  0  0  0  0  0
   10.9357    7.4046   -7.9938 C   0  0  0  0  0  0  0  0  0  0  0  0
   10.0106    6.6097   -7.2877 C   0  0  0  0  0  0  0  0  0  0  0  0
    8.9863    5.9354   -7.9810 C   0  0  0  0  0  0  0  0  0  0  0  0
    8.8862    6.0469   -9.3785 C   0  0  0  0  0  0  0  0  0  0  0  0
    8.0646    2.8448  -14.2454 C   0  0  0  0  0  0  0  0  0  0  0  0
    7.3017    1.7289  -14.9241 C   0  0  2  0  0  0  0  0  0  0  0  0
    6.2572    1.0233  -14.0577 C   0  0  0  0  0  0  0  0  0  0  0  0
    5.5848   -0.1442  -14.7984 C   0  0  0  0  0  0  0  0  0  0  0  0
    4.4750   -0.6272  -14.0711 O   0  0  0  0  0  0  0  0  0  0  0  0
   10.5985    0.2715  -17.9446 H   0  0  0  0  0  0  0  0  0  0  0  0
   10.4845   -0.6494  -16.4425 H   0  0  0  0  0  0  0  0  0  0  0  0
   11.2036    0.9703  -16.4414 H   0  0  0  0  0  0  0  0  0  0  0  0
    9.0362    1.8495  -17.0471 H   0  0  0  0  0  0  0  0  0  0  0  0
    8.9339    0.1712  -14.6008 H   0  0  0  0  0  0  0  0  0  0  0  0
   11.5183    2.4642  -14.4233 H   0  0  0  0  0  0  0  0  0  0  0  0
   11.3183    4.6495  -13.1878 H   0  0  0  0  0  0  0  0  0  0  0  0
    5.8011    4.3061  -13.2065 H   0  0  0  0  0  0  0  0  0  0  0  0
    6.7652    6.5721  -11.9179 H   0  0  0  0  0  0  0  0  0  0  0  0
   11.5272    8.1538   -9.9337 H   0  0  0  0  0  0  0  0  0  0  0  0
   11.7194    7.9229   -7.4630 H   0  0  0  0  0  0  0  0  0  0  0  0
   10.0806    6.5203   -6.2135 H   0  0  0  0  0  0  0  0  0  0  0  0
    8.2592    5.3449   -7.4471 H   0  0  0  0  0  0  0  0  0  0  0  0
    8.0789    5.5416   -9.8846 H   0  0  0  0  0  0  0  0  0  0  0  0
    6.8727    2.1419  -15.8382 H   0  0  0  0  0  0  0  0  0  0  0  0
    6.7056    0.6442  -13.1390 H   0  0  0  0  0  0  0  0  0  0  0  0
    5.4952    1.7416  -13.7527 H   0  0  0  0  0  0  0  0  0  0  0  0
    5.2331    0.1728  -15.7807 H   0  0  0  0  0  0  0  0  0  0  0  0
    6.2917   -0.9593  -14.9583 H   0  0  0  0  0  0  0  0  0  0  0  0
    4.0122   -1.2465  -14.6204 H   0  0  0  0  0  0  0  0  0  0  0  0
    8.3911    0.3350  -17.0553 H   0  0  0  0  0  0  0  0  0  0  0  0
  2  1  1  0
  3  2  1  0
  4  3  1  0
  5  4  2  0
  6  5  1  0
  7  6  2  0
  8  7  1  0
  9  8  1  0
 10  9  2  0
 11  7  1  0
 11 10  1  0
 12 11  1  0
 13 12  2  0
 14 12  2  0
 15 12  1  0
 16 15  2  0
 17 16  1  0
 18 17  2  0
 19 18  1  0
 20 15  1  0
 20 19  2  0
 21  4  1  0
 21  8  2  0
 22  3  1  0
 22 21  1  0
 23 22  1  0
 24 23  1  0
 25 24  1  0
 26  1  1  0
 27  1  1  0
 28  1  1  0
 29  2  1  0
  3 30  1  1
 31  5  1  0
 32  6  1  0
 33  9  1  0
 34 10  1  0
 35 16  1  0
 36 17  1  0
 37 18  1  0
 38 19  1  0
 39 20  1  0
 22 40  1  6
 41 23  1  0
 42 23  1  0
 43 24  1  0
 44 24  1  0
 45 25  1  0
 46  2  1  0
M  CHG  1   2   1
M  END
>  <b_m_subgroup_collapsed>  (1357) 
0

>  <r_i_docking_score>  (1357) 
-6.0207096599736198

>  <s_m_subgroup_title>  (1357) 
glide-dock_SP_D22_pv

>  <s_m_subgroupid>  (1357) 
glide-dock_SP_D22_pv

>  <Molecule ChEMBL ID>  (1357) 
CHEMBL3979230

>  <Standard Type>  (1357) 
Ki

>  <Standard Value>  (1357) 
10000.0

>  <label>  (1357) 
0

$$$$
CHEMBL515342
     RDKit          3D

 60 63  0  0  1  0  0  0  0  0999 V2000
    3.5078   -1.9797  -18.3264 C   0  0  0  0  0  0  0  0  0  0  0  0
    3.9573   -1.0443  -17.2000 C   0  0  0  0  0  0  0  0  0  0  0  0
    4.8338   -1.7490  -16.1506 C   0  0  0  0  0  0  0  0  0  0  0  0
    5.5699   -0.7800  -15.2088 C   0  0  0  0  0  0  0  0  0  0  0  0
    4.6362    0.0409  -14.3020 C   0  0  0  0  0  0  0  0  0  0  0  0
    5.3845    1.0665  -13.4466 C   0  0  0  0  0  0  0  0  0  0  0  0
    5.2870    1.0625  -12.2224 O   0  0  0  0  0  0  0  0  0  0  0  0
    6.1032    1.9463  -14.1953 O   0  0  0  0  0  0  0  0  0  0  0  0
    6.7522    3.0342  -13.6500 C   0  0  0  0  0  0  0  0  0  0  0  0
    6.0503    3.9370  -12.8163 C   0  0  0  0  0  0  0  0  0  0  0  0
    6.6800    5.0835  -12.3069 C   0  0  0  0  0  0  0  0  0  0  0  0
    8.0047    5.3719  -12.6650 C   0  0  0  0  0  0  0  0  0  0  0  0
    8.7145    4.4889  -13.5043 C   0  0  0  0  0  0  0  0  0  0  0  0
    8.1184    3.2923  -13.9700 C   0  0  0  0  0  0  0  0  0  0  0  0
    8.9721    2.3863  -14.7759 C   0  0  0  0  0  0  0  0  0  0  0  0
    8.8280    0.9736  -14.7606 C   0  0  0  0  0  0  0  0  0  0  0  0
    9.6574    0.1144  -15.4996 C   0  0  0  0  0  0  0  0  0  0  0  0
   10.6891    0.6369  -16.2860 C   0  0  0  0  0  0  0  0  0  0  0  0
   10.9193    2.0203  -16.3069 C   0  0  0  0  0  0  0  0  0  0  0  0
   10.0720    2.8664  -15.5384 C   0  0  0  0  0  0  0  0  0  0  0  0
   10.3187    4.3929  -15.4502 C   0  0  1  0  0  0  0  0  0  0  0  0
   10.1139    4.8461  -13.9782 C   0  0  0  0  0  0  0  0  0  0  0  0
   11.6204    4.8535  -16.0304 N   0  0  2  0  0  0  0  0  0  0  0  0
   11.7162    6.3292  -16.2178 C   0  0  0  0  0  0  0  0  0  0  0  0
   13.1675    6.8304  -16.3655 C   0  0  0  0  0  0  0  0  0  0  0  0
   13.2276    8.3287  -16.6809 C   0  0  0  0  0  0  0  0  0  0  0  0
   11.8874    4.1499  -17.3063 C   0  0  0  0  0  0  0  0  0  0  0  0
   12.0812    2.6714  -17.0319 C   0  0  0  0  0  0  0  0  0  0  0  0
    2.8866   -1.4431  -19.0467 H   0  0  0  0  0  0  0  0  0  0  0  0
    2.9200   -2.8126  -17.9394 H   0  0  0  0  0  0  0  0  0  0  0  0
    4.3596   -2.3930  -18.8656 H   0  0  0  0  0  0  0  0  0  0  0  0
    4.5018   -0.2058  -17.6377 H   0  0  0  0  0  0  0  0  0  0  0  0
    3.0733   -0.6298  -16.7145 H   0  0  0  0  0  0  0  0  0  0  0  0
    4.2247   -2.4463  -15.5729 H   0  0  0  0  0  0  0  0  0  0  0  0
    5.5829   -2.3561  -16.6600 H   0  0  0  0  0  0  0  0  0  0  0  0
    6.2560   -1.3552  -14.5853 H   0  0  0  0  0  0  0  0  0  0  0  0
    6.1956   -0.1169  -15.8103 H   0  0  0  0  0  0  0  0  0  0  0  0
    3.8956    0.5714  -14.9014 H   0  0  0  0  0  0  0  0  0  0  0  0
    4.0749   -0.6267  -13.6482 H   0  0  0  0  0  0  0  0  0  0  0  0
    5.0182    3.7522  -12.5666 H   0  0  0  0  0  0  0  0  0  0  0  0
    6.1370    5.7627  -11.6612 H   0  0  0  0  0  0  0  0  0  0  0  0
    8.4683    6.2758  -12.2982 H   0  0  0  0  0  0  0  0  0  0  0  0
    8.0784    0.5128  -14.1369 H   0  0  0  0  0  0  0  0  0  0  0  0
    9.5098   -0.9547  -15.4455 H   0  0  0  0  0  0  0  0  0  0  0  0
   11.3357   -0.0287  -16.8388 H   0  0  0  0  0  0  0  0  0  0  0  0
    9.5343    4.8543  -16.0563 H   0  0  0  0  0  0  0  0  0  0  0  0
   10.2592    5.9159  -13.8367 H   0  0  0  0  0  0  0  0  0  0  0  0
   10.8363    4.3483  -13.3280 H   0  0  0  0  0  0  0  0  0  0  0  0
   11.1234    6.6155  -17.0877 H   0  0  0  0  0  0  0  0  0  0  0  0
   11.2867    6.8705  -15.3786 H   0  0  0  0  0  0  0  0  0  0  0  0
   13.7317    6.6237  -15.4542 H   0  0  0  0  0  0  0  0  0  0  0  0
   13.6881    6.3099  -17.1692 H   0  0  0  0  0  0  0  0  0  0  0  0
   14.2455    8.6239  -16.9324 H   0  0  0  0  0  0  0  0  0  0  0  0
   12.8865    8.9367  -15.8397 H   0  0  0  0  0  0  0  0  0  0  0  0
   12.6035    8.5719  -17.5423 H   0  0  0  0  0  0  0  0  0  0  0  0
   11.0584    4.3027  -18.0023 H   0  0  0  0  0  0  0  0  0  0  0  0
   12.7831    4.5190  -17.8001 H   0  0  0  0  0  0  0  0  0  0  0  0
   12.9769    2.5179  -16.4297 H   0  0  0  0  0  0  0  0  0  0  0  0
   12.2472    2.1408  -17.9721 H   0  0  0  0  0  0  0  0  0  0  0  0
   12.3448    4.5764  -15.3794 H   0  0  0  0  0  0  0  0  0  0  0  0
  2  1  1  0
  3  2  1  0
  4  3  1  0
  5  4  1  0
  6  5  1  0
  7  6  2  0
  8  6  1  0
  9  8  1  0
 10  9  1  0
 11 10  2  0
 12 11  1  0
 13 12  2  0
 14  9  2  0
 14 13  1  0
 15 14  1  0
 16 15  1  0
 17 16  2  0
 18 17  1  0
 19 18  2  0
 20 15  2  0
 20 19  1  0
 21 20  1  0
 22 13  1  0
 22 21  1  0
 23 21  1  0
 24 23  1  0
 25 24  1  0
 26 25  1  0
 27 23  1  0
 28 19  1  0
 28 27  1  0
 29  1  1  0
 30  1  1  0
 31  1  1  0
 32  2  1  0
 33  2  1  0
 34  3  1  0
 35  3  1  0
 36  4  1  0
 37  4  1  0
 38  5  1  0
 39  5  1  0
 40 10  1  0
 41 11  1  0
 42 12  1  0
 43 16  1  0
 44 17  1  0
 45 18  1  0
 21 46  1  6
 47 22  1  0
 48 22  1  0
 49 24  1  0
 50 24  1  0
 51 25  1  0
 52 25  1  0
 53 26  1  0
 54 26  1  0
 55 26  1  0
 56 27  1  0
 57 27  1  0
 58 28  1  0
 59 28  1  0
 23 60  1  1
M  CHG  1  23   1
M  END
>  <b_m_subgroup_collapsed>  (1358) 
0

>  <r_i_docking_score>  (1358) 
-6.0200053347607199

>  <s_m_subgroup_title>  (1358) 
glide-dock_SP_D22_pv

>  <s_m_subgroupid>  (1358) 
glide-dock_SP_D22_pv

>  <Molecule ChEMBL ID>  (1358) 
CHEMBL515342

>  <Standard Type>  (1358) 
Ki

>  <Standard Value>  (1358) 
10000.0

>  <label>  (1358) 
0

$$$$
CHEMBL201598
     RDKit          3D

 47 50  0  0  1  0  0  0  0  0999 V2000
   12.3202    4.3257  -13.8340 O   0  0  0  0  0  0  0  0  0  0  0  0
   11.3779    4.1055  -14.5949 C   0  0  0  0  0  0  0  0  0  0  0  0
   11.6986    4.0547  -16.0942 C   0  0  0  0  0  0  0  0  0  0  0  0
   10.4796    4.3143  -16.9780 C   0  0  0  0  0  0  0  0  0  0  0  0
    9.3429    3.4051  -16.5307 C   0  0  0  0  0  0  0  0  0  0  0  0
    8.9486    3.6934  -15.0607 C   0  0  1  0  0  0  0  0  0  0  0  0
    7.9225    2.6652  -14.5623 C   0  0  0  0  0  0  0  0  0  0  0  0
    6.7320    3.1086  -13.9358 C   0  0  0  0  0  0  0  0  0  0  0  0
    5.7879    2.1834  -13.4469 C   0  0  0  0  0  0  0  0  0  0  0  0
    6.0076    0.8030  -13.6223 C   0  0  0  0  0  0  0  0  0  0  0  0
    7.1884    0.3506  -14.2450 C   0  0  0  0  0  0  0  0  0  0  0  0
    8.1533    1.2766  -14.6887 C   0  0  0  0  0  0  0  0  0  0  0  0
   10.1033    3.9152  -14.1577 N   0  0  0  0  0  0  0  0  0  0  0  0
    9.7770    4.1014  -12.7281 C   0  0  0  0  0  0  0  0  0  0  0  0
    9.7528    5.5845  -12.2988 C   0  0  0  0  0  0  0  0  0  0  0  0
    9.4701    5.7513  -10.8133 C   0  0  0  0  0  0  0  0  0  0  0  0
    8.6704    5.0053  -10.0323 C   0  0  0  0  0  0  0  0  0  0  0  0
    8.6804    5.4372   -8.5791 C   0  0  0  0  0  0  0  0  0  0  0  0
    9.6568    6.5860   -8.6588 C   0  0  0  0  0  0  0  0  0  0  0  0
   10.1087    7.4035   -7.6087 C   0  0  0  0  0  0  0  0  0  0  0  0
   11.0422    8.4179   -7.9143 C   0  0  0  0  0  0  0  0  0  0  0  0
   11.4973    8.5965   -9.2441 C   0  0  0  0  0  0  0  0  0  0  0  0
   11.0244    7.7739  -10.2907 C   0  0  0  0  0  0  0  0  0  0  0  0
   10.0986    6.7649   -9.9715 C   0  0  0  0  0  0  0  0  0  0  0  0
   12.4815    4.7799  -16.3173 H   0  0  0  0  0  0  0  0  0  0  0  0
   12.1182    3.0703  -16.3123 H   0  0  0  0  0  0  0  0  0  0  0  0
   10.1776    5.3597  -16.9146 H   0  0  0  0  0  0  0  0  0  0  0  0
   10.7295    4.1169  -18.0217 H   0  0  0  0  0  0  0  0  0  0  0  0
    8.4869    3.5134  -17.1952 H   0  0  0  0  0  0  0  0  0  0  0  0
    9.6765    2.3762  -16.6503 H   0  0  0  0  0  0  0  0  0  0  0  0
    8.4739    4.6745  -15.0483 H   0  0  0  0  0  0  0  0  0  0  0  0
    6.5488    4.1659  -13.8093 H   0  0  0  0  0  0  0  0  0  0  0  0
    4.8880    2.5343  -12.9645 H   0  0  0  0  0  0  0  0  0  0  0  0
    5.2757    0.0906  -13.2755 H   0  0  0  0  0  0  0  0  0  0  0  0
    7.3582   -0.7090  -14.3712 H   0  0  0  0  0  0  0  0  0  0  0  0
    9.0648    0.9051  -15.1326 H   0  0  0  0  0  0  0  0  0  0  0  0
   10.4858    3.5532  -12.1217 H   0  0  0  0  0  0  0  0  0  0  0  0
    8.8240    3.6540  -12.4658 H   0  0  0  0  0  0  0  0  0  0  0  0
    9.0309    6.1650  -12.8732 H   0  0  0  0  0  0  0  0  0  0  0  0
   10.7340    6.0189  -12.5041 H   0  0  0  0  0  0  0  0  0  0  0  0
    8.0647    4.1746  -10.3647 H   0  0  0  0  0  0  0  0  0  0  0  0
    7.7019    5.7724   -8.2482 H   0  0  0  0  0  0  0  0  0  0  0  0
    9.0459    4.6431   -7.9288 H   0  0  0  0  0  0  0  0  0  0  0  0
    9.7500    7.2561   -6.6008 H   0  0  0  0  0  0  0  0  0  0  0  0
   11.4136    9.0600   -7.1295 H   0  0  0  0  0  0  0  0  0  0  0  0
   12.2146    9.3715   -9.4662 H   0  0  0  0  0  0  0  0  0  0  0  0
   11.3722    7.9137  -11.3020 H   0  0  0  0  0  0  0  0  0  0  0  0
  2  1  2  0
  3  2  1  0
  4  3  1  0
  5  4  1  0
  6  5  1  0
  7  6  1  0
  8  7  2  0
  9  8  1  0
 10  9  2  0
 11 10  1  0
 12  7  1  0
 12 11  2  0
 13  2  1  0
 13  6  1  0
 14 13  1  0
 15 14  1  0
 16 15  1  0
 17 16  2  0
 18 17  1  0
 19 18  1  0
 20 19  2  0
 21 20  1  0
 22 21  2  0
 23 22  1  0
 24 16  1  0
 24 19  1  0
 24 23  2  0
 25  3  1  0
 26  3  1  0
 27  4  1  0
 28  4  1  0
 29  5  1  0
 30  5  1  0
  6 31  1  6
 32  8  1  0
 33  9  1  0
 34 10  1  0
 35 11  1  0
 36 12  1  0
 37 14  1  0
 38 14  1  0
 39 15  1  0
 40 15  1  0
 41 17  1  0
 42 18  1  0
 43 18  1  0
 44 20  1  0
 45 21  1  0
 46 22  1  0
 47 23  1  0
M  END
>  <b_m_subgroup_collapsed>  (1359) 
0

>  <r_i_docking_score>  (1359) 
-6.0191702408335699

>  <s_m_subgroup_title>  (1359) 
glide-dock_SP_D22_pv

>  <s_m_subgroupid>  (1359) 
glide-dock_SP_D22_pv

>  <Molecule ChEMBL ID>  (1359) 
CHEMBL201598

>  <Standard Type>  (1359) 
Ki

>  <Standard Value>  (1359) 
10000.0

>  <label>  (1359) 
0

$$$$
CHEMBL498564
     RDKit          3D

 49 50  0  0  1  0  0  0  0  0999 V2000
    5.8419    3.6342  -12.2323 C   0  0  0  0  0  0  0  0  0  0  0  0
    6.7878    4.4850  -12.9518 N   0  0  0  0  0  0  0  0  0  0  0  0
    7.8733    3.7602  -13.6174 C   0  0  0  0  0  0  0  0  0  0  0  0
    7.3975    2.6220  -14.5407 C   0  0  0  0  0  0  0  0  0  0  0  0
    8.5497    2.0024  -15.3103 C   0  0  0  0  0  0  0  0  0  0  0  0
    8.9820    0.6950  -15.0130 C   0  0  0  0  0  0  0  0  0  0  0  0
   10.0391    0.1189  -15.7404 C   0  0  0  0  0  0  0  0  0  0  0  0
   10.6774    0.8282  -16.7769 C   0  0  0  0  0  0  0  0  0  0  0  0
   11.6866    0.1715  -17.4477 O   0  0  0  0  0  0  0  0  0  0  0  0
   12.2754    0.7165  -18.5461 C   0  0  0  0  0  0  0  0  0  0  0  0
   13.1838   -0.1547  -19.0475 F   0  0  0  0  0  0  0  0  0  0  0  0
   11.3765    0.9595  -19.5316 F   0  0  0  0  0  0  0  0  0  0  0  0
   12.9443    1.8585  -18.2505 F   0  0  0  0  0  0  0  0  0  0  0  0
   10.2481    2.1470  -17.0644 C   0  0  0  0  0  0  0  0  0  0  0  0
    9.1946    2.7270  -16.3336 C   0  0  0  0  0  0  0  0  0  0  0  0
    7.3073    5.5621  -12.1012 C   0  0  0  0  0  0  0  0  0  0  0  0
    8.1953    5.0869  -10.9205 C   0  0  0  0  0  0  0  0  0  0  0  0
    8.4860    6.1723   -9.9523 N   0  0  0  0  0  0  0  0  0  0  0  0
    8.8607    5.6455   -8.6117 C   0  0  0  0  0  0  0  0  0  0  0  0
    9.0654    6.7726   -7.5847 C   0  0  0  0  0  0  0  0  0  0  0  0
   10.0858    7.8034   -8.0856 C   0  0  0  0  0  0  0  0  0  0  0  0
    9.6729    8.3195   -9.4698 C   0  0  0  0  0  0  0  0  0  0  0  0
    9.4803    7.1561  -10.4587 C   0  0  0  0  0  0  0  0  0  0  0  0
    5.1179    4.2442  -11.6902 H   0  0  0  0  0  0  0  0  0  0  0  0
    5.2743    3.0120  -12.9270 H   0  0  0  0  0  0  0  0  0  0  0  0
    6.3342    2.9748  -11.5174 H   0  0  0  0  0  0  0  0  0  0  0  0
    8.5696    3.3498  -12.8877 H   0  0  0  0  0  0  0  0  0  0  0  0
    8.4397    4.4833  -14.2065 H   0  0  0  0  0  0  0  0  0  0  0  0
    6.6476    2.9721  -15.2482 H   0  0  0  0  0  0  0  0  0  0  0  0
    6.9140    1.8380  -13.9564 H   0  0  0  0  0  0  0  0  0  0  0  0
    8.5062    0.1256  -14.2284 H   0  0  0  0  0  0  0  0  0  0  0  0
   10.3557   -0.8862  -15.5058 H   0  0  0  0  0  0  0  0  0  0  0  0
   10.7091    2.7360  -17.8419 H   0  0  0  0  0  0  0  0  0  0  0  0
    8.8862    3.7342  -16.5684 H   0  0  0  0  0  0  0  0  0  0  0  0
    7.8614    6.2587  -12.7311 H   0  0  0  0  0  0  0  0  0  0  0  0
    6.4540    6.1255  -11.7195 H   0  0  0  0  0  0  0  0  0  0  0  0
    7.6860    4.2865  -10.3849 H   0  0  0  0  0  0  0  0  0  0  0  0
    9.1367    4.6644  -11.2712 H   0  0  0  0  0  0  0  0  0  0  0  0
    8.0859    4.9714   -8.2468 H   0  0  0  0  0  0  0  0  0  0  0  0
    9.7747    5.0539   -8.6995 H   0  0  0  0  0  0  0  0  0  0  0  0
    8.1145    7.2655   -7.3786 H   0  0  0  0  0  0  0  0  0  0  0  0
    9.3971    6.3529   -6.6342 H   0  0  0  0  0  0  0  0  0  0  0  0
   10.1612    8.6324   -7.3802 H   0  0  0  0  0  0  0  0  0  0  0  0
   11.0766    7.3486   -8.1385 H   0  0  0  0  0  0  0  0  0  0  0  0
    8.7461    8.8902   -9.3890 H   0  0  0  0  0  0  0  0  0  0  0  0
   10.4265    9.0108   -9.8481 H   0  0  0  0  0  0  0  0  0  0  0  0
   10.4340    6.6567  -10.6374 H   0  0  0  0  0  0  0  0  0  0  0  0
    9.1502    7.5613  -11.4149 H   0  0  0  0  0  0  0  0  0  0  0  0
    7.6136    6.7036   -9.8472 H   0  0  0  0  0  0  0  0  0  0  0  0
  2  1  1  0
  3  2  1  0
  4  3  1  0
  5  4  1  0
  6  5  1  0
  7  6  2  0
  8  7  1  0
  9  8  1  0
 10  9  1  0
 11 10  1  0
 12 10  1  0
 13 10  1  0
 14  8  2  0
 15  5  2  0
 15 14  1  0
 16  2  1  0
 17 16  1  0
 18 17  1  0
 19 18  1  0
 20 19  1  0
 21 20  1  0
 22 21  1  0
 23 18  1  0
 23 22  1  0
 24  1  1  0
 25  1  1  0
 26  1  1  0
 27  3  1  0
 28  3  1  0
 29  4  1  0
 30  4  1  0
 31  6  1  0
 32  7  1  0
 33 14  1  0
 34 15  1  0
 35 16  1  0
 36 16  1  0
 37 17  1  0
 38 17  1  0
 39 19  1  0
 40 19  1  0
 41 20  1  0
 42 20  1  0
 43 21  1  0
 44 21  1  0
 45 22  1  0
 46 22  1  0
 47 23  1  0
 48 23  1  0
 49 18  1  0
M  CHG  1  18   1
M  END
>  <b_m_subgroup_collapsed>  (1360) 
0

>  <r_i_docking_score>  (1360) 
-6.0177054068780604

>  <s_m_subgroup_title>  (1360) 
glide-dock_SP_D22_pv

>  <s_m_subgroupid>  (1360) 
glide-dock_SP_D22_pv

>  <Molecule ChEMBL ID>  (1360) 
CHEMBL498564

>  <Standard Type>  (1360) 
Ki

>  <Standard Value>  (1360) 
10000.0

>  <label>  (1360) 
0

$$$$
CHEMBL329566
     RDKit          3D

 46 49  0  0  1  0  0  0  0  0999 V2000
    5.5046   -0.8949  -17.2064 C   0  0  0  0  0  0  0  0  0  0  0  0
    6.4849   -0.6278  -16.1285 N   0  0  0  0  0  0  0  0  0  0  0  0
    5.8040   -0.4175  -14.8280 C   0  0  0  0  0  0  0  0  0  0  0  0
    7.4434    0.4490  -16.5022 C   0  0  0  0  0  0  0  0  0  0  0  0
    8.6476    0.5622  -15.5378 C   0  0  1  0  0  0  0  0  0  0  0  0
    9.7981    1.4188  -16.0911 C   0  0  0  0  0  0  0  0  0  0  0  0
    9.4922    2.8122  -15.5592 C   0  0  2  0  0  0  0  0  0  0  0  0
   10.6502    3.8200  -15.6083 C   0  0  0  0  0  0  0  0  0  0  0  0
   11.3962    3.8725  -16.8110 C   0  0  0  0  0  0  0  0  0  0  0  0
   12.4804    4.7514  -16.9654 C   0  0  0  0  0  0  0  0  0  0  0  0
   12.8350    5.6094  -15.9144 C   0  0  0  0  0  0  0  0  0  0  0  0
   12.0934    5.5919  -14.7220 C   0  0  0  0  0  0  0  0  0  0  0  0
   10.9930    4.7204  -14.5498 C   0  0  0  0  0  0  0  0  0  0  0  0
   10.2937    4.7954  -13.1889 C   0  0  0  0  0  0  0  0  0  0  0  0
    8.7751    4.7409  -13.1785 C   0  0  0  0  0  0  0  0  0  0  0  0
    8.0241    5.8131  -12.6504 C   0  0  0  0  0  0  0  0  0  0  0  0
    6.6214    5.7282  -12.5814 C   0  0  0  0  0  0  0  0  0  0  0  0
    5.9598    4.5753  -13.0446 C   0  0  0  0  0  0  0  0  0  0  0  0
    6.7014    3.5067  -13.5745 C   0  0  0  0  0  0  0  0  0  0  0  0
    8.1093    3.5837  -13.6259 C   0  0  0  0  0  0  0  0  0  0  0  0
    8.9331    2.4509  -14.1895 C   0  0  1  0  0  0  0  0  0  0  0  0
    8.1964    1.2532  -14.3799 O   0  0  0  0  0  0  0  0  0  0  0  0
    4.8760   -0.0177  -17.3834 H   0  0  0  0  0  0  0  0  0  0  0  0
    4.8550   -1.7353  -16.9410 H   0  0  0  0  0  0  0  0  0  0  0  0
    6.0090   -1.1568  -18.1407 H   0  0  0  0  0  0  0  0  0  0  0  0
    5.2740    0.5387  -14.8055 H   0  0  0  0  0  0  0  0  0  0  0  0
    6.5179   -0.4481  -14.0027 H   0  0  0  0  0  0  0  0  0  0  0  0
    5.0808   -1.2170  -14.6455 H   0  0  0  0  0  0  0  0  0  0  0  0
    7.8286    0.2175  -17.4992 H   0  0  0  0  0  0  0  0  0  0  0  0
    6.9221    1.4038  -16.5830 H   0  0  0  0  0  0  0  0  0  0  0  0
    9.0160   -0.4293  -15.2705 H   0  0  0  0  0  0  0  0  0  0  0  0
   10.7420    1.0689  -15.6690 H   0  0  0  0  0  0  0  0  0  0  0  0
    9.8852    1.3699  -17.1765 H   0  0  0  0  0  0  0  0  0  0  0  0
    8.6887    3.2317  -16.1637 H   0  0  0  0  0  0  0  0  0  0  0  0
   11.1417    3.2291  -17.6384 H   0  0  0  0  0  0  0  0  0  0  0  0
   13.0421    4.7666  -17.8886 H   0  0  0  0  0  0  0  0  0  0  0  0
   13.6745    6.2814  -16.0204 H   0  0  0  0  0  0  0  0  0  0  0  0
   12.3913    6.2601  -13.9257 H   0  0  0  0  0  0  0  0  0  0  0  0
   10.6766    3.9953  -12.5578 H   0  0  0  0  0  0  0  0  0  0  0  0
   10.5951    5.7169  -12.6875 H   0  0  0  0  0  0  0  0  0  0  0  0
    8.5155    6.6988  -12.2750 H   0  0  0  0  0  0  0  0  0  0  0  0
    6.0547    6.5479  -12.1632 H   0  0  0  0  0  0  0  0  0  0  0  0
    4.8858    4.5131  -12.9950 H   0  0  0  0  0  0  0  0  0  0  0  0
    6.1837    2.6315  -13.9341 H   0  0  0  0  0  0  0  0  0  0  0  0
    9.7437    2.1919  -13.5051 H   0  0  0  0  0  0  0  0  0  0  0  0
    7.0270   -1.4844  -16.0223 H   0  0  0  0  0  0  0  0  0  0  0  0
  2  1  1  0
  3  2  1  0
  4  2  1  0
  5  4  1  0
  6  5  1  0
  7  6  1  0
  8  7  1  0
  9  8  2  0
 10  9  1  0
 11 10  2  0
 12 11  1  0
 13  8  1  0
 13 12  2  0
 14 13  1  0
 15 14  1  0
 16 15  2  0
 17 16  1  0
 18 17  2  0
 19 18  1  0
 20 15  1  0
 20 19  2  0
 21  7  1  0
 21 20  1  0
 22  5  1  0
 22 21  1  0
 23  1  1  0
 24  1  1  0
 25  1  1  0
 26  3  1  0
 27  3  1  0
 28  3  1  0
 29  4  1  0
 30  4  1  0
  5 31  1  1
 32  6  1  0
 33  6  1  0
  7 34  1  6
 35  9  1  0
 36 10  1  0
 37 11  1  0
 38 12  1  0
 39 14  1  0
 40 14  1  0
 41 16  1  0
 42 17  1  0
 43 18  1  0
 44 19  1  0
 21 45  1  1
 46  2  1  0
M  CHG  1   2   1
M  END
>  <b_m_subgroup_collapsed>  (1361) 
0

>  <r_i_docking_score>  (1361) 
-6.0147540225417497

>  <s_m_subgroup_title>  (1361) 
glide-dock_SP_D22_pv

>  <s_m_subgroupid>  (1361) 
glide-dock_SP_D22_pv

>  <Molecule ChEMBL ID>  (1361) 
CHEMBL329566

>  <Standard Type>  (1361) 
Ki

>  <Standard Value>  (1361) 
61.0

>  <label>  (1361) 
1

$$$$
CHEMBL605405
     RDKit          3D

 46 49  0  0  1  0  0  0  0  0999 V2000
   13.1491    4.5972  -15.0726 C   0  0  0  0  0  0  0  0  0  0  0  0
   12.0790    5.1487  -14.1661 C   0  0  0  0  0  0  0  0  0  0  0  0
   12.2905    6.3778  -13.5047 C   0  0  0  0  0  0  0  0  0  0  0  0
   11.2860    6.9224  -12.6928 C   0  0  0  0  0  0  0  0  0  0  0  0
   10.0354    6.2880  -12.6480 C   0  0  0  0  0  0  0  0  0  0  0  0
    9.7957    5.0356  -13.2935 C   0  0  0  0  0  0  0  0  0  0  0  0
   10.8629    4.4556  -14.0103 C   0  0  0  0  0  0  0  0  0  0  0  0
    8.4198    4.6879  -13.0956 C   0  0  0  0  0  0  0  0  0  0  0  0
    7.8321    5.7584  -12.4862 C   0  0  0  0  0  0  0  0  0  0  0  0
    8.7974    6.7202  -12.2288 N   0  0  0  0  0  0  0  0  0  0  0  0
    8.4322    8.0222  -11.8469 C   0  0  0  0  0  0  0  0  0  0  0  0
    8.9144    8.6350  -10.7473 C   0  0  0  0  0  0  0  0  0  0  0  0
    9.7436    8.0567   -9.6800 C   0  0  0  0  0  0  0  0  0  0  0  0
   10.8602    8.7622   -9.1831 C   0  0  0  0  0  0  0  0  0  0  0  0
   11.6056    8.2433   -8.1053 C   0  0  0  0  0  0  0  0  0  0  0  0
   11.2335    7.0216   -7.5130 C   0  0  0  0  0  0  0  0  0  0  0  0
   10.1284    6.3088   -8.0136 C   0  0  0  0  0  0  0  0  0  0  0  0
    9.3945    6.8194   -9.0984 C   0  0  0  0  0  0  0  0  0  0  0  0
    6.3908    5.8153  -12.1273 C   0  0  0  0  0  0  0  0  0  0  0  0
    5.6175    4.6303  -12.7316 C   0  0  0  0  0  0  0  0  0  0  0  0
    6.4057    3.3726  -12.7189 N   0  0  1  0  0  0  0  0  0  0  0  0
    5.5860    2.1877  -13.0542 C   0  0  0  0  0  0  0  0  0  0  0  0
    7.6472    3.4815  -13.5338 C   0  0  0  0  0  0  0  0  0  0  0  0
   14.0860    4.5726  -14.5264 H   0  0  0  0  0  0  0  0  0  0  0  0
   12.9049    3.5911  -15.4163 H   0  0  0  0  0  0  0  0  0  0  0  0
   13.2787    5.2401  -15.9440 H   0  0  0  0  0  0  0  0  0  0  0  0
   13.2233    6.9098  -13.6254 H   0  0  0  0  0  0  0  0  0  0  0  0
   11.4353    7.8636  -12.1932 H   0  0  0  0  0  0  0  0  0  0  0  0
   10.7066    3.5192  -14.5236 H   0  0  0  0  0  0  0  0  0  0  0  0
    7.7304    8.4845  -12.5231 H   0  0  0  0  0  0  0  0  0  0  0  0
    8.6044    9.6561  -10.5799 H   0  0  0  0  0  0  0  0  0  0  0  0
   11.1423    9.7113   -9.6172 H   0  0  0  0  0  0  0  0  0  0  0  0
   12.4570    8.7910   -7.7274 H   0  0  0  0  0  0  0  0  0  0  0  0
   11.7965    6.6274   -6.6780 H   0  0  0  0  0  0  0  0  0  0  0  0
    9.8371    5.3745   -7.5596 H   0  0  0  0  0  0  0  0  0  0  0  0
    8.5266    6.2815   -9.4560 H   0  0  0  0  0  0  0  0  0  0  0  0
    6.3097    5.7723  -11.0468 H   0  0  0  0  0  0  0  0  0  0  0  0
    5.9401    6.7599  -12.4322 H   0  0  0  0  0  0  0  0  0  0  0  0
    5.2930    4.8521  -13.7491 H   0  0  0  0  0  0  0  0  0  0  0  0
    4.7421    4.4590  -12.1191 H   0  0  0  0  0  0  0  0  0  0  0  0
    5.2943    2.2108  -14.1006 H   0  0  0  0  0  0  0  0  0  0  0  0
    6.1231    1.2565  -12.8790 H   0  0  0  0  0  0  0  0  0  0  0  0
    4.6799    2.1576  -12.4493 H   0  0  0  0  0  0  0  0  0  0  0  0
    7.3823    3.5731  -14.5871 H   0  0  0  0  0  0  0  0  0  0  0  0
    8.2531    2.5791  -13.4471 H   0  0  0  0  0  0  0  0  0  0  0  0
    6.7072    3.2587  -11.7604 H   0  0  0  0  0  0  0  0  0  0  0  0
  2  1  1  0
  3  2  2  0
  4  3  1  0
  5  4  2  0
  6  5  1  0
  7  2  1  0
  7  6  2  0
  8  6  1  0
  9  8  2  0
 10  5  1  0
 10  9  1  0
 11 10  1  0
 12 11  2  0
 13 12  1  0
 14 13  2  0
 15 14  1  0
 16 15  2  0
 17 16  1  0
 18 13  1  0
 18 17  2  0
 19  9  1  0
 20 19  1  0
 21 20  1  0
 22 21  1  0
 23  8  1  0
 23 21  1  0
 24  1  1  0
 25  1  1  0
 26  1  1  0
 27  3  1  0
 28  4  1  0
 29  7  1  0
 30 11  1  0
 31 12  1  0
 32 14  1  0
 33 15  1  0
 34 16  1  0
 35 17  1  0
 36 18  1  0
 37 19  1  0
 38 19  1  0
 39 20  1  0
 40 20  1  0
 41 22  1  0
 42 22  1  0
 43 22  1  0
 44 23  1  0
 45 23  1  0
 21 46  1  1
M  CHG  1  21   1
M  END
>  <b_m_subgroup_collapsed>  (1362) 
0

>  <r_i_docking_score>  (1362) 
-6.0131745222247996

>  <s_m_subgroup_title>  (1362) 
glide-dock_SP_D22_pv

>  <s_m_subgroupid>  (1362) 
glide-dock_SP_D22_pv

>  <Molecule ChEMBL ID>  (1362) 
CHEMBL605405

>  <Standard Type>  (1362) 
Ki

>  <Standard Value>  (1362) 
34.67

>  <label>  (1362) 
1

$$$$
CHEMBL2443262
     RDKit          3D

 58 61  0  0  1  0  0  0  0  0999 V2000
    9.2618    1.8922  -15.9195 C   0  0  0  0  0  0  0  0  0  0  0  0
    8.3088    2.6294  -15.1690 O   0  0  0  0  0  0  0  0  0  0  0  0
    7.3296    1.9225  -14.5531 C   0  0  0  0  0  0  0  0  0  0  0  0
    7.1121    0.5061  -14.6266 C   0  0  0  0  0  0  0  0  0  0  0  0
    6.0530    0.0814  -13.8721 C   0  0  0  0  0  0  0  0  0  0  0  0
    5.2860    1.4055  -13.0470 S   0  0  0  0  0  0  0  0  0  0  0  0
    6.4112    2.5461  -13.7413 C   0  0  0  0  0  0  0  0  0  0  0  0
    6.3315    4.0002  -13.4059 C   0  0  0  0  0  0  0  0  0  0  0  0
    7.1357    4.3101  -12.2093 N   0  0  0  0  0  0  0  0  0  0  0  0
    7.4340    5.7397  -11.9977 C   0  0  0  0  0  0  0  0  0  0  0  0
    8.4281    5.9026  -10.8118 C   0  0  0  0  0  0  0  0  0  0  0  0
    9.6504    6.8614  -11.0317 C   0  0  1  0  0  0  0  0  0  0  0  0
   10.4854    6.4109  -12.2616 C   0  0  0  0  0  0  0  0  0  0  0  0
   11.5683    7.1940  -12.7334 C   0  0  0  0  0  0  0  0  0  0  0  0
   12.3077    6.7525  -13.8463 C   0  0  0  0  0  0  0  0  0  0  0  0
   11.9825    5.5162  -14.4291 C   0  0  0  0  0  0  0  0  0  0  0  0
   10.9335    4.7723  -13.8652 C   0  0  0  0  0  0  0  0  0  0  0  0
   10.2096    5.1985  -12.8100 N   0  0  0  0  0  0  0  0  0  0  0  0
    9.1363    8.3176  -11.2558 C   0  0  0  0  0  0  0  0  0  0  0  0
    8.9439    9.1443   -9.9769 C   0  0  0  0  0  0  0  0  0  0  0  0
   10.1232    9.0962   -9.1945 O   0  0  0  0  0  0  0  0  0  0  0  0
   10.3560    7.8136   -8.6346 C   0  0  0  0  0  0  0  0  0  0  0  0
    9.2692    7.4191   -7.6190 C   0  0  0  0  0  0  0  0  0  0  0  0
    9.9425    6.4386   -6.6728 C   0  0  0  0  0  0  0  0  0  0  0  0
   11.4167    6.8433   -6.6361 C   0  0  0  0  0  0  0  0  0  0  0  0
   11.5877    7.9199   -7.7173 C   0  0  0  0  0  0  0  0  0  0  0  0
   10.5992    6.7987   -9.7879 C   0  0  0  0  0  0  0  0  0  0  0  0
    9.9913    2.5774  -16.3506 H   0  0  0  0  0  0  0  0  0  0  0  0
    9.8022    1.1847  -15.2884 H   0  0  0  0  0  0  0  0  0  0  0  0
    8.7907    1.3522  -16.7419 H   0  0  0  0  0  0  0  0  0  0  0  0
    7.7263   -0.1603  -15.2150 H   0  0  0  0  0  0  0  0  0  0  0  0
    5.6863   -0.9292  -13.7579 H   0  0  0  0  0  0  0  0  0  0  0  0
    5.2972    4.3073  -13.2470 H   0  0  0  0  0  0  0  0  0  0  0  0
    6.7095    4.5748  -14.2472 H   0  0  0  0  0  0  0  0  0  0  0  0
    8.0276    3.8472  -12.3174 H   0  0  0  0  0  0  0  0  0  0  0  0
    6.5015    6.2801  -11.8468 H   0  0  0  0  0  0  0  0  0  0  0  0
    7.8444    6.1538  -12.9179 H   0  0  0  0  0  0  0  0  0  0  0  0
    8.8301    4.9217  -10.5528 H   0  0  0  0  0  0  0  0  0  0  0  0
    7.8525    6.1719   -9.9328 H   0  0  0  0  0  0  0  0  0  0  0  0
   11.8486    8.1194  -12.2465 H   0  0  0  0  0  0  0  0  0  0  0  0
   13.1294    7.3400  -14.2295 H   0  0  0  0  0  0  0  0  0  0  0  0
   12.5386    5.1389  -15.2741 H   0  0  0  0  0  0  0  0  0  0  0  0
   10.6691    3.8065  -14.2678 H   0  0  0  0  0  0  0  0  0  0  0  0
    9.8445    8.8908  -11.8451 H   0  0  0  0  0  0  0  0  0  0  0  0
    8.2211    8.3291  -11.8476 H   0  0  0  0  0  0  0  0  0  0  0  0
    8.7412   10.1723  -10.2470 H   0  0  0  0  0  0  0  0  0  0  0  0
    8.0861    8.8671   -9.3798 H   0  0  0  0  0  0  0  0  0  0  0  0
    8.9567    8.2995   -7.0547 H   0  0  0  0  0  0  0  0  0  0  0  0
    8.3741    6.9928   -8.0574 H   0  0  0  0  0  0  0  0  0  0  0  0
    9.4810    6.4392   -5.6853 H   0  0  0  0  0  0  0  0  0  0  0  0
    9.8436    5.4387   -7.0932 H   0  0  0  0  0  0  0  0  0  0  0  0
   11.6868    7.2323   -5.6542 H   0  0  0  0  0  0  0  0  0  0  0  0
   12.0503    5.9787   -6.8368 H   0  0  0  0  0  0  0  0  0  0  0  0
   12.5379    7.8394   -8.2462 H   0  0  0  0  0  0  0  0  0  0  0  0
   11.5869    8.8979   -7.2327 H   0  0  0  0  0  0  0  0  0  0  0  0
   10.6556    5.7810   -9.4022 H   0  0  0  0  0  0  0  0  0  0  0  0
   11.6112    7.0089  -10.1312 H   0  0  0  0  0  0  0  0  0  0  0  0
    6.6749    3.9507  -11.3836 H   0  0  0  0  0  0  0  0  0  0  0  0
  2  1  1  0
  3  2  1  0
  4  3  1  0
  5  4  2  0
  6  5  1  0
  7  3  2  0
  7  6  1  0
  8  7  1  0
  9  8  1  0
 10  9  1  0
 11 10  1  0
 12 11  1  1
 13 12  1  0
 14 13  2  0
 15 14  1  0
 16 15  2  0
 17 16  1  0
 18 13  1  0
 18 17  2  0
 19 12  1  0
 20 19  1  0
 21 20  1  0
 22 21  1  0
 23 22  1  0
 24 23  1  0
 25 24  1  0
 26 22  1  0
 26 25  1  0
 27 12  1  0
 27 22  1  0
 28  1  1  0
 29  1  1  0
 30  1  1  0
 31  4  1  0
 32  5  1  0
 33  8  1  0
 34  8  1  0
 35  9  1  0
 36 10  1  0
 37 10  1  0
 38 11  1  0
 39 11  1  0
 40 14  1  0
 41 15  1  0
 42 16  1  0
 43 17  1  0
 44 19  1  0
 45 19  1  0
 46 20  1  0
 47 20  1  0
 48 23  1  0
 49 23  1  0
 50 24  1  0
 51 24  1  0
 52 25  1  0
 53 25  1  0
 54 26  1  0
 55 26  1  0
 56 27  1  0
 57 27  1  0
 58  9  1  0
M  CHG  1   9   1
M  END
>  <b_m_subgroup_collapsed>  (1363) 
0

>  <r_i_docking_score>  (1363) 
-6.01116474796983

>  <s_m_subgroup_title>  (1363) 
glide-dock_SP_D22_pv

>  <s_m_subgroupid>  (1363) 
glide-dock_SP_D22_pv

>  <Molecule ChEMBL ID>  (1363) 
CHEMBL2443262

>  <Standard Type>  (1363) 
Ki

>  <Standard Value>  (1363) 
83200.0

>  <label>  (1363) 
0

$$$$
CHEMBL350161
     RDKit          3D

 41 41  0  0  1  0  0  0  0  0999 V2000
   11.1386    9.1942   -9.8555 C   0  0  0  0  0  0  0  0  0  0  0  0
    9.8952    8.3246  -10.1043 C   0  0  0  0  0  0  0  0  0  0  0  0
    9.0825    7.8745   -8.8595 C   0  0  0  0  0  0  0  0  0  0  0  0
    9.7985    7.0211   -7.8619 N   0  0  0  0  0  0  0  0  0  0  0  0
   10.4863    5.8581   -8.4970 C   0  0  0  0  0  0  0  0  0  0  0  0
    9.5597    4.9251   -9.3107 C   0  0  0  0  0  0  0  0  0  0  0  0
    8.4833    4.2418   -8.4749 C   0  0  0  0  0  0  0  0  0  0  0  0
   10.6619    7.7310   -6.8543 C   0  0  0  0  0  0  0  0  0  0  0  0
   10.7850    6.9341   -5.5337 C   0  0  0  0  0  0  0  0  0  0  0  0
   11.6841    7.6095   -4.4728 C   0  0  0  0  0  0  0  0  0  0  0  0
   11.5242    9.1254   -4.3642 C   0  0  0  0  0  0  0  0  0  0  0  0
   11.7755    9.7941   -3.2317 C   0  0  0  0  0  0  0  0  0  0  0  0
   12.3379    9.1394   -2.1163 C   0  0  0  0  0  0  0  0  0  0  0  0
   12.8859    8.5709   -1.2834 N   0  0  0  0  0  0  0  0  0  0  0  0
   11.2081    9.8768   -5.6360 C   0  0  0  0  0  0  0  0  0  0  0  0
   10.1684    9.1429   -6.4672 C   0  0  0  0  0  0  0  0  0  0  0  0
   11.6603    9.3758  -10.7922 H   0  0  0  0  0  0  0  0  0  0  0  0
   10.8844   10.1685   -9.4439 H   0  0  0  0  0  0  0  0  0  0  0  0
   11.8687    8.7167   -9.2076 H   0  0  0  0  0  0  0  0  0  0  0  0
   10.1895    7.4595  -10.6976 H   0  0  0  0  0  0  0  0  0  0  0  0
    9.2182    8.8811  -10.7545 H   0  0  0  0  0  0  0  0  0  0  0  0
    8.2803    7.2368   -9.2143 H   0  0  0  0  0  0  0  0  0  0  0  0
    8.5371    8.7018   -8.4085 H   0  0  0  0  0  0  0  0  0  0  0  0
   11.2815    6.2293   -9.1421 H   0  0  0  0  0  0  0  0  0  0  0  0
   10.9934    5.2696   -7.7420 H   0  0  0  0  0  0  0  0  0  0  0  0
    9.0942    5.4538  -10.1409 H   0  0  0  0  0  0  0  0  0  0  0  0
   10.1384    4.1369   -9.7856 H   0  0  0  0  0  0  0  0  0  0  0  0
    7.7501    3.7725   -9.1301 H   0  0  0  0  0  0  0  0  0  0  0  0
    8.8861    3.4516   -7.8471 H   0  0  0  0  0  0  0  0  0  0  0  0
    7.9455    4.9524   -7.8472 H   0  0  0  0  0  0  0  0  0  0  0  0
   11.6623    7.8227   -7.2748 H   0  0  0  0  0  0  0  0  0  0  0  0
   11.1848    5.9373   -5.7053 H   0  0  0  0  0  0  0  0  0  0  0  0
    9.7898    6.7817   -5.1148 H   0  0  0  0  0  0  0  0  0  0  0  0
   12.7322    7.3976   -4.6468 H   0  0  0  0  0  0  0  0  0  0  0  0
   11.4711    7.1440   -3.5096 H   0  0  0  0  0  0  0  0  0  0  0  0
   11.6856   10.8655   -3.1703 H   0  0  0  0  0  0  0  0  0  0  0  0
   10.8592   10.8839   -5.4019 H   0  0  0  0  0  0  0  0  0  0  0  0
   12.1300    9.9925   -6.2090 H   0  0  0  0  0  0  0  0  0  0  0  0
    9.9771    9.7719   -7.3315 H   0  0  0  0  0  0  0  0  0  0  0  0
    9.2544    9.0733   -5.8757 H   0  0  0  0  0  0  0  0  0  0  0  0
    9.0445    6.6292   -7.3142 H   0  0  0  0  0  0  0  0  0  0  0  0
  2  1  1  0
  3  2  1  0
  4  3  1  0
  5  4  1  0
  6  5  1  0
  7  6  1  0
  8  4  1  0
  9  8  1  0
 10  9  1  0
 11 10  1  0
 12 11  2  0
 13 12  1  0
 14 13  3  0
 15 11  1  0
 16  8  1  0
 16 15  1  0
 17  1  1  0
 18  1  1  0
 19  1  1  0
 20  2  1  0
 21  2  1  0
 22  3  1  0
 23  3  1  0
 24  5  1  0
 25  5  1  0
 26  6  1  0
 27  6  1  0
 28  7  1  0
 29  7  1  0
 30  7  1  0
 31  8  1  0
 32  9  1  0
 33  9  1  0
 34 10  1  0
 35 10  1  0
 36 12  1  0
 37 15  1  0
 38 15  1  0
 39 16  1  0
 40 16  1  0
 41  4  1  0
M  CHG  1   4   1
M  END
>  <b_m_subgroup_collapsed>  (1364) 
0

>  <r_i_docking_score>  (1364) 
-6.0058988209831803

>  <s_m_subgroup_title>  (1364) 
glide-dock_SP_D22_pv

>  <s_m_subgroupid>  (1364) 
glide-dock_SP_D22_pv

>  <Molecule ChEMBL ID>  (1364) 
CHEMBL350161

>  <Standard Type>  (1364) 
Ki

>  <Standard Value>  (1364) 
20000.0

>  <label>  (1364) 
0

$$$$
CHEMBL594789
     RDKit          3D

 45 47  0  0  1  0  0  0  0  0999 V2000
    6.2320    5.7339  -12.4119 C   0  0  0  0  0  0  0  0  0  0  0  0
    5.9866    4.5276  -13.1312 O   0  0  0  0  0  0  0  0  0  0  0  0
    7.0771    3.8102  -13.5801 C   0  0  0  0  0  0  0  0  0  0  0  0
    6.8317    2.5683  -14.1921 C   0  0  0  0  0  0  0  0  0  0  0  0
    7.8989    1.7717  -14.6466 C   0  0  0  0  0  0  0  0  0  0  0  0
    9.2385    2.1924  -14.5017 C   0  0  0  0  0  0  0  0  0  0  0  0
    9.4977    3.4680  -13.9255 C   0  0  0  0  0  0  0  0  0  0  0  0
    8.4145    4.2537  -13.4689 C   0  0  0  0  0  0  0  0  0  0  0  0
   10.8910    4.0620  -13.7274 C   0  0  0  0  0  0  0  0  0  0  0  0
   11.1637    5.2934  -14.6210 C   0  0  0  0  0  0  0  0  0  0  0  0
   12.1662    5.1145  -15.7894 C   0  0  0  0  0  0  0  0  0  0  0  0
   11.7469    4.1897  -16.8789 N   0  0  2  0  0  0  0  0  0  0  0  0
   10.3417    4.3542  -17.3278 C   0  0  0  0  0  0  0  0  0  0  0  0
   12.2486    2.7973  -16.6913 C   0  0  0  0  0  0  0  0  0  0  0  0
   11.3618    1.6833  -17.2302 C   0  0  0  0  0  0  0  0  0  0  0  0
   11.4693    1.3517  -18.6011 C   0  0  0  0  0  0  0  0  0  0  0  0
   10.6875    0.3229  -19.1565 C   0  0  0  0  0  0  0  0  0  0  0  0
    9.7900   -0.3890  -18.3424 C   0  0  0  0  0  0  0  0  0  0  0  0
    9.6823   -0.0728  -16.9766 C   0  0  0  0  0  0  0  0  0  0  0  0
   10.4637    0.9550  -16.3999 C   0  0  0  0  0  0  0  0  0  0  0  0
   10.3311    1.1961  -14.8973 C   0  0  0  0  0  0  0  0  0  0  0  0
    5.2877    6.1663  -12.0780 H   0  0  0  0  0  0  0  0  0  0  0  0
    6.7266    6.4751  -13.0406 H   0  0  0  0  0  0  0  0  0  0  0  0
    6.8380    5.5494  -11.5202 H   0  0  0  0  0  0  0  0  0  0  0  0
    5.8190    2.2058  -14.2638 H   0  0  0  0  0  0  0  0  0  0  0  0
    7.6790    0.8048  -15.0733 H   0  0  0  0  0  0  0  0  0  0  0  0
    8.6402    5.2067  -13.0148 H   0  0  0  0  0  0  0  0  0  0  0  0
   10.9144    4.3909  -12.6870 H   0  0  0  0  0  0  0  0  0  0  0  0
   11.6947    3.3383  -13.7884 H   0  0  0  0  0  0  0  0  0  0  0  0
   10.2345    5.7450  -14.9679 H   0  0  0  0  0  0  0  0  0  0  0  0
   11.6018    6.0560  -13.9730 H   0  0  0  0  0  0  0  0  0  0  0  0
   12.3141    6.0912  -16.2513 H   0  0  0  0  0  0  0  0  0  0  0  0
   13.1492    4.8290  -15.4095 H   0  0  0  0  0  0  0  0  0  0  0  0
    9.6297    3.9305  -16.6221 H   0  0  0  0  0  0  0  0  0  0  0  0
   10.1809    3.8744  -18.2930 H   0  0  0  0  0  0  0  0  0  0  0  0
   10.1007    5.4093  -17.4583 H   0  0  0  0  0  0  0  0  0  0  0  0
   13.2172    2.7363  -17.1923 H   0  0  0  0  0  0  0  0  0  0  0  0
   12.4854    2.6089  -15.6519 H   0  0  0  0  0  0  0  0  0  0  0  0
   12.1546    1.8911  -19.2387 H   0  0  0  0  0  0  0  0  0  0  0  0
   10.7725    0.0830  -20.2072 H   0  0  0  0  0  0  0  0  0  0  0  0
    9.1862   -1.1832  -18.7666 H   0  0  0  0  0  0  0  0  0  0  0  0
    8.9904   -0.6284  -16.3612 H   0  0  0  0  0  0  0  0  0  0  0  0
   11.2853    1.3991  -14.4282 H   0  0  0  0  0  0  0  0  0  0  0  0
   10.0509    0.2435  -14.4444 H   0  0  0  0  0  0  0  0  0  0  0  0
   12.2764    4.5092  -17.6783 H   0  0  0  0  0  0  0  0  0  0  0  0
  2  1  1  0
  3  2  1  0
  4  3  1  0
  5  4  2  0
  6  5  1  0
  7  6  2  0
  8  3  2  0
  8  7  1  0
  9  7  1  0
 10  9  1  0
 11 10  1  0
 12 11  1  0
 13 12  1  0
 14 12  1  0
 15 14  1  0
 16 15  2  0
 17 16  1  0
 18 17  2  0
 19 18  1  0
 20 15  1  0
 20 19  2  0
 21  6  1  0
 21 20  1  0
 22  1  1  0
 23  1  1  0
 24  1  1  0
 25  4  1  0
 26  5  1  0
 27  8  1  0
 28  9  1  0
 29  9  1  0
 30 10  1  0
 31 10  1  0
 32 11  1  0
 33 11  1  0
 34 13  1  0
 35 13  1  0
 36 13  1  0
 37 14  1  0
 38 14  1  0
 39 16  1  0
 40 17  1  0
 41 18  1  0
 42 19  1  0
 43 21  1  0
 44 21  1  0
 12 45  1  6
M  CHG  1  12   1
M  END
>  <b_m_subgroup_collapsed>  (1365) 
0

>  <r_i_docking_score>  (1365) 
-5.9947479199997602

>  <s_m_subgroup_title>  (1365) 
glide-dock_SP_D22_pv

>  <s_m_subgroupid>  (1365) 
glide-dock_SP_D22_pv

>  <Molecule ChEMBL ID>  (1365) 
CHEMBL594789

>  <Standard Type>  (1365) 
Ki

>  <Standard Value>  (1365) 
10000.0

>  <label>  (1365) 
0

$$$$
CHEMBL497549
     RDKit          3D

 49 50  0  0  1  0  0  0  0  0999 V2000
    8.4505    5.9342  -13.0875 C   0  0  0  0  0  0  0  0  0  0  0  0
    8.2676    4.8462  -12.1296 N   0  0  0  0  0  0  0  0  0  0  0  0
    6.8528    4.5699  -11.8505 C   0  0  0  0  0  0  0  0  0  0  0  0
    6.0217    4.1114  -13.0742 C   0  0  0  0  0  0  0  0  0  0  0  0
    6.4588    2.7876  -13.6873 C   0  0  0  0  0  0  0  0  0  0  0  0
    5.7166    1.6111  -13.4456 C   0  0  0  0  0  0  0  0  0  0  0  0
    6.1388    0.3873  -13.9987 C   0  0  0  0  0  0  0  0  0  0  0  0
    7.2931    0.3305  -14.8059 C   0  0  0  0  0  0  0  0  0  0  0  0
    8.0334    1.5091  -15.0724 C   0  0  0  0  0  0  0  0  0  0  0  0
    9.1615    1.5735  -15.8647 O   0  0  0  0  0  0  0  0  0  0  0  0
    9.8700    0.4549  -16.1640 C   0  0  0  0  0  0  0  0  0  0  0  0
   11.0234    0.8031  -16.7849 F   0  0  0  0  0  0  0  0  0  0  0  0
   10.2175   -0.2276  -15.0470 F   0  0  0  0  0  0  0  0  0  0  0  0
    9.1965   -0.3645  -17.0093 F   0  0  0  0  0  0  0  0  0  0  0  0
    7.6035    2.7214  -14.5059 C   0  0  0  0  0  0  0  0  0  0  0  0
    9.0439    5.0703  -10.9032 C   0  0  0  0  0  0  0  0  0  0  0  0
    8.6378    6.3290  -10.1017 C   0  0  0  0  0  0  0  0  0  0  0  0
    9.6595    6.7531   -9.1122 N   0  0  0  0  0  0  0  0  0  0  0  0
    9.8035    8.2343   -9.0514 C   0  0  0  0  0  0  0  0  0  0  0  0
   10.9338    8.6534   -8.0961 C   0  0  0  0  0  0  0  0  0  0  0  0
   10.6979    8.0845   -6.6920 C   0  0  0  0  0  0  0  0  0  0  0  0
   10.5318    6.5625   -6.7741 C   0  0  0  0  0  0  0  0  0  0  0  0
    9.4177    6.1731   -7.7650 C   0  0  0  0  0  0  0  0  0  0  0  0
    9.5092    6.1720  -13.1947 H   0  0  0  0  0  0  0  0  0  0  0  0
    8.0899    5.6607  -14.0771 H   0  0  0  0  0  0  0  0  0  0  0  0
    7.9172    6.8396  -12.7969 H   0  0  0  0  0  0  0  0  0  0  0  0
    6.3885    5.4642  -11.4345 H   0  0  0  0  0  0  0  0  0  0  0  0
    6.7927    3.7963  -11.0826 H   0  0  0  0  0  0  0  0  0  0  0  0
    6.0118    4.8787  -13.8469 H   0  0  0  0  0  0  0  0  0  0  0  0
    4.9813    4.0183  -12.7633 H   0  0  0  0  0  0  0  0  0  0  0  0
    4.8309    1.6418  -12.8290 H   0  0  0  0  0  0  0  0  0  0  0  0
    5.5759   -0.5159  -13.8123 H   0  0  0  0  0  0  0  0  0  0  0  0
    7.5860   -0.6259  -15.2133 H   0  0  0  0  0  0  0  0  0  0  0  0
    8.1769    3.6127  -14.7052 H   0  0  0  0  0  0  0  0  0  0  0  0
    8.9819    4.1893  -10.2647 H   0  0  0  0  0  0  0  0  0  0  0  0
   10.0862    5.1550  -11.2011 H   0  0  0  0  0  0  0  0  0  0  0  0
    8.4861    7.1598  -10.7872 H   0  0  0  0  0  0  0  0  0  0  0  0
    7.6860    6.1720   -9.6004 H   0  0  0  0  0  0  0  0  0  0  0  0
   10.0216    8.6277  -10.0460 H   0  0  0  0  0  0  0  0  0  0  0  0
    8.8569    8.6803   -8.7364 H   0  0  0  0  0  0  0  0  0  0  0  0
   11.8952    8.3063   -8.4794 H   0  0  0  0  0  0  0  0  0  0  0  0
   10.9995    9.7402   -8.0466 H   0  0  0  0  0  0  0  0  0  0  0  0
   11.5301    8.3412   -6.0348 H   0  0  0  0  0  0  0  0  0  0  0  0
    9.8031    8.5323   -6.2553 H   0  0  0  0  0  0  0  0  0  0  0  0
   11.4756    6.1023   -7.0734 H   0  0  0  0  0  0  0  0  0  0  0  0
   10.3003    6.1733   -5.7808 H   0  0  0  0  0  0  0  0  0  0  0  0
    8.4538    6.5205   -7.3875 H   0  0  0  0  0  0  0  0  0  0  0  0
    9.3522    5.0857   -7.8446 H   0  0  0  0  0  0  0  0  0  0  0  0
   10.5458    6.3971   -9.4404 H   0  0  0  0  0  0  0  0  0  0  0  0
  2  1  1  0
  3  2  1  0
  4  3  1  0
  5  4  1  0
  6  5  2  0
  7  6  1  0
  8  7  2  0
  9  8  1  0
 10  9  1  0
 11 10  1  0
 12 11  1  0
 13 11  1  0
 14 11  1  0
 15  5  1  0
 15  9  2  0
 16  2  1  0
 17 16  1  0
 18 17  1  0
 19 18  1  0
 20 19  1  0
 21 20  1  0
 22 21  1  0
 23 18  1  0
 23 22  1  0
 24  1  1  0
 25  1  1  0
 26  1  1  0
 27  3  1  0
 28  3  1  0
 29  4  1  0
 30  4  1  0
 31  6  1  0
 32  7  1  0
 33  8  1  0
 34 15  1  0
 35 16  1  0
 36 16  1  0
 37 17  1  0
 38 17  1  0
 39 19  1  0
 40 19  1  0
 41 20  1  0
 42 20  1  0
 43 21  1  0
 44 21  1  0
 45 22  1  0
 46 22  1  0
 47 23  1  0
 48 23  1  0
 49 18  1  0
M  CHG  1  18   1
M  END
>  <b_m_subgroup_collapsed>  (1366) 
0

>  <r_i_docking_score>  (1366) 
-5.9947401321158198

>  <s_m_subgroup_title>  (1366) 
glide-dock_SP_D22_pv

>  <s_m_subgroupid>  (1366) 
glide-dock_SP_D22_pv

>  <Molecule ChEMBL ID>  (1366) 
CHEMBL497549

>  <Standard Type>  (1366) 
Ki

>  <Standard Value>  (1366) 
10000.0

>  <label>  (1366) 
0

$$$$
CHEMBL91446
     RDKit          3D

 52 55  0  0  1  0  0  0  0  0999 V2000
   11.9923    9.1946   -7.0771 C   0  0  0  0  0  0  0  0  0  0  0  0
   10.9163    8.2858   -7.1964 O   0  0  0  0  0  0  0  0  0  0  0  0
   10.6023    7.9734   -8.5445 C   0  0  0  0  0  0  0  0  0  0  0  0
    9.3251    7.1039   -8.5435 C   0  0  2  0  0  0  0  0  0  0  0  0
    9.4850    5.8776   -7.6265 C   0  0  0  0  0  0  0  0  0  0  0  0
    8.8157    4.7360   -8.3782 C   0  0  0  0  0  0  0  0  0  0  0  0
    9.0658    5.1076   -9.8280 C   0  0  0  0  0  0  0  0  0  0  0  0
    8.8864    6.5720   -9.8701 N   0  0  2  0  0  0  0  0  0  0  0  0
    9.3872    7.2513  -11.0916 C   0  0  0  0  0  0  0  0  0  0  0  0
    8.7019    6.7770  -12.3928 C   0  0  0  0  0  0  0  0  0  0  0  0
    9.4099    5.6528  -13.1365 C   0  0  0  0  0  0  0  0  0  0  0  0
    8.9329    4.4171  -13.5497 C   0  0  0  0  0  0  0  0  0  0  0  0
    7.6542    3.7029  -13.4340 C   0  0  0  0  0  0  0  0  0  0  0  0
    7.3987    2.5691  -14.2532 C   0  0  0  0  0  0  0  0  0  0  0  0
    6.2664    1.7581  -14.0516 C   0  0  0  0  0  0  0  0  0  0  0  0
    5.3421    2.0845  -13.0471 C   0  0  0  0  0  0  0  0  0  0  0  0
    5.5553    3.2327  -12.2684 C   0  0  0  0  0  0  0  0  0  0  0  0
    6.6813    4.0390  -12.4682 C   0  0  0  0  0  0  0  0  0  0  0  0
    9.9519    3.7586  -14.2211 N   0  0  0  0  0  0  0  0  0  0  0  0
   11.0306    4.5716  -14.4311 C   0  0  0  0  0  0  0  0  0  0  0  0
   12.2084    4.3957  -15.1771 C   0  0  0  0  0  0  0  0  0  0  0  0
   13.1134    5.4629  -15.2918 C   0  0  0  0  0  0  0  0  0  0  0  0
   12.8503    6.6699  -14.6191 C   0  0  0  0  0  0  0  0  0  0  0  0
   11.6982    6.8042  -13.8159 C   0  0  0  0  0  0  0  0  0  0  0  0
   10.7300    5.7718  -13.7322 C   0  0  0  0  0  0  0  0  0  0  0  0
   12.2757    9.2936   -6.0293 H   0  0  0  0  0  0  0  0  0  0  0  0
   12.8703    8.8675   -7.6371 H   0  0  0  0  0  0  0  0  0  0  0  0
   11.6852   10.1721   -7.4433 H   0  0  0  0  0  0  0  0  0  0  0  0
   11.4482    7.4461   -8.9942 H   0  0  0  0  0  0  0  0  0  0  0  0
   10.4397    8.8947   -9.1061 H   0  0  0  0  0  0  0  0  0  0  0  0
    8.4994    7.7127   -8.1714 H   0  0  0  0  0  0  0  0  0  0  0  0
    9.0471    6.0515   -6.6441 H   0  0  0  0  0  0  0  0  0  0  0  0
   10.5398    5.6437   -7.4721 H   0  0  0  0  0  0  0  0  0  0  0  0
    7.7472    4.7469   -8.1689 H   0  0  0  0  0  0  0  0  0  0  0  0
    9.1955    3.7461   -8.1319 H   0  0  0  0  0  0  0  0  0  0  0  0
    8.3980    4.5717  -10.4903 H   0  0  0  0  0  0  0  0  0  0  0  0
   10.0862    4.8520  -10.1103 H   0  0  0  0  0  0  0  0  0  0  0  0
   10.4719    7.1784  -11.1733 H   0  0  0  0  0  0  0  0  0  0  0  0
    9.1496    8.3093  -10.9701 H   0  0  0  0  0  0  0  0  0  0  0  0
    8.6243    7.6414  -13.0434 H   0  0  0  0  0  0  0  0  0  0  0  0
    7.6534    6.5843  -12.2080 H   0  0  0  0  0  0  0  0  0  0  0  0
    8.0889    2.2707  -15.0274 H   0  0  0  0  0  0  0  0  0  0  0  0
    6.1108    0.8830  -14.6657 H   0  0  0  0  0  0  0  0  0  0  0  0
    4.4826    1.4564  -12.8796 H   0  0  0  0  0  0  0  0  0  0  0  0
    4.8870    3.5028  -11.4738 H   0  0  0  0  0  0  0  0  0  0  0  0
    6.7803    4.8636  -11.7919 H   0  0  0  0  0  0  0  0  0  0  0  0
    9.8505    2.8195  -14.5753 H   0  0  0  0  0  0  0  0  0  0  0  0
   12.3987    3.4659  -15.6935 H   0  0  0  0  0  0  0  0  0  0  0  0
   14.0105    5.3554  -15.8844 H   0  0  0  0  0  0  0  0  0  0  0  0
   13.5527    7.4863  -14.6959 H   0  0  0  0  0  0  0  0  0  0  0  0
   11.5193    7.7422  -13.3139 H   0  0  0  0  0  0  0  0  0  0  0  0
    7.8812    6.7490   -9.8747 H   0  0  0  0  0  0  0  0  0  0  0  0
  2  1  1  0
  3  2  1  0
  4  3  1  0
  5  4  1  0
  6  5  1  0
  7  6  1  0
  8  4  1  0
  8  7  1  0
  9  8  1  0
 10  9  1  0
 11 10  1  0
 12 11  2  0
 13 12  1  0
 14 13  2  0
 15 14  1  0
 16 15  2  0
 17 16  1  0
 18 13  1  0
 18 17  2  0
 19 12  1  0
 20 19  1  0
 21 20  2  0
 22 21  1  0
 23 22  2  0
 24 23  1  0
 25 11  1  0
 25 20  1  0
 25 24  2  0
 26  1  1  0
 27  1  1  0
 28  1  1  0
 29  3  1  0
 30  3  1  0
  4 31  1  1
 32  5  1  0
 33  5  1  0
 34  6  1  0
 35  6  1  0
 36  7  1  0
 37  7  1  0
 38  9  1  0
 39  9  1  0
 40 10  1  0
 41 10  1  0
 42 14  1  0
 43 15  1  0
 44 16  1  0
 45 17  1  0
 46 18  1  0
 47 19  1  0
 48 21  1  0
 49 22  1  0
 50 23  1  0
 51 24  1  0
  8 52  1  1
M  CHG  1   8   1
M  END
>  <b_m_subgroup_collapsed>  (1367) 
0

>  <r_i_docking_score>  (1367) 
-5.9890669375583103

>  <s_m_subgroup_title>  (1367) 
glide-dock_SP_D22_pv

>  <s_m_subgroupid>  (1367) 
glide-dock_SP_D22_pv

>  <Molecule ChEMBL ID>  (1367) 
CHEMBL91446

>  <Standard Type>  (1367) 
Ki

>  <Standard Value>  (1367) 
92.0

>  <label>  (1367) 
1

$$$$
CHEMBL104700
     RDKit          3D

 31 33  0  0  1  0  0  0  0  0999 V2000
   11.7812    9.6916   -3.3028 C   0  0  0  0  0  0  0  0  0  0  0  0
   12.3771    8.8592   -2.3384 C   0  0  0  0  0  0  0  0  0  0  0  0
   12.4860    7.5250   -2.4890 N   0  0  0  0  0  0  0  0  0  0  0  0
   12.0013    6.9729   -3.6180 C   0  0  0  0  0  0  0  0  0  0  0  0
   11.3802    7.7136   -4.6469 C   0  0  0  0  0  0  0  0  0  0  0  0
   10.7508    6.9668   -5.8124 C   0  0  0  0  0  0  0  0  0  0  0  0
   10.4734    7.8120   -6.9994 N   0  0  2  0  0  0  0  0  0  0  0  0
    9.1108    7.7561   -7.5486 C   0  0  2  0  0  0  0  0  0  0  0  0
    9.0116    6.3575   -8.1831 C   0  0  0  0  0  0  0  0  0  0  0  0
   10.4430    6.1568   -8.6983 C   0  0  0  0  0  0  0  0  0  0  0  0
   11.1500    7.4548   -8.2533 C   0  0  1  0  0  0  0  0  0  0  0  0
   10.6757    8.5896   -9.1736 C   0  0  0  0  0  0  0  0  0  0  0  0
    9.2260    8.7819   -8.6845 C   0  0  0  0  0  0  0  0  0  0  0  0
   11.2860    9.1143   -4.4846 C   0  0  0  0  0  0  0  0  0  0  0  0
   11.6859   10.7493   -3.1117 H   0  0  0  0  0  0  0  0  0  0  0  0
   12.7601    9.2735   -1.4174 H   0  0  0  0  0  0  0  0  0  0  0  0
   12.0828    5.8981   -3.6881 H   0  0  0  0  0  0  0  0  0  0  0  0
   11.4036    6.1358   -6.0814 H   0  0  0  0  0  0  0  0  0  0  0  0
    9.8224    6.5269   -5.4458 H   0  0  0  0  0  0  0  0  0  0  0  0
    8.3118    7.9812   -6.8394 H   0  0  0  0  0  0  0  0  0  0  0  0
    8.7480    5.5990   -7.4466 H   0  0  0  0  0  0  0  0  0  0  0  0
    8.2660    6.3128   -8.9791 H   0  0  0  0  0  0  0  0  0  0  0  0
   10.4780    6.0128   -9.7789 H   0  0  0  0  0  0  0  0  0  0  0  0
   10.8860    5.2749   -8.2382 H   0  0  0  0  0  0  0  0  0  0  0  0
   12.2351    7.3729   -8.1827 H   0  0  0  0  0  0  0  0  0  0  0  0
   10.7328    8.3284  -10.2312 H   0  0  0  0  0  0  0  0  0  0  0  0
   11.2622    9.4967   -9.0201 H   0  0  0  0  0  0  0  0  0  0  0  0
    8.4861    8.6270   -9.4711 H   0  0  0  0  0  0  0  0  0  0  0  0
    9.0691    9.7723   -8.2778 H   0  0  0  0  0  0  0  0  0  0  0  0
   10.7982    9.7408   -5.2164 H   0  0  0  0  0  0  0  0  0  0  0  0
   10.6928    8.7694   -6.7724 H   0  0  0  0  0  0  0  0  0  0  0  0
  2  1  1  0
  3  2  2  0
  4  3  1  0
  5  4  2  0
  6  5  1  0
  7  6  1  0
  8  7  1  0
  9  8  1  0
 10  9  1  0
 11  7  1  0
 11 10  1  0
 12 11  1  0
 13  8  1  0
 13 12  1  0
 14  1  2  0
 14  5  1  0
 15  1  1  0
 16  2  1  0
 17  4  1  0
 18  6  1  0
 19  6  1  0
  8 20  1  1
 21  9  1  0
 22  9  1  0
 23 10  1  0
 24 10  1  0
 11 25  1  1
 26 12  1  0
 27 12  1  0
 28 13  1  0
 29 13  1  0
 30 14  1  0
  7 31  1  1
M  CHG  1   7   1
M  END
>  <b_m_subgroup_collapsed>  (1368) 
0

>  <r_i_docking_score>  (1368) 
-5.9856372851360202

>  <s_m_subgroup_title>  (1368) 
glide-dock_SP_D22_pv

>  <s_m_subgroupid>  (1368) 
glide-dock_SP_D22_pv

>  <Molecule ChEMBL ID>  (1368) 
CHEMBL104700

>  <Standard Type>  (1368) 
Ki

>  <Standard Value>  (1368) 
10000.0

>  <label>  (1368) 
0

$$$$
CHEMBL5722949
     RDKit          3D

 34 36  0  0  1  0  0  0  0  0999 V2000
   10.9313    4.4223  -13.8437 O   0  0  0  0  0  0  0  0  0  0  0  0
   10.0549    5.0630  -13.2629 C   0  0  0  0  0  0  0  0  0  0  0  0
   10.3620    6.3285  -12.5650 C   0  0  0  0  0  0  0  0  0  0  0  0
    9.4015    7.0076  -11.9011 C   0  0  0  0  0  0  0  0  0  0  0  0
    9.6798    8.3209  -11.1896 C   0  0  0  0  0  0  0  0  0  0  0  0
    9.2861    8.2952   -9.7906 N   0  0  0  0  0  0  0  0  0  0  0  0
   10.0782    7.3568   -8.9984 C   0  0  2  0  0  0  0  0  0  0  0  0
    9.1891    6.7047   -7.9392 C   0  0  0  0  0  0  0  0  0  0  0  0
    9.0319    7.6900   -6.7791 C   0  0  0  0  0  0  0  0  0  0  0  0
   10.5217    8.7176   -6.6914 S   0  0  0  0  0  0  0  0  0  0  0  0
   11.1995    8.0942   -8.2542 C   0  0  0  0  0  0  0  0  0  0  0  0
    8.0867    6.5633  -11.8471 N   0  0  0  0  0  0  0  0  0  0  0  0
    7.6781    5.3927  -12.4955 C   0  0  0  0  0  0  0  0  0  0  0  0
    6.3331    4.9793  -12.4429 C   0  0  0  0  0  0  0  0  0  0  0  0
    5.9265    3.8114  -13.1188 C   0  0  0  0  0  0  0  0  0  0  0  0
    6.8670    3.0539  -13.8464 C   0  0  0  0  0  0  0  0  0  0  0  0
    6.4859    1.9228  -14.4836 F   0  0  0  0  0  0  0  0  0  0  0  0
    8.2144    3.4597  -13.8946 C   0  0  0  0  0  0  0  0  0  0  0  0
    8.6283    4.6262  -13.2187 C   0  0  0  0  0  0  0  0  0  0  0  0
   11.3784    6.6923  -12.6046 H   0  0  0  0  0  0  0  0  0  0  0  0
   10.7393    8.5716  -11.2637 H   0  0  0  0  0  0  0  0  0  0  0  0
    9.1212    9.1103  -11.6956 H   0  0  0  0  0  0  0  0  0  0  0  0
    8.2938    8.0614   -9.7526 H   0  0  0  0  0  0  0  0  0  0  0  0
   10.4996    6.5747   -9.6288 H   0  0  0  0  0  0  0  0  0  0  0  0
    8.2276    6.3772   -8.3393 H   0  0  0  0  0  0  0  0  0  0  0  0
    9.6900    5.8084   -7.5690 H   0  0  0  0  0  0  0  0  0  0  0  0
    8.8860    7.1536   -5.8469 H   0  0  0  0  0  0  0  0  0  0  0  0
    8.1674    8.3346   -6.9419 H   0  0  0  0  0  0  0  0  0  0  0  0
   11.9955    7.3900   -8.0115 H   0  0  0  0  0  0  0  0  0  0  0  0
   11.6428    8.8981   -8.8418 H   0  0  0  0  0  0  0  0  0  0  0  0
    7.4026    7.0778  -11.2755 H   0  0  0  0  0  0  0  0  0  0  0  0
    5.6138    5.5598  -11.8819 H   0  0  0  0  0  0  0  0  0  0  0  0
    4.8949    3.4949  -13.0767 H   0  0  0  0  0  0  0  0  0  0  0  0
    8.9275    2.8638  -14.4479 H   0  0  0  0  0  0  0  0  0  0  0  0
  2  1  2  0
  3  2  1  0
  4  3  2  0
  5  4  1  0
  6  5  1  0
  7  6  1  0
  8  7  1  0
  9  8  1  0
 10  9  1  0
 11  7  1  0
 11 10  1  0
 12  4  1  0
 13 12  1  0
 14 13  2  0
 15 14  1  0
 16 15  2  0
 17 16  1  0
 18 16  1  0
 19  2  1  0
 19 13  1  0
 19 18  2  0
 20  3  1  0
 21  5  1  0
 22  5  1  0
 23  6  1  0
  7 24  1  6
 25  8  1  0
 26  8  1  0
 27  9  1  0
 28  9  1  0
 29 11  1  0
 30 11  1  0
 31 12  1  0
 32 14  1  0
 33 15  1  0
 34 18  1  0
M  END
>  <b_m_subgroup_collapsed>  (1369) 
0

>  <r_i_docking_score>  (1369) 
-5.98317124293267

>  <s_m_subgroup_title>  (1369) 
glide-dock_SP_D22_pv

>  <s_m_subgroupid>  (1369) 
glide-dock_SP_D22_pv

>  <Molecule ChEMBL ID>  (1369) 
CHEMBL5722949

>  <Standard Type>  (1369) 
Ki

>  <Standard Value>  (1369) 
10000.0

>  <label>  (1369) 
0

$$$$
CHEMBL193435
     RDKit          3D

 44 47  0  0  1  0  0  0  0  0999 V2000
    8.2573    9.3184  -11.6268 C   0  0  0  0  0  0  0  0  0  0  0  0
    8.8861    8.0810  -11.1255 N   0  0  0  0  0  0  0  0  0  0  0  0
    9.9776    8.3604  -10.1621 C   0  0  0  0  0  0  0  0  0  0  0  0
    9.2792    7.1950  -12.2449 C   0  0  0  0  0  0  0  0  0  0  0  0
    9.4275    5.7171  -11.8490 C   0  0  1  0  0  0  0  0  0  0  0  0
    8.2039    4.8622  -12.2009 C   0  0  0  0  0  0  0  0  0  0  0  0
    8.5925    4.1985  -13.5182 C   0  0  2  0  0  0  0  0  0  0  0  0
    7.8205    2.9252  -13.8649 C   0  0  0  0  0  0  0  0  0  0  0  0
    6.4365    2.8988  -13.5681 C   0  0  0  0  0  0  0  0  0  0  0  0
    5.6863    1.7205  -13.7223 C   0  0  0  0  0  0  0  0  0  0  0  0
    6.2832    0.5694  -14.2566 C   0  0  0  0  0  0  0  0  0  0  0  0
    7.6416    0.5946  -14.6079 C   0  0  0  0  0  0  0  0  0  0  0  0
    8.4293    1.7467  -14.4042 C   0  0  0  0  0  0  0  0  0  0  0  0
    9.7726    1.5652  -14.6471 O   0  0  0  0  0  0  0  0  0  0  0  0
   10.5476    2.5230  -15.2449 C   0  0  0  0  0  0  0  0  0  0  0  0
   11.1902    2.2358  -16.4650 C   0  0  0  0  0  0  0  0  0  0  0  0
   12.0933    3.1635  -17.0235 C   0  0  0  0  0  0  0  0  0  0  0  0
   12.3604    4.3756  -16.3580 C   0  0  0  0  0  0  0  0  0  0  0  0
   13.6072    5.6152  -17.0899 Br  0  0  0  0  0  0  0  0  0  0  0  0
   11.7098    4.6717  -15.1455 C   0  0  0  0  0  0  0  0  0  0  0  0
   10.8095    3.7395  -14.5875 C   0  0  0  0  0  0  0  0  0  0  0  0
   10.0854    4.0143  -13.2938 C   0  0  1  0  0  0  0  0  0  0  0  0
   10.4854    5.2145  -12.6553 O   0  0  0  0  0  0  0  0  0  0  0  0
    8.8861    9.7732  -12.3895 H   0  0  0  0  0  0  0  0  0  0  0  0
    8.0779   10.0248  -10.8153 H   0  0  0  0  0  0  0  0  0  0  0  0
    7.2950    9.0891  -12.0851 H   0  0  0  0  0  0  0  0  0  0  0  0
   10.7973    8.8976  -10.6426 H   0  0  0  0  0  0  0  0  0  0  0  0
   10.3769    7.4429   -9.7314 H   0  0  0  0  0  0  0  0  0  0  0  0
    9.6111    8.9724   -9.3358 H   0  0  0  0  0  0  0  0  0  0  0  0
    8.5364    7.2658  -13.0436 H   0  0  0  0  0  0  0  0  0  0  0  0
   10.2203    7.5747  -12.6463 H   0  0  0  0  0  0  0  0  0  0  0  0
    9.6981    5.5901  -10.7996 H   0  0  0  0  0  0  0  0  0  0  0  0
    8.0734    4.1045  -11.4280 H   0  0  0  0  0  0  0  0  0  0  0  0
    7.2755    5.4325  -12.2541 H   0  0  0  0  0  0  0  0  0  0  0  0
    8.4390    4.9166  -14.3269 H   0  0  0  0  0  0  0  0  0  0  0  0
    5.9425    3.7688  -13.1634 H   0  0  0  0  0  0  0  0  0  0  0  0
    4.6412    1.7085  -13.4502 H   0  0  0  0  0  0  0  0  0  0  0  0
    5.7054   -0.3329  -14.3933 H   0  0  0  0  0  0  0  0  0  0  0  0
    8.0989   -0.3029  -14.9963 H   0  0  0  0  0  0  0  0  0  0  0  0
   11.0132    1.2928  -16.9612 H   0  0  0  0  0  0  0  0  0  0  0  0
   12.5944    2.9347  -17.9522 H   0  0  0  0  0  0  0  0  0  0  0  0
   11.9166    5.6071  -14.6475 H   0  0  0  0  0  0  0  0  0  0  0  0
   10.2596    3.1904  -12.6015 H   0  0  0  0  0  0  0  0  0  0  0  0
    8.1245    7.6362  -10.6167 H   0  0  0  0  0  0  0  0  0  0  0  0
  2  1  1  0
  3  2  1  0
  4  2  1  0
  5  4  1  0
  6  5  1  0
  7  6  1  0
  8  7  1  0
  9  8  2  0
 10  9  1  0
 11 10  2  0
 12 11  1  0
 13  8  1  0
 13 12  2  0
 14 13  1  0
 15 14  1  0
 16 15  1  0
 17 16  2  0
 18 17  1  0
 19 18  1  0
 20 18  2  0
 21 15  2  0
 21 20  1  0
 22  7  1  0
 22 21  1  0
 23  5  1  0
 23 22  1  0
 24  1  1  0
 25  1  1  0
 26  1  1  0
 27  3  1  0
 28  3  1  0
 29  3  1  0
 30  4  1  0
 31  4  1  0
  5 32  1  1
 33  6  1  0
 34  6  1  0
  7 35  1  6
 36  9  1  0
 37 10  1  0
 38 11  1  0
 39 12  1  0
 40 16  1  0
 41 17  1  0
 42 20  1  0
 22 43  1  1
 44  2  1  0
M  CHG  1   2   1
M  END
>  <b_m_subgroup_collapsed>  (1370) 
0

>  <r_i_docking_score>  (1370) 
-5.9824962405990201

>  <s_m_subgroup_title>  (1370) 
glide-dock_SP_D22_pv

>  <s_m_subgroupid>  (1370) 
glide-dock_SP_D22_pv

>  <Molecule ChEMBL ID>  (1370) 
CHEMBL193435

>  <Standard Type>  (1370) 
Ki

>  <Standard Value>  (1370) 
66.0

>  <label>  (1370) 
1

$$$$
CHEMBL285341
     RDKit          3D

 55 58  0  0  1  0  0  0  0  0999 V2000
    9.8112    5.9644   -7.9567 C   0  0  0  0  0  0  0  0  0  0  0  0
    9.4523    7.3040   -8.6149 C   0  0  0  0  0  0  0  0  0  0  0  0
   10.4653    7.7472   -9.5878 N   0  0  0  0  0  0  0  0  0  0  0  0
   11.3845    8.7872   -9.0954 C   0  0  0  0  0  0  0  0  0  0  0  0
   12.7273    8.1981   -8.6378 C   0  0  0  0  0  0  0  0  0  0  0  0
   10.5539    7.2941  -10.8657 C   0  0  0  0  0  0  0  0  0  0  0  0
   11.4184    7.6770  -11.6516 O   0  0  0  0  0  0  0  0  0  0  0  0
    9.6439    6.3637  -11.2145 N   0  0  0  0  0  0  0  0  0  0  0  0
    9.4906    5.7567  -12.5412 C   0  0  2  0  0  0  0  0  0  0  0  0
    8.2641    4.8308  -12.5476 C   0  0  0  0  0  0  0  0  0  0  0  0
    8.1145    4.0438  -13.8739 C   0  0  2  0  0  0  0  0  0  0  0  0
    6.9327    3.0731  -13.7956 C   0  0  0  0  0  0  0  0  0  0  0  0
    5.7841    3.1692  -12.9824 C   0  0  0  0  0  0  0  0  0  0  0  0
    4.8876    2.0813  -12.8844 C   0  0  0  0  0  0  0  0  0  0  0  0
    5.0803    0.8805  -13.6003 C   0  0  0  0  0  0  0  0  0  0  0  0
    6.1911    0.7936  -14.4504 C   0  0  0  0  0  0  0  0  0  0  0  0
    7.0770    1.8723  -14.5150 C   0  0  0  0  0  0  0  0  0  0  0  0
    8.1952    1.5272  -15.3657 C   0  0  0  0  0  0  0  0  0  0  0  0
    8.0330    0.2853  -15.8304 C   0  0  0  0  0  0  0  0  0  0  0  0
    6.7363   -0.3106  -15.3308 C   0  0  0  0  0  0  0  0  0  0  0  0
    9.3286    2.5003  -15.5468 C   0  0  0  0  0  0  0  0  0  0  0  0
    9.4513    3.3384  -14.2588 C   0  0  1  0  0  0  0  0  0  0  0  0
   10.5930    4.2843  -14.2850 N   0  0  1  0  0  0  0  0  0  0  0  0
   10.6371    5.2107  -15.4393 C   0  0  0  0  0  0  0  0  0  0  0  0
   10.7429    4.9628  -12.9801 C   0  0  0  0  0  0  0  0  0  0  0  0
    9.0485    5.6984   -7.2263 H   0  0  0  0  0  0  0  0  0  0  0  0
   10.7641    6.0184   -7.4274 H   0  0  0  0  0  0  0  0  0  0  0  0
    9.8721    5.1521   -8.6806 H   0  0  0  0  0  0  0  0  0  0  0  0
    8.4825    7.2274   -9.0990 H   0  0  0  0  0  0  0  0  0  0  0  0
    9.3072    8.0501   -7.8336 H   0  0  0  0  0  0  0  0  0  0  0  0
   11.5627    9.5342   -9.8723 H   0  0  0  0  0  0  0  0  0  0  0  0
   10.9422    9.3467   -8.2715 H   0  0  0  0  0  0  0  0  0  0  0  0
   13.3785    8.9761   -8.2405 H   0  0  0  0  0  0  0  0  0  0  0  0
   13.2568    7.7312   -9.4675 H   0  0  0  0  0  0  0  0  0  0  0  0
   12.5820    7.4570   -7.8504 H   0  0  0  0  0  0  0  0  0  0  0  0
    8.9577    6.1206  -10.5124 H   0  0  0  0  0  0  0  0  0  0  0  0
    9.3018    6.5721  -13.2302 H   0  0  0  0  0  0  0  0  0  0  0  0
    8.3467    4.1239  -11.7195 H   0  0  0  0  0  0  0  0  0  0  0  0
    7.3712    5.4262  -12.3537 H   0  0  0  0  0  0  0  0  0  0  0  0
    7.8593    4.7671  -14.6460 H   0  0  0  0  0  0  0  0  0  0  0  0
    5.5986    4.0510  -12.3865 H   0  0  0  0  0  0  0  0  0  0  0  0
    4.0359    2.1727  -12.2459 H   0  0  0  0  0  0  0  0  0  0  0  0
    4.3827    0.0607  -13.5146 H   0  0  0  0  0  0  0  0  0  0  0  0
    8.7151   -0.2587  -16.4682 H   0  0  0  0  0  0  0  0  0  0  0  0
    6.8857   -1.2001  -14.7199 H   0  0  0  0  0  0  0  0  0  0  0  0
    6.0544   -0.5395  -16.1506 H   0  0  0  0  0  0  0  0  0  0  0  0
   10.2494    1.9779  -15.8090 H   0  0  0  0  0  0  0  0  0  0  0  0
    9.0634    3.1457  -16.3848 H   0  0  0  0  0  0  0  0  0  0  0  0
    9.6752    2.6238  -13.4606 H   0  0  0  0  0  0  0  0  0  0  0  0
    9.7100    5.7720  -15.5180 H   0  0  0  0  0  0  0  0  0  0  0  0
   10.7880    4.6718  -16.3747 H   0  0  0  0  0  0  0  0  0  0  0  0
   11.4654    5.9152  -15.3397 H   0  0  0  0  0  0  0  0  0  0  0  0
   11.6415    5.5755  -13.0089 H   0  0  0  0  0  0  0  0  0  0  0  0
   10.8873    4.1728  -12.2474 H   0  0  0  0  0  0  0  0  0  0  0  0
   11.4175    3.7082  -14.3783 H   0  0  0  0  0  0  0  0  0  0  0  0
  2  1  1  0
  3  2  1  0
  4  3  1  0
  5  4  1  0
  6  3  1  0
  7  6  2  0
  8  6  1  0
  9  8  1  0
 10  9  1  0
 11 10  1  0
 12 11  1  0
 13 12  2  0
 14 13  1  0
 15 14  2  0
 16 15  1  0
 17 12  1  0
 17 16  2  0
 18 17  1  0
 19 18  2  0
 20 16  1  0
 20 19  1  0
 21 18  1  0
 22 11  1  0
 22 21  1  0
 23 22  1  0
 24 23  1  0
 25  9  1  0
 25 23  1  0
 26  1  1  0
 27  1  1  0
 28  1  1  0
 29  2  1  0
 30  2  1  0
 31  4  1  0
 32  4  1  0
 33  5  1  0
 34  5  1  0
 35  5  1  0
 36  8  1  0
  9 37  1  6
 38 10  1  0
 39 10  1  0
 11 40  1  6
 41 13  1  0
 42 14  1  0
 43 15  1  0
 44 19  1  0
 45 20  1  0
 46 20  1  0
 47 21  1  0
 48 21  1  0
 22 49  1  1
 50 24  1  0
 51 24  1  0
 52 24  1  0
 53 25  1  0
 54 25  1  0
 23 55  1  6
M  CHG  1  23   1
M  END
>  <b_m_subgroup_collapsed>  (1371) 
0

>  <r_i_docking_score>  (1371) 
-5.9751914523929504

>  <s_m_subgroup_title>  (1371) 
glide-dock_SP_D22_pv

>  <s_m_subgroupid>  (1371) 
glide-dock_SP_D22_pv

>  <Molecule ChEMBL ID>  (1371) 
CHEMBL285341

>  <Standard Type>  (1371) 
Ki

>  <Standard Value>  (1371) 
0.8

>  <label>  (1371) 
1

$$$$
CHEMBL4588709
     RDKit          3D

 31 32  0  0  1  0  0  0  0  0999 V2000
    7.8012    4.8743  -11.6245 C   0  0  0  0  0  0  0  0  0  0  0  0
    9.1482    5.3066  -11.0328 C   0  0  0  0  0  0  0  0  0  0  0  0
    9.2895    6.8368  -10.9984 C   0  0  0  0  0  0  0  0  0  0  0  0
   10.8760    7.3930  -10.3110 S   0  0  0  0  0  0  0  0  0  0  0  0
   10.5448    7.3014   -8.5729 C   0  0  0  0  0  0  0  0  0  0  0  0
    9.5320    6.6442   -8.0074 N   0  0  0  0  0  0  0  0  0  0  0  0
    9.6878    6.8234   -6.6524 N   0  0  0  0  0  0  0  0  0  0  0  0
   10.7868    7.5663   -6.5008 C   0  0  0  0  0  0  0  0  0  0  0  0
   11.2847    7.9314   -5.1797 C   0  0  0  0  0  0  0  0  0  0  0  0
   11.6852    6.9162   -4.2847 C   0  0  0  0  0  0  0  0  0  0  0  0
   12.0928    7.2390   -2.9774 C   0  0  0  0  0  0  0  0  0  0  0  0
   12.0988    8.5815   -2.5588 C   0  0  0  0  0  0  0  0  0  0  0  0
   11.6958    9.5973   -3.4455 C   0  0  0  0  0  0  0  0  0  0  0  0
   11.2933    9.2779   -4.7577 C   0  0  0  0  0  0  0  0  0  0  0  0
   11.3540    7.9012   -7.6791 N   0  0  0  0  0  0  0  0  0  0  0  0
   12.5449    8.6800   -7.9504 C   0  0  0  0  0  0  0  0  0  0  0  0
    7.6890    3.7900  -11.6019 H   0  0  0  0  0  0  0  0  0  0  0  0
    6.9724    5.3065  -11.0591 H   0  0  0  0  0  0  0  0  0  0  0  0
    7.7032    5.2001  -12.6614 H   0  0  0  0  0  0  0  0  0  0  0  0
    9.9580    4.8738  -11.6206 H   0  0  0  0  0  0  0  0  0  0  0  0
    9.2433    4.8942  -10.0283 H   0  0  0  0  0  0  0  0  0  0  0  0
    8.4867    7.2875  -10.4227 H   0  0  0  0  0  0  0  0  0  0  0  0
    9.2055    7.2332  -12.0104 H   0  0  0  0  0  0  0  0  0  0  0  0
   11.6614    5.8820   -4.5997 H   0  0  0  0  0  0  0  0  0  0  0  0
   12.3877    6.4536   -2.2950 H   0  0  0  0  0  0  0  0  0  0  0  0
   12.3963    8.8363   -1.5529 H   0  0  0  0  0  0  0  0  0  0  0  0
   11.6841   10.6215   -3.1064 H   0  0  0  0  0  0  0  0  0  0  0  0
   10.9667   10.0601   -5.4281 H   0  0  0  0  0  0  0  0  0  0  0  0
   12.3437    9.3698   -8.7695 H   0  0  0  0  0  0  0  0  0  0  0  0
   12.8574    9.2497   -7.0753 H   0  0  0  0  0  0  0  0  0  0  0  0
   13.3476    8.0105   -8.2542 H   0  0  0  0  0  0  0  0  0  0  0  0
  2  1  1  0
  3  2  1  0
  4  3  1  0
  5  4  1  0
  6  5  2  0
  7  6  1  0
  8  7  2  0
  9  8  1  0
 10  9  2  0
 11 10  1  0
 12 11  2  0
 13 12  1  0
 14  9  1  0
 14 13  2  0
 15  5  1  0
 15  8  1  0
 16 15  1  0
 17  1  1  0
 18  1  1  0
 19  1  1  0
 20  2  1  0
 21  2  1  0
 22  3  1  0
 23  3  1  0
 24 10  1  0
 25 11  1  0
 26 12  1  0
 27 13  1  0
 28 14  1  0
 29 16  1  0
 30 16  1  0
 31 16  1  0
M  END
>  <b_m_subgroup_collapsed>  (1372) 
0

>  <r_i_docking_score>  (1372) 
-5.9710767527525697

>  <s_m_subgroup_title>  (1372) 
glide-dock_SP_D22_pv

>  <s_m_subgroupid>  (1372) 
glide-dock_SP_D22_pv

>  <Molecule ChEMBL ID>  (1372) 
CHEMBL4588709

>  <Standard Type>  (1372) 
Ki

>  <Standard Value>  (1372) 
180375.0

>  <label>  (1372) 
0

$$$$
CHEMBL3085216
     RDKit          3D

 45 46  0  0  1  0  0  0  0  0999 V2000
   11.2902   10.1716   -4.1295 C   0  0  0  0  0  0  0  0  0  0  0  0
   12.3444    9.5568   -5.0685 C   0  0  0  0  0  0  0  0  0  0  0  0
   11.9537    9.5606   -6.5690 C   0  0  0  0  0  0  0  0  0  0  0  0
   11.4100    8.2837   -7.1346 N   0  0  1  0  0  0  0  0  0  0  0  0
   10.2238    7.7939   -6.3698 C   0  0  0  0  0  0  0  0  0  0  0  0
   10.0556    6.2949   -6.3078 C   0  0  0  0  0  0  0  0  0  0  0  0
    8.9059    8.5095   -6.6394 C   0  0  0  0  0  0  0  0  0  0  0  0
   11.2935    8.3277   -8.6391 C   0  0  1  0  0  0  0  0  0  0  0  0
   12.6676    8.3011   -9.3372 C   0  0  0  0  0  0  0  0  0  0  0  0
   12.5463    8.5137  -10.7342 O   0  0  0  0  0  0  0  0  0  0  0  0
   11.7411    7.6241  -11.3961 C   0  0  0  0  0  0  0  0  0  0  0  0
   12.0427    7.3365  -12.7402 C   0  0  0  0  0  0  0  0  0  0  0  0
   11.2859    6.3864  -13.4450 C   0  0  0  0  0  0  0  0  0  0  0  0
   10.1780    5.7703  -12.8271 C   0  0  0  0  0  0  0  0  0  0  0  0
    9.8545    6.0553  -11.4797 C   0  0  0  0  0  0  0  0  0  0  0  0
    8.7427    5.2915  -10.8157 C   0  0  0  0  0  0  0  0  0  0  0  0
    7.5710    5.3005  -11.4467 N   0  0  0  0  0  0  0  0  0  0  0  0
    8.9058    4.7235   -9.7375 O   0  0  0  0  0  0  0  0  0  0  0  0
   10.6634    6.9722  -10.7508 C   0  0  0  0  0  0  0  0  0  0  0  0
   10.4861    7.1643   -9.2502 C   0  0  0  0  0  0  0  0  0  0  0  0
   11.7380   10.4725   -3.1810 H   0  0  0  0  0  0  0  0  0  0  0  0
   10.8405   11.0538   -4.5828 H   0  0  0  0  0  0  0  0  0  0  0  0
   10.4865    9.4879   -3.8763 H   0  0  0  0  0  0  0  0  0  0  0  0
   12.6434    8.5684   -4.7208 H   0  0  0  0  0  0  0  0  0  0  0  0
   13.2421   10.1703   -4.9748 H   0  0  0  0  0  0  0  0  0  0  0  0
   12.8865    9.7719   -7.0741 H   0  0  0  0  0  0  0  0  0  0  0  0
   11.2871   10.3935   -6.7964 H   0  0  0  0  0  0  0  0  0  0  0  0
   10.4454    7.9711   -5.3259 H   0  0  0  0  0  0  0  0  0  0  0  0
    9.4296    6.1551   -5.4285 H   0  0  0  0  0  0  0  0  0  0  0  0
    9.5201    5.8583   -7.1492 H   0  0  0  0  0  0  0  0  0  0  0  0
   11.0040    5.7791   -6.1576 H   0  0  0  0  0  0  0  0  0  0  0  0
    8.0625    7.9211   -6.2792 H   0  0  0  0  0  0  0  0  0  0  0  0
    8.9186    9.3723   -6.0066 H   0  0  0  0  0  0  0  0  0  0  0  0
    8.7215    8.8102   -7.6695 H   0  0  0  0  0  0  0  0  0  0  0  0
   10.7964    9.2596   -8.9145 H   0  0  0  0  0  0  0  0  0  0  0  0
   13.3926    8.9746   -8.9215 H   0  0  0  0  0  0  0  0  0  0  0  0
   13.1770    7.3723   -9.1759 H   0  0  0  0  0  0  0  0  0  0  0  0
   12.8820    7.8186  -13.2205 H   0  0  0  0  0  0  0  0  0  0  0  0
   11.5358    6.1492  -14.4690 H   0  0  0  0  0  0  0  0  0  0  0  0
    9.6006    5.0456  -13.3834 H   0  0  0  0  0  0  0  0  0  0  0  0
    7.4432    5.8600  -12.2744 H   0  0  0  0  0  0  0  0  0  0  0  0
    6.7748    4.9037  -10.9624 H   0  0  0  0  0  0  0  0  0  0  0  0
    9.4247    7.2589   -9.0280 H   0  0  0  0  0  0  0  0  0  0  0  0
   10.8520    6.2307   -8.8246 H   0  0  0  0  0  0  0  0  0  0  0  0
   12.1150    7.5862   -6.9470 H   0  0  0  0  0  0  0  0  0  0  0  0
  2  1  1  0
  3  2  1  0
  4  3  1  0
  5  4  1  0
  6  5  1  0
  7  5  1  0
  8  4  1  0
  9  8  1  0
 10  9  1  0
 11 10  1  0
 12 11  1  0
 13 12  2  0
 14 13  1  0
 15 14  2  0
 16 15  1  0
 17 16  1  0
 18 16  2  0
 19 11  2  0
 19 15  1  0
 20  8  1  0
 20 19  1  0
 21  1  1  0
 22  1  1  0
 23  1  1  0
 24  2  1  0
 25  2  1  0
 26  3  1  0
 27  3  1  0
 28  5  1  0
 29  6  1  0
 30  6  1  0
 31  6  1  0
 32  7  1  0
 33  7  1  0
 34  7  1  0
  8 35  1  1
 36  9  1  0
 37  9  1  0
 38 12  1  0
 39 13  1  0
 40 14  1  0
 41 17  1  0
 42 17  1  0
 43 20  1  0
 44 20  1  0
  4 45  1  6
M  CHG  1   4   1
M  END
>  <b_m_subgroup_collapsed>  (1373) 
0

>  <r_i_docking_score>  (1373) 
-5.9610061406579398

>  <s_m_subgroup_title>  (1373) 
glide-dock_SP_D22_pv

>  <s_m_subgroupid>  (1373) 
glide-dock_SP_D22_pv

>  <Molecule ChEMBL ID>  (1373) 
CHEMBL3085216

>  <Standard Type>  (1373) 
Ki

>  <Standard Value>  (1373) 
50000.0

>  <label>  (1373) 
0

$$$$
CHEMBL1940412
     RDKit          3D

 46 48  0  0  1  0  0  0  0  0999 V2000
   12.8586    8.2098   -1.4239 F   0  0  0  0  0  0  0  0  0  0  0  0
   12.3030    8.3444   -2.6484 C   0  0  0  0  0  0  0  0  0  0  0  0
   11.9557    9.6197   -3.1241 C   0  0  0  0  0  0  0  0  0  0  0  0
   11.4437    9.7724   -4.4245 C   0  0  0  0  0  0  0  0  0  0  0  0
   11.2851    8.6595   -5.2695 C   0  0  0  0  0  0  0  0  0  0  0  0
   10.8400    8.9290   -6.5454 O   0  0  0  0  0  0  0  0  0  0  0  0
   10.8539    7.8919   -7.5162 C   0  0  0  0  0  0  0  0  0  0  0  0
    9.5309    7.1093   -7.4915 C   0  0  0  0  0  0  0  0  0  0  0  0
    9.5537    5.8558   -8.3829 C   0  0  0  0  0  0  0  0  0  0  0  0
    8.8867    6.0491   -9.6687 N   0  0  0  0  0  0  0  0  0  0  0  0
    9.6420    6.9140  -10.5835 C   0  0  0  0  0  0  0  0  0  0  0  0
    8.9406    7.0225  -11.9603 C   0  0  0  0  0  0  0  0  0  0  0  0
    8.7064    5.7022  -12.5438 N   0  0  0  0  0  0  0  0  0  0  0  0
    9.7127    5.0679  -13.3102 C   0  0  0  0  0  0  0  0  0  0  0  0
   11.0146    5.6140  -13.4495 C   0  0  0  0  0  0  0  0  0  0  0  0
   11.9923    4.9673  -14.2303 C   0  0  0  0  0  0  0  0  0  0  0  0
   11.6859    3.7641  -14.8894 C   0  0  0  0  0  0  0  0  0  0  0  0
   10.4004    3.2085  -14.7656 C   0  0  0  0  0  0  0  0  0  0  0  0
    9.4232    3.8580  -13.9873 C   0  0  0  0  0  0  0  0  0  0  0  0
    7.9297    4.8793  -11.6193 C   0  0  0  0  0  0  0  0  0  0  0  0
    8.6813    4.7387  -10.2841 C   0  0  0  0  0  0  0  0  0  0  0  0
   11.5834    7.3674   -4.7628 C   0  0  0  0  0  0  0  0  0  0  0  0
   12.0874    7.2137   -3.4564 C   0  0  0  0  0  0  0  0  0  0  0  0
   12.0872   10.4879   -2.4961 H   0  0  0  0  0  0  0  0  0  0  0  0
   11.1964   10.7578   -4.7907 H   0  0  0  0  0  0  0  0  0  0  0  0
   11.7195    7.2381   -7.4028 H   0  0  0  0  0  0  0  0  0  0  0  0
   10.9869    8.3712   -8.4845 H   0  0  0  0  0  0  0  0  0  0  0  0
    8.6902    7.7566   -7.7480 H   0  0  0  0  0  0  0  0  0  0  0  0
    9.3392    6.7856   -6.4685 H   0  0  0  0  0  0  0  0  0  0  0  0
    9.0073    5.0787   -7.8467 H   0  0  0  0  0  0  0  0  0  0  0  0
   10.5667    5.4736   -8.5174 H   0  0  0  0  0  0  0  0  0  0  0  0
   10.6600    6.5439  -10.6984 H   0  0  0  0  0  0  0  0  0  0  0  0
    9.7078    7.9147  -10.1607 H   0  0  0  0  0  0  0  0  0  0  0  0
    9.5058    7.6602  -12.6383 H   0  0  0  0  0  0  0  0  0  0  0  0
    7.9755    7.5164  -11.8480 H   0  0  0  0  0  0  0  0  0  0  0  0
   11.2984    6.5322  -12.9597 H   0  0  0  0  0  0  0  0  0  0  0  0
   12.9799    5.3964  -14.3201 H   0  0  0  0  0  0  0  0  0  0  0  0
   12.4354    3.2683  -15.4894 H   0  0  0  0  0  0  0  0  0  0  0  0
   10.1599    2.2870  -15.2752 H   0  0  0  0  0  0  0  0  0  0  0  0
    8.4388    3.4190  -13.9355 H   0  0  0  0  0  0  0  0  0  0  0  0
    6.9641    5.3575  -11.4476 H   0  0  0  0  0  0  0  0  0  0  0  0
    7.7050    3.8937  -12.0220 H   0  0  0  0  0  0  0  0  0  0  0  0
    9.6334    4.2242  -10.4297 H   0  0  0  0  0  0  0  0  0  0  0  0
    8.0820    4.1412   -9.5999 H   0  0  0  0  0  0  0  0  0  0  0  0
   11.4464    6.4782   -5.3592 H   0  0  0  0  0  0  0  0  0  0  0  0
   12.3323    6.2296   -3.0840 H   0  0  0  0  0  0  0  0  0  0  0  0
  2  1  1  0
  3  2  1  0
  4  3  2  0
  5  4  1  0
  6  5  1  0
  7  6  1  0
  8  7  1  0
  9  8  1  0
 10  9  1  0
 11 10  1  0
 12 11  1  0
 13 12  1  0
 14 13  1  0
 15 14  2  0
 16 15  1  0
 17 16  2  0
 18 17  1  0
 19 14  1  0
 19 18  2  0
 20 13  1  0
 21 10  1  0
 21 20  1  0
 22  5  2  0
 23  2  2  0
 23 22  1  0
 24  3  1  0
 25  4  1  0
 26  7  1  0
 27  7  1  0
 28  8  1  0
 29  8  1  0
 30  9  1  0
 31  9  1  0
 32 11  1  0
 33 11  1  0
 34 12  1  0
 35 12  1  0
 36 15  1  0
 37 16  1  0
 38 17  1  0
 39 18  1  0
 40 19  1  0
 41 20  1  0
 42 20  1  0
 43 21  1  0
 44 21  1  0
 45 22  1  0
 46 23  1  0
M  END
>  <b_m_subgroup_collapsed>  (1374) 
0

>  <r_i_docking_score>  (1374) 
-5.9563873924999697

>  <s_m_subgroup_title>  (1374) 
glide-dock_SP_D22_pv

>  <s_m_subgroupid>  (1374) 
glide-dock_SP_D22_pv

>  <Molecule ChEMBL ID>  (1374) 
CHEMBL1940412

>  <Standard Type>  (1374) 
Ki

>  <Standard Value>  (1374) 
37.0

>  <label>  (1374) 
1

$$$$
CHEMBL1080735
     RDKit          3D

 60 64  0  0  1  0  0  0  0  0999 V2000
   11.7721    7.9816  -10.5319 C   0  0  0  0  0  0  0  0  0  0  0  0
   10.2359    7.9800  -10.4658 C   0  0  1  0  0  0  0  0  0  0  0  0
    9.5380    7.3310  -11.6922 C   0  0  0  0  0  0  0  0  0  0  0  0
    9.4371    5.8700  -11.5958 N   0  0  0  0  0  0  0  0  0  0  0  0
    9.6941    4.9678  -12.5843 C   0  0  0  0  0  0  0  0  0  0  0  0
    9.2849    3.8083  -12.5473 O   0  0  0  0  0  0  0  0  0  0  0  0
   10.5226    5.3723  -13.7770 C   0  0  0  0  0  0  0  0  0  0  0  0
   11.7425    6.0613  -13.6203 C   0  0  0  0  0  0  0  0  0  0  0  0
   12.5172    6.4169  -14.7354 C   0  0  0  0  0  0  0  0  0  0  0  0
   12.1196    6.0675  -16.0413 C   0  0  0  0  0  0  0  0  0  0  0  0
   12.9700    6.4646  -17.1818 C   0  0  0  0  0  0  0  0  0  0  0  0
   13.2722    7.8383  -17.3265 C   0  0  0  0  0  0  0  0  0  0  0  0
   14.0848    8.3081  -18.3732 C   0  0  0  0  0  0  0  0  0  0  0  0
   14.6130    7.4014  -19.3034 C   0  0  0  0  0  0  0  0  0  0  0  0
   14.3313    6.0296  -19.1749 C   0  0  0  0  0  0  0  0  0  0  0  0
   13.5257    5.5443  -18.1181 C   0  0  0  0  0  0  0  0  0  0  0  0
   13.2919    4.0364  -18.0269 C   0  0  0  0  0  0  0  0  0  0  0  0
   12.1365    3.7276  -18.6147 F   0  0  0  0  0  0  0  0  0  0  0  0
   14.2653    3.3639  -18.6446 F   0  0  0  0  0  0  0  0  0  0  0  0
   13.2649    3.6148  -16.7655 F   0  0  0  0  0  0  0  0  0  0  0  0
   10.9129    5.3479  -16.1991 C   0  0  0  0  0  0  0  0  0  0  0  0
   10.1329    4.9843  -15.0790 C   0  0  0  0  0  0  0  0  0  0  0  0
    8.7357    5.4958  -10.3656 C   0  0  0  0  0  0  0  0  0  0  0  0
    9.5275    5.9691   -9.1357 C   0  0  0  0  0  0  0  0  0  0  0  0
    9.8295    7.4107   -9.1638 N   0  0  0  0  0  0  0  0  0  0  0  0
    9.6383    8.2411   -8.1059 C   0  0  0  0  0  0  0  0  0  0  0  0
    9.0571    9.3163   -8.2468 O   0  0  0  0  0  0  0  0  0  0  0  0
   10.3911    8.0111   -6.8081 C   0  0  0  0  0  0  0  0  0  0  0  0
   10.7726    6.7298   -6.3488 C   0  0  0  0  0  0  0  0  0  0  0  0
   11.4083    6.5722   -5.1057 C   0  0  0  0  0  0  0  0  0  0  0  0
   11.6861    7.6426   -4.2535 C   0  0  0  0  0  0  0  0  0  0  0  0
   12.2709    7.7603   -2.9499 C   0  0  0  0  0  0  0  0  0  0  0  0
   12.2469    9.0908   -2.6428 C   0  0  0  0  0  0  0  0  0  0  0  0
   11.6850    9.7765   -3.7042 N   0  0  0  0  0  0  0  0  0  0  0  0
   11.3243    8.9269   -4.7258 C   0  0  0  0  0  0  0  0  0  0  0  0
   10.7119    9.1207   -5.9812 C   0  0  0  0  0  0  0  0  0  0  0  0
   12.1396    8.4325  -11.4495 H   0  0  0  0  0  0  0  0  0  0  0  0
   12.1993    8.5560   -9.7090 H   0  0  0  0  0  0  0  0  0  0  0  0
   12.1736    6.9729  -10.4637 H   0  0  0  0  0  0  0  0  0  0  0  0
    9.9405    9.0279  -10.5137 H   0  0  0  0  0  0  0  0  0  0  0  0
   10.0006    7.6798  -12.6124 H   0  0  0  0  0  0  0  0  0  0  0  0
    8.5160    7.7132  -11.7425 H   0  0  0  0  0  0  0  0  0  0  0  0
   12.1089    6.3245  -12.6444 H   0  0  0  0  0  0  0  0  0  0  0  0
   13.4435    6.9523  -14.5800 H   0  0  0  0  0  0  0  0  0  0  0  0
   12.8652    8.5549  -16.6276 H   0  0  0  0  0  0  0  0  0  0  0  0
   14.2872    9.3656  -18.4650 H   0  0  0  0  0  0  0  0  0  0  0  0
   15.2305    7.7571  -20.1150 H   0  0  0  0  0  0  0  0  0  0  0  0
   14.7457    5.3459  -19.9007 H   0  0  0  0  0  0  0  0  0  0  0  0
   10.5800    5.0686  -17.1867 H   0  0  0  0  0  0  0  0  0  0  0  0
    9.2214    4.4230  -15.2274 H   0  0  0  0  0  0  0  0  0  0  0  0
    7.7375    5.9350  -10.3673 H   0  0  0  0  0  0  0  0  0  0  0  0
    8.5792    4.4210  -10.2843 H   0  0  0  0  0  0  0  0  0  0  0  0
    8.9298    5.7205   -8.2571 H   0  0  0  0  0  0  0  0  0  0  0  0
   10.4618    5.4119   -9.0700 H   0  0  0  0  0  0  0  0  0  0  0  0
   10.5862    5.8221   -6.8977 H   0  0  0  0  0  0  0  0  0  0  0  0
   11.6815    5.5900   -4.7700 H   0  0  0  0  0  0  0  0  0  0  0  0
   12.6390    6.9472   -2.3414 H   0  0  0  0  0  0  0  0  0  0  0  0
   12.5765    9.6118   -1.7545 H   0  0  0  0  0  0  0  0  0  0  0  0
   11.5520   10.7772   -3.6916 H   0  0  0  0  0  0  0  0  0  0  0  0
   10.4688   10.1254   -6.2931 H   0  0  0  0  0  0  0  0  0  0  0  0
  2  1  1  0
  3  2  1  0
  4  3  1  0
  5  4  1  0
  6  5  2  0
  7  5  1  0
  8  7  1  0
  9  8  2  0
 10  9  1  0
 11 10  1  0
 12 11  2  0
 13 12  1  0
 14 13  2  0
 15 14  1  0
 16 11  1  0
 16 15  2  0
 17 16  1  0
 18 17  1  0
 19 17  1  0
 20 17  1  0
 21 10  2  0
 22  7  2  0
 22 21  1  0
 23  4  1  0
 24 23  1  0
 25  2  1  0
 25 24  1  0
 26 25  1  0
 27 26  2  0
 28 26  1  0
 29 28  2  0
 30 29  1  0
 31 30  2  0
 32 31  1  0
 33 32  2  0
 34 33  1  0
 35 31  1  0
 35 34  1  0
 36 28  1  0
 36 35  2  0
 37  1  1  0
 38  1  1  0
 39  1  1  0
  2 40  1  1
 41  3  1  0
 42  3  1  0
 43  8  1  0
 44  9  1  0
 45 12  1  0
 46 13  1  0
 47 14  1  0
 48 15  1  0
 49 21  1  0
 50 22  1  0
 51 23  1  0
 52 23  1  0
 53 24  1  0
 54 24  1  0
 55 29  1  0
 56 30  1  0
 57 32  1  0
 58 33  1  0
 59 34  1  0
 60 36  1  0
M  END
>  <b_m_subgroup_collapsed>  (1375) 
0

>  <r_i_docking_score>  (1375) 
-5.95310994334708

>  <s_m_subgroup_title>  (1375) 
glide-dock_SP_D22_pv

>  <s_m_subgroupid>  (1375) 
glide-dock_SP_D22_pv

>  <Molecule ChEMBL ID>  (1375) 
CHEMBL1080735

>  <Standard Type>  (1375) 
Ki

>  <Standard Value>  (1375) 
10000.0

>  <label>  (1375) 
0

$$$$
CHEMBL2159457
     RDKit          3D

 62 64  0  0  1  0  0  0  0  0999 V2000
    8.6465    1.6502  -17.2862 C   0  0  0  0  0  0  0  0  0  0  0  0
    8.8906    1.7898  -15.7753 C   0  0  0  0  0  0  0  0  0  0  0  0
   10.0846    0.9372  -15.3115 C   0  0  0  0  0  0  0  0  0  0  0  0
    7.6268    1.4692  -14.9767 C   0  0  0  0  0  0  0  0  0  0  0  0
    7.1128    0.1543  -15.0048 C   0  0  0  0  0  0  0  0  0  0  0  0
    5.9857   -0.1979  -14.2434 C   0  0  0  0  0  0  0  0  0  0  0  0
    5.3449    0.7766  -13.4628 C   0  0  0  0  0  0  0  0  0  0  0  0
    5.8258    2.0988  -13.4467 C   0  0  0  0  0  0  0  0  0  0  0  0
    6.9838    2.4540  -14.1833 C   0  0  0  0  0  0  0  0  0  0  0  0
    7.5242    3.7207  -14.1331 O   0  0  0  0  0  0  0  0  0  0  0  0
    7.3329    4.4743  -12.9416 C   0  0  0  0  0  0  0  0  0  0  0  0
    8.4605    5.5176  -12.8907 C   0  0  0  0  0  0  0  0  0  0  0  0
    8.4863    6.3216  -11.6408 N   0  0  2  0  0  0  0  0  0  0  0  0
    9.2671    7.5758  -11.8059 C   0  0  0  0  0  0  0  0  0  0  0  0
    9.1865    8.4768  -10.5668 C   0  0  0  0  0  0  0  0  0  0  0  0
    9.4831    7.7273   -9.2612 C   0  0  1  0  0  0  0  0  0  0  0  0
    9.1517    8.6346   -8.0596 C   0  0  0  0  0  0  0  0  0  0  0  0
    9.5931    8.0490   -6.8014 N   0  0  0  0  0  0  0  0  0  0  0  0
   11.2407    7.6090   -6.6638 S   0  0  0  0  0  0  0  0  0  0  0  0
   11.3355    6.1726   -6.9611 O   0  0  0  0  0  0  0  0  0  0  0  0
   12.0315    8.5876   -7.4292 O   0  0  0  0  0  0  0  0  0  0  0  0
   11.5517    7.8814   -4.9407 C   0  0  0  0  0  0  0  0  0  0  0  0
   11.6915    6.7863   -4.0656 C   0  0  0  0  0  0  0  0  0  0  0  0
   12.0860    7.0199   -2.7359 C   0  0  0  0  0  0  0  0  0  0  0  0
   12.3046    8.3406   -2.2950 C   0  0  0  0  0  0  0  0  0  0  0  0
   12.7507    8.5723   -1.0470 F   0  0  0  0  0  0  0  0  0  0  0  0
   12.0860    9.4289   -3.1560 C   0  0  0  0  0  0  0  0  0  0  0  0
   11.7163    9.2029   -4.4913 C   0  0  0  0  0  0  0  0  0  0  0  0
    8.7727    6.3572   -9.1936 C   0  0  0  0  0  0  0  0  0  0  0  0
    8.9866    5.5518  -10.4724 C   0  0  0  0  0  0  0  0  0  0  0  0
    7.8223    2.2879  -17.6079 H   0  0  0  0  0  0  0  0  0  0  0  0
    9.5291    1.9443  -17.8541 H   0  0  0  0  0  0  0  0  0  0  0  0
    8.4022    0.6243  -17.5645 H   0  0  0  0  0  0  0  0  0  0  0  0
    9.1676    2.8289  -15.6010 H   0  0  0  0  0  0  0  0  0  0  0  0
   10.2754    1.0825  -14.2474 H   0  0  0  0  0  0  0  0  0  0  0  0
    9.9178   -0.1278  -15.4777 H   0  0  0  0  0  0  0  0  0  0  0  0
   10.9946    1.2122  -15.8452 H   0  0  0  0  0  0  0  0  0  0  0  0
    7.5931   -0.6155  -15.5937 H   0  0  0  0  0  0  0  0  0  0  0  0
    5.6197   -1.2152  -14.2619 H   0  0  0  0  0  0  0  0  0  0  0  0
    4.4857    0.5114  -12.8738 H   0  0  0  0  0  0  0  0  0  0  0  0
    5.2987    2.8248  -12.8471 H   0  0  0  0  0  0  0  0  0  0  0  0
    6.3570    4.9607  -12.9525 H   0  0  0  0  0  0  0  0  0  0  0  0
    7.3789    3.8181  -12.0727 H   0  0  0  0  0  0  0  0  0  0  0  0
    9.4275    5.0309  -13.0214 H   0  0  0  0  0  0  0  0  0  0  0  0
    8.3369    6.1718  -13.7515 H   0  0  0  0  0  0  0  0  0  0  0  0
   10.3067    7.3363  -12.0319 H   0  0  0  0  0  0  0  0  0  0  0  0
    8.8772    8.1431  -12.6468 H   0  0  0  0  0  0  0  0  0  0  0  0
    9.9065    9.2879  -10.6586 H   0  0  0  0  0  0  0  0  0  0  0  0
    8.2155    8.9725  -10.5290 H   0  0  0  0  0  0  0  0  0  0  0  0
   10.5548    7.5261   -9.2885 H   0  0  0  0  0  0  0  0  0  0  0  0
    9.6401    9.6006   -8.1731 H   0  0  0  0  0  0  0  0  0  0  0  0
    8.0862    8.8370   -7.9934 H   0  0  0  0  0  0  0  0  0  0  0  0
    8.9721    7.3103   -6.4694 H   0  0  0  0  0  0  0  0  0  0  0  0
   11.5533    5.7730   -4.4171 H   0  0  0  0  0  0  0  0  0  0  0  0
   12.2382    6.1895   -2.0620 H   0  0  0  0  0  0  0  0  0  0  0  0
   12.2393   10.4336   -2.7939 H   0  0  0  0  0  0  0  0  0  0  0  0
   11.5943   10.0332   -5.1719 H   0  0  0  0  0  0  0  0  0  0  0  0
    9.1307    5.7825   -8.3408 H   0  0  0  0  0  0  0  0  0  0  0  0
    7.7010    6.4674   -9.0469 H   0  0  0  0  0  0  0  0  0  0  0  0
    8.4561    4.6065  -10.3629 H   0  0  0  0  0  0  0  0  0  0  0  0
   10.0469    5.3137  -10.5969 H   0  0  0  0  0  0  0  0  0  0  0  0
    7.5412    6.6205  -11.4092 H   0  0  0  0  0  0  0  0  0  0  0  0
  2  1  1  0
  3  2  1  0
  4  2  1  0
  5  4  2  0
  6  5  1  0
  7  6  2  0
  8  7  1  0
  9  4  1  0
  9  8  2  0
 10  9  1  0
 11 10  1  0
 12 11  1  0
 13 12  1  0
 14 13  1  0
 15 14  1  0
 16 15  1  0
 17 16  1  0
 18 17  1  0
 19 18  1  0
 20 19  2  0
 21 19  2  0
 22 19  1  0
 23 22  1  0
 24 23  2  0
 25 24  1  0
 26 25  1  0
 27 25  2  0
 28 22  2  0
 28 27  1  0
 29 16  1  0
 30 13  1  0
 30 29  1  0
 31  1  1  0
 32  1  1  0
 33  1  1  0
 34  2  1  0
 35  3  1  0
 36  3  1  0
 37  3  1  0
 38  5  1  0
 39  6  1  0
 40  7  1  0
 41  8  1  0
 42 11  1  0
 43 11  1  0
 44 12  1  0
 45 12  1  0
 46 14  1  0
 47 14  1  0
 48 15  1  0
 49 15  1  0
 16 50  1  6
 51 17  1  0
 52 17  1  0
 53 18  1  0
 54 23  1  0
 55 24  1  0
 56 27  1  0
 57 28  1  0
 58 29  1  0
 59 29  1  0
 60 30  1  0
 61 30  1  0
 13 62  1  1
M  CHG  1  13   1
M  END
>  <b_m_subgroup_collapsed>  (1376) 
0

>  <r_i_docking_score>  (1376) 
-5.9518833360969401

>  <s_m_subgroup_title>  (1376) 
glide-dock_SP_D22_pv

>  <s_m_subgroupid>  (1376) 
glide-dock_SP_D22_pv

>  <Molecule ChEMBL ID>  (1376) 
CHEMBL2159457

>  <Standard Type>  (1376) 
Ki

>  <Standard Value>  (1376) 
50.0

>  <label>  (1376) 
1

$$$$
CHEMBL329443
     RDKit          3D

 48 49  0  0  1  0  0  0  0  0999 V2000
   10.1030    7.0388   -6.0020 C   0  0  0  0  0  0  0  0  0  0  0  0
    9.3228    7.3637   -7.2844 C   0  0  0  0  0  0  0  0  0  0  0  0
    9.4449    6.2476   -8.3399 C   0  0  0  0  0  0  0  0  0  0  0  0
    8.8870    6.6102   -9.6720 N   0  0  1  0  0  0  0  0  0  0  0  0
    9.6940    7.6393  -10.3866 C   0  0  0  0  0  0  0  0  0  0  0  0
    9.0014    8.0901  -11.6812 C   0  0  0  0  0  0  0  0  0  0  0  0
    8.6936    6.8955  -12.5930 C   0  0  0  0  0  0  0  0  0  0  0  0
    7.9516    5.7802  -11.8405 C   0  0  1  0  0  0  0  0  0  0  0  0
    7.7435    4.5609  -12.7296 C   0  0  0  0  0  0  0  0  0  0  0  0
    6.4481    4.0321  -12.9151 C   0  0  0  0  0  0  0  0  0  0  0  0
    6.2527    2.8992  -13.7297 C   0  0  0  0  0  0  0  0  0  0  0  0
    7.3469    2.2892  -14.3753 C   0  0  0  0  0  0  0  0  0  0  0  0
    8.6399    2.8178  -14.1976 C   0  0  0  0  0  0  0  0  0  0  0  0
   10.0454    2.0374  -14.9895 S   0  0  0  0  0  0  0  0  0  0  0  0
   11.2788    2.5726  -14.3878 O   0  0  0  0  0  0  0  0  0  0  0  0
    9.8105    0.5844  -15.0448 O   0  0  0  0  0  0  0  0  0  0  0  0
    9.9485    2.6537  -16.6088 N   0  0  0  0  0  0  0  0  0  0  0  0
    8.9128    2.1195  -17.4992 C   0  0  0  0  0  0  0  0  0  0  0  0
   10.2729    4.0682  -16.8343 C   0  0  0  0  0  0  0  0  0  0  0  0
    8.8402    3.9451  -13.3780 C   0  0  0  0  0  0  0  0  0  0  0  0
    8.6704    5.4129  -10.5247 C   0  0  0  0  0  0  0  0  0  0  0  0
   10.0863    7.8876   -5.3143 H   0  0  0  0  0  0  0  0  0  0  0  0
    9.6795    6.1746   -5.4786 H   0  0  0  0  0  0  0  0  0  0  0  0
   11.1517    6.8167   -6.2208 H   0  0  0  0  0  0  0  0  0  0  0  0
    9.7102    8.3114   -7.6567 H   0  0  0  0  0  0  0  0  0  0  0  0
    8.2696    7.5339   -7.0418 H   0  0  0  0  0  0  0  0  0  0  0  0
    8.9211    5.3683   -7.9590 H   0  0  0  0  0  0  0  0  0  0  0  0
   10.4888    5.9483   -8.4609 H   0  0  0  0  0  0  0  0  0  0  0  0
   10.6830    7.2382  -10.6118 H   0  0  0  0  0  0  0  0  0  0  0  0
    9.8462    8.5221   -9.7685 H   0  0  0  0  0  0  0  0  0  0  0  0
    9.6343    8.7984  -12.2127 H   0  0  0  0  0  0  0  0  0  0  0  0
    8.0860    8.6286  -11.4473 H   0  0  0  0  0  0  0  0  0  0  0  0
    9.6377    6.5289  -12.9941 H   0  0  0  0  0  0  0  0  0  0  0  0
    8.0853    7.2070  -13.4418 H   0  0  0  0  0  0  0  0  0  0  0  0
    6.9686    6.1721  -11.5797 H   0  0  0  0  0  0  0  0  0  0  0  0
    5.6017    4.4862  -12.4210 H   0  0  0  0  0  0  0  0  0  0  0  0
    5.2589    2.4956  -13.8467 H   0  0  0  0  0  0  0  0  0  0  0  0
    7.1934    1.4135  -14.9907 H   0  0  0  0  0  0  0  0  0  0  0  0
    9.1387    2.3576  -18.5389 H   0  0  0  0  0  0  0  0  0  0  0  0
    8.8556    1.0338  -17.4104 H   0  0  0  0  0  0  0  0  0  0  0  0
    7.9391    2.5393  -17.2470 H   0  0  0  0  0  0  0  0  0  0  0  0
   10.4268    4.2645  -17.8968 H   0  0  0  0  0  0  0  0  0  0  0  0
    9.4650    4.7062  -16.4736 H   0  0  0  0  0  0  0  0  0  0  0  0
   11.1900    4.3372  -16.3081 H   0  0  0  0  0  0  0  0  0  0  0  0
    9.8447    4.3202  -13.2383 H   0  0  0  0  0  0  0  0  0  0  0  0
    8.0739    4.6764   -9.9835 H   0  0  0  0  0  0  0  0  0  0  0  0
    9.6278    4.9373  -10.7357 H   0  0  0  0  0  0  0  0  0  0  0  0
    7.9577    7.0086   -9.5354 H   0  0  0  0  0  0  0  0  0  0  0  0
  2  1  1  0
  3  2  1  0
  4  3  1  0
  5  4  1  0
  6  5  1  0
  7  6  1  0
  8  7  1  0
  9  8  1  0
 10  9  1  0
 11 10  2  0
 12 11  1  0
 13 12  2  0
 14 13  1  0
 15 14  2  0
 16 14  2  0
 17 14  1  0
 18 17  1  0
 19 17  1  0
 20  9  2  0
 20 13  1  0
 21  4  1  0
 21  8  1  0
 22  1  1  0
 23  1  1  0
 24  1  1  0
 25  2  1  0
 26  2  1  0
 27  3  1  0
 28  3  1  0
 29  5  1  0
 30  5  1  0
 31  6  1  0
 32  6  1  0
 33  7  1  0
 34  7  1  0
  8 35  1  1
 36 10  1  0
 37 11  1  0
 38 12  1  0
 39 18  1  0
 40 18  1  0
 41 18  1  0
 42 19  1  0
 43 19  1  0
 44 19  1  0
 45 20  1  0
 46 21  1  0
 47 21  1  0
  4 48  1  1
M  CHG  1   4   1
M  END
>  <b_m_subgroup_collapsed>  (1377) 
0

>  <r_i_docking_score>  (1377) 
-5.9511851522305204

>  <s_m_subgroup_title>  (1377) 
glide-dock_SP_D22_pv

>  <s_m_subgroupid>  (1377) 
glide-dock_SP_D22_pv

>  <Molecule ChEMBL ID>  (1377) 
CHEMBL329443

>  <Standard Type>  (1377) 
Ki

>  <Standard Value>  (1377) 
91.0

>  <label>  (1377) 
1

$$$$
CHEMBL352207
     RDKit          3D

 55 59  0  0  1  0  0  0  0  0999 V2000
    8.0866    2.5722  -18.1485 O   0  0  0  0  0  0  0  0  0  0  0  0
    9.1040    3.0258  -17.6169 C   0  0  0  0  0  0  0  0  0  0  0  0
    9.4731    2.5003  -16.2081 C   0  0  2  0  0  0  0  0  0  0  0  0
    9.0257    3.4377  -15.1263 N   0  0  0  0  0  0  0  0  0  0  0  0
   10.0410    4.2940  -14.4941 C   0  0  0  0  0  0  0  0  0  0  0  0
    9.3698    5.3516  -13.6030 C   0  0  0  0  0  0  0  0  0  0  0  0
    8.5280    4.7181  -12.5634 N   0  0  0  0  0  0  0  0  0  0  0  0
    7.9132    5.6917  -11.6295 C   0  0  0  0  0  0  0  0  0  0  0  0
    8.9235    6.2954  -10.6687 C   0  0  0  0  0  0  0  0  0  0  0  0
    9.1920    5.6674   -9.4331 C   0  0  0  0  0  0  0  0  0  0  0  0
   10.0563    6.2780   -8.5027 C   0  0  0  0  0  0  0  0  0  0  0  0
   10.6585    7.5151   -8.8059 C   0  0  0  0  0  0  0  0  0  0  0  0
   11.6841    8.2871   -7.6552 Cl  0  0  0  0  0  0  0  0  0  0  0  0
   10.4133    8.1325  -10.0464 C   0  0  0  0  0  0  0  0  0  0  0  0
    9.5452    7.5266  -10.9738 C   0  0  0  0  0  0  0  0  0  0  0  0
    7.5269    3.8505  -13.2251 C   0  0  0  0  0  0  0  0  0  0  0  0
    8.2371    2.7809  -14.0814 C   0  0  0  0  0  0  0  0  0  0  0  0
   10.8923    1.8893  -16.0564 C   0  0  0  0  0  0  0  0  0  0  0  0
   11.9535    2.3690  -17.0568 C   0  0  0  0  0  0  0  0  0  0  0  0
   12.1105    3.8770  -17.1456 C   0  0  0  0  0  0  0  0  0  0  0  0
   13.2428    4.6446  -16.7903 C   0  0  0  0  0  0  0  0  0  0  0  0
   13.3053    6.0284  -17.0821 C   0  0  0  0  0  0  0  0  0  0  0  0
   12.2552    6.6673  -17.7782 C   0  0  0  0  0  0  0  0  0  0  0  0
   11.1261    5.9118  -18.1402 C   0  0  0  0  0  0  0  0  0  0  0  0
   11.0557    4.5624  -17.7853 C   0  0  0  0  0  0  0  0  0  0  0  0
    9.8196    4.0142  -18.2060 N   0  0  0  0  0  0  0  0  0  0  0  0
    9.2110    4.8976  -19.1961 C   0  0  0  0  0  0  0  0  0  0  0  0
    9.8880    6.2500  -18.9345 C   0  0  0  0  0  0  0  0  0  0  0  0
    8.8300    1.6215  -16.1311 H   0  0  0  0  0  0  0  0  0  0  0  0
   10.7411    3.7151  -13.8922 H   0  0  0  0  0  0  0  0  0  0  0  0
   10.6191    4.8266  -15.2404 H   0  0  0  0  0  0  0  0  0  0  0  0
   10.1410    5.9734  -13.1496 H   0  0  0  0  0  0  0  0  0  0  0  0
    8.7413    6.0003  -14.2127 H   0  0  0  0  0  0  0  0  0  0  0  0
    7.4044    6.4836  -12.1826 H   0  0  0  0  0  0  0  0  0  0  0  0
    7.1397    5.1978  -11.0418 H   0  0  0  0  0  0  0  0  0  0  0  0
    8.7075    4.7356   -9.1783 H   0  0  0  0  0  0  0  0  0  0  0  0
   10.2407    5.8054   -7.5489 H   0  0  0  0  0  0  0  0  0  0  0  0
   10.8749    9.0818  -10.2760 H   0  0  0  0  0  0  0  0  0  0  0  0
    9.3339    8.0278  -11.9068 H   0  0  0  0  0  0  0  0  0  0  0  0
    6.8976    3.3759  -12.4715 H   0  0  0  0  0  0  0  0  0  0  0  0
    6.8597    4.4526  -13.8458 H   0  0  0  0  0  0  0  0  0  0  0  0
    7.4729    2.1390  -14.5222 H   0  0  0  0  0  0  0  0  0  0  0  0
    8.8763    2.1472  -13.4592 H   0  0  0  0  0  0  0  0  0  0  0  0
   10.8131    0.8077  -16.1753 H   0  0  0  0  0  0  0  0  0  0  0  0
   11.2731    2.0045  -15.0443 H   0  0  0  0  0  0  0  0  0  0  0  0
   11.7420    1.9766  -18.0528 H   0  0  0  0  0  0  0  0  0  0  0  0
   12.9141    1.9380  -16.7795 H   0  0  0  0  0  0  0  0  0  0  0  0
   14.0846    4.1722  -16.3129 H   0  0  0  0  0  0  0  0  0  0  0  0
   14.1831    6.5936  -16.8038 H   0  0  0  0  0  0  0  0  0  0  0  0
   12.3236    7.7140  -18.0386 H   0  0  0  0  0  0  0  0  0  0  0  0
    9.4624    4.5228  -20.1892 H   0  0  0  0  0  0  0  0  0  0  0  0
    8.1241    4.9801  -19.1264 H   0  0  0  0  0  0  0  0  0  0  0  0
    9.2493    6.9002  -18.3356 H   0  0  0  0  0  0  0  0  0  0  0  0
   10.1367    6.7695  -19.8603 H   0  0  0  0  0  0  0  0  0  0  0  0
    9.1211    4.1165  -12.0095 H   0  0  0  0  0  0  0  0  0  0  0  0
  2  1  2  0
  3  2  1  0
  4  3  1  0
  5  4  1  0
  6  5  1  0
  7  6  1  0
  8  7  1  0
  9  8  1  0
 10  9  1  0
 11 10  2  0
 12 11  1  0
 13 12  1  0
 14 12  2  0
 15  9  2  0
 15 14  1  0
 16  7  1  0
 17  4  1  0
 17 16  1  0
 18  3  1  0
 19 18  1  0
 20 19  1  0
 21 20  2  0
 22 21  1  0
 23 22  2  0
 24 23  1  0
 25 20  1  0
 25 24  2  0
 26  2  1  0
 26 25  1  0
 27 26  1  0
 28 24  1  0
 28 27  1  0
  3 29  1  1
 30  5  1  0
 31  5  1  0
 32  6  1  0
 33  6  1  0
 34  8  1  0
 35  8  1  0
 36 10  1  0
 37 11  1  0
 38 14  1  0
 39 15  1  0
 40 16  1  0
 41 16  1  0
 42 17  1  0
 43 17  1  0
 44 18  1  0
 45 18  1  0
 46 19  1  0
 47 19  1  0
 48 21  1  0
 49 22  1  0
 50 23  1  0
 51 27  1  0
 52 27  1  0
 53 28  1  0
 54 28  1  0
 55  7  1  0
M  CHG  1   7   1
M  END
>  <b_m_subgroup_collapsed>  (1378) 
0

>  <r_i_docking_score>  (1378) 
-5.9505262585162004

>  <s_m_subgroup_title>  (1378) 
glide-dock_SP_D22_pv

>  <s_m_subgroupid>  (1378) 
glide-dock_SP_D22_pv

>  <Molecule ChEMBL ID>  (1378) 
CHEMBL352207

>  <Standard Type>  (1378) 
Ki

>  <Standard Value>  (1378) 
62.0

>  <label>  (1378) 
1

$$$$
CHEMBL3289969
     RDKit          3D

 52 55  0  0  1  0  0  0  0  0999 V2000
   10.8768    2.7597  -14.2377 O   0  0  0  0  0  0  0  0  0  0  0  0
    9.8907    3.4280  -15.0990 S   0  0  0  0  0  0  0  0  0  0  0  0
   10.3209    4.1392  -16.3117 O   0  0  0  0  0  0  0  0  0  0  0  0
    9.0238    4.5772  -14.1302 N   0  0  0  0  0  0  0  0  0  0  0  0
    8.4645    4.2143  -12.8213 C   0  0  0  0  0  0  0  0  0  0  0  0
    8.3621    5.4346  -11.8799 C   0  0  0  0  0  0  0  0  0  0  0  0
    9.7154    5.7696  -11.2305 C   0  0  0  0  0  0  0  0  0  0  0  0
    9.6654    6.8700  -10.2595 N   0  0  0  0  0  0  0  0  0  0  0  0
    9.1557    6.3802   -8.9648 C   0  0  0  0  0  0  0  0  0  0  0  0
    9.2422    7.4557   -7.8543 C   0  0  0  0  0  0  0  0  0  0  0  0
   10.6137    7.9371   -7.7249 N   0  0  0  0  0  0  0  0  0  0  0  0
   10.8812    8.7343   -6.6004 C   0  0  0  0  0  0  0  0  0  0  0  0
   10.9313   10.0617   -6.6108 N   0  0  0  0  0  0  0  0  0  0  0  0
   11.2868   10.4819   -5.3016 O   0  0  0  0  0  0  0  0  0  0  0  0
   11.5148    9.3729   -4.5044 C   0  0  0  0  0  0  0  0  0  0  0  0
   11.9470    9.2547   -3.1752 C   0  0  0  0  0  0  0  0  0  0  0  0
   12.0872    7.9541   -2.6465 C   0  0  0  0  0  0  0  0  0  0  0  0
   11.7822    6.8228   -3.4428 C   0  0  0  0  0  0  0  0  0  0  0  0
   11.3445    6.9706   -4.7809 C   0  0  0  0  0  0  0  0  0  0  0  0
   11.2278    8.2703   -5.3151 C   0  0  0  0  0  0  0  0  0  0  0  0
   11.0784    8.4802   -8.9952 C   0  0  0  0  0  0  0  0  0  0  0  0
   11.0257    7.3852  -10.0754 C   0  0  0  0  0  0  0  0  0  0  0  0
    8.6420    2.2255  -15.5719 C   0  0  0  0  0  0  0  0  0  0  0  0
    8.1572    2.1719  -16.8948 C   0  0  0  0  0  0  0  0  0  0  0  0
    7.1416    1.2536  -17.2301 C   0  0  0  0  0  0  0  0  0  0  0  0
    6.6086    0.3930  -16.2487 C   0  0  0  0  0  0  0  0  0  0  0  0
    5.3225   -0.6801  -16.6739 Cl  0  0  0  0  0  0  0  0  0  0  0  0
    7.1205    0.4282  -14.9322 C   0  0  0  0  0  0  0  0  0  0  0  0
    6.4841   -0.6026  -13.7018 Cl  0  0  0  0  0  0  0  0  0  0  0  0
    8.1513    1.3298  -14.6055 C   0  0  0  0  0  0  0  0  0  0  0  0
    8.4265    5.1891  -14.6835 H   0  0  0  0  0  0  0  0  0  0  0  0
    7.4757    3.7805  -12.9767 H   0  0  0  0  0  0  0  0  0  0  0  0
    9.0826    3.4403  -12.3625 H   0  0  0  0  0  0  0  0  0  0  0  0
    7.9643    6.3016  -12.4088 H   0  0  0  0  0  0  0  0  0  0  0  0
    7.6378    5.2024  -11.0985 H   0  0  0  0  0  0  0  0  0  0  0  0
   10.0860    4.8697  -10.7412 H   0  0  0  0  0  0  0  0  0  0  0  0
   10.4262    6.0125  -12.0239 H   0  0  0  0  0  0  0  0  0  0  0  0
    8.1168    6.0668   -9.0727 H   0  0  0  0  0  0  0  0  0  0  0  0
    9.7228    5.5029   -8.6506 H   0  0  0  0  0  0  0  0  0  0  0  0
    8.5705    8.2849   -8.0829 H   0  0  0  0  0  0  0  0  0  0  0  0
    8.9045    7.0341   -6.9072 H   0  0  0  0  0  0  0  0  0  0  0  0
   12.1648   10.1305   -2.5806 H   0  0  0  0  0  0  0  0  0  0  0  0
   12.4175    7.8227   -1.6272 H   0  0  0  0  0  0  0  0  0  0  0  0
   11.8852    5.8314   -3.0236 H   0  0  0  0  0  0  0  0  0  0  0  0
   11.1233    6.1058   -5.3892 H   0  0  0  0  0  0  0  0  0  0  0  0
   10.4681    9.3362   -9.2879 H   0  0  0  0  0  0  0  0  0  0  0  0
   12.1037    8.8372   -8.8890 H   0  0  0  0  0  0  0  0  0  0  0  0
   11.6853    6.5711   -9.7892 H   0  0  0  0  0  0  0  0  0  0  0  0
   11.3973    7.7872  -11.0194 H   0  0  0  0  0  0  0  0  0  0  0  0
    8.5477    2.8429  -17.6455 H   0  0  0  0  0  0  0  0  0  0  0  0
    6.7565    1.2163  -18.2385 H   0  0  0  0  0  0  0  0  0  0  0  0
    8.5556    1.3490  -13.6053 H   0  0  0  0  0  0  0  0  0  0  0  0
  2  1  2  0
  3  2  2  0
  4  2  1  0
  5  4  1  0
  6  5  1  0
  7  6  1  0
  8  7  1  0
  9  8  1  0
 10  9  1  0
 11 10  1  0
 12 11  1  0
 13 12  2  0
 14 13  1  0
 15 14  1  0
 16 15  2  0
 17 16  1  0
 18 17  2  0
 19 18  1  0
 20 12  1  0
 20 15  1  0
 20 19  2  0
 21 11  1  0
 22  8  1  0
 22 21  1  0
 23  2  1  0
 24 23  1  0
 25 24  2  0
 26 25  1  0
 27 26  1  0
 28 26  2  0
 29 28  1  0
 30 23  2  0
 30 28  1  0
 31  4  1  0
 32  5  1  0
 33  5  1  0
 34  6  1  0
 35  6  1  0
 36  7  1  0
 37  7  1  0
 38  9  1  0
 39  9  1  0
 40 10  1  0
 41 10  1  0
 42 16  1  0
 43 17  1  0
 44 18  1  0
 45 19  1  0
 46 21  1  0
 47 21  1  0
 48 22  1  0
 49 22  1  0
 50 24  1  0
 51 25  1  0
 52 30  1  0
M  END
>  <b_m_subgroup_collapsed>  (1379) 
0

>  <r_i_docking_score>  (1379) 
-5.9359449986495303

>  <s_m_subgroup_title>  (1379) 
glide-dock_SP_D22_pv

>  <s_m_subgroupid>  (1379) 
glide-dock_SP_D22_pv

>  <Molecule ChEMBL ID>  (1379) 
CHEMBL3289969

>  <Standard Type>  (1379) 
Ki

>  <Standard Value>  (1379) 
10000.0

>  <label>  (1379) 
0

$$$$
CHEMBL2432047
     RDKit          3D

 40 45  0  0  1  0  0  0  0  0999 V2000
    8.6162    3.6653  -13.7096 C   0  0  0  0  0  0  0  0  0  0  0  0
    7.2100    3.6000  -13.6752 C   0  0  0  0  0  0  0  0  0  0  0  0
    6.4388    4.5723  -13.1485 N   0  0  0  0  0  0  0  0  0  0  0  0
    7.0526    5.6617  -12.6401 C   0  0  0  0  0  0  0  0  0  0  0  0
    8.4561    5.8225  -12.6144 C   0  0  0  0  0  0  0  0  0  0  0  0
    9.0945    7.0609  -12.0103 C   0  0  0  0  0  0  0  0  0  0  0  0
    8.8860    7.0755  -10.5548 N   0  0  0  0  0  0  0  0  0  0  0  0
    9.7953    7.9162   -9.7567 C   0  0  1  0  0  0  0  0  0  0  0  0
    9.2007    8.2012   -8.3502 C   0  0  2  0  0  0  0  0  0  0  0  0
   10.2295    8.9159   -7.3750 C   0  0  2  0  0  0  0  0  0  0  0  0
   11.5855    9.1709   -8.0462 C   0  0  0  0  0  0  0  0  0  0  0  0
   11.9910    7.7723   -8.4036 C   0  0  1  0  0  0  0  0  0  0  0  0
   11.4669    6.9131   -7.2588 C   0  0  1  0  0  0  0  0  0  0  0  0
   10.5931    7.7937   -6.3812 C   0  0  2  0  0  0  0  0  0  0  0  0
    9.2861    7.0598   -6.2562 C   0  0  0  0  0  0  0  0  0  0  0  0
    9.1407    6.7794   -7.7338 C   0  0  2  0  0  0  0  0  0  0  0  0
   10.4860    6.2321   -8.1916 C   0  0  1  0  0  0  0  0  0  0  0  0
   10.9939    7.0845   -9.3601 C   0  0  1  0  0  0  0  0  0  0  0  0
    9.2512    4.7936  -13.1605 C   0  0  0  0  0  0  0  0  0  0  0  0
    9.1942    2.8575  -14.1336 H   0  0  0  0  0  0  0  0  0  0  0  0
    6.6917    2.7424  -14.0791 H   0  0  0  0  0  0  0  0  0  0  0  0
    6.4023    6.4288  -12.2455 H   0  0  0  0  0  0  0  0  0  0  0  0
   10.1617    7.0694  -12.2368 H   0  0  0  0  0  0  0  0  0  0  0  0
    8.6613    7.9613  -12.4488 H   0  0  0  0  0  0  0  0  0  0  0  0
    7.9162    7.3785  -10.3810 H   0  0  0  0  0  0  0  0  0  0  0  0
   10.0434    8.8309  -10.2969 H   0  0  0  0  0  0  0  0  0  0  0  0
    8.2394    8.7134   -8.3624 H   0  0  0  0  0  0  0  0  0  0  0  0
    9.8043    9.7723   -6.8752 H   0  0  0  0  0  0  0  0  0  0  0  0
   11.5118    9.8002   -8.9290 H   0  0  0  0  0  0  0  0  0  0  0  0
   12.2885    9.6224   -7.3448 H   0  0  0  0  0  0  0  0  0  0  0  0
   13.0416    7.6273   -8.6562 H   0  0  0  0  0  0  0  0  0  0  0  0
   12.1598    6.2266   -6.7727 H   0  0  0  0  0  0  0  0  0  0  0  0
   11.0551    8.1251   -5.4505 H   0  0  0  0  0  0  0  0  0  0  0  0
    9.3613    6.1724   -5.6358 H   0  0  0  0  0  0  0  0  0  0  0  0
    8.4864    7.7043   -5.8894 H   0  0  0  0  0  0  0  0  0  0  0  0
    8.2734    6.1786   -8.0145 H   0  0  0  0  0  0  0  0  0  0  0  0
   10.6009    5.1511   -8.2748 H   0  0  0  0  0  0  0  0  0  0  0  0
   11.4999    6.5724  -10.1711 H   0  0  0  0  0  0  0  0  0  0  0  0
   10.3292    4.8650  -13.1626 H   0  0  0  0  0  0  0  0  0  0  0  0
    8.9623    6.1322  -10.2049 H   0  0  0  0  0  0  0  0  0  0  0  0
  2  1  1  0
  3  2  2  0
  4  3  1  0
  5  4  2  0
  6  5  1  0
  7  6  1  0
  8  7  1  0
  9  8  1  0
 10  9  1  0
 11 10  1  0
 12 11  1  0
 13 12  1  0
 14 10  1  0
 14 13  1  0
 15 14  1  0
 16  9  1  0
 16 15  1  0
 17 13  1  0
 17 16  1  0
 18  8  1  0
 18 12  1  0
 18 17  1  0
 19  1  2  0
 19  5  1  0
 20  1  1  0
 21  2  1  0
 22  4  1  0
 23  6  1  0
 24  6  1  0
 25  7  1  0
  8 26  1  6
  9 27  1  6
 10 28  1  1
 29 11  1  0
 30 11  1  0
 12 31  1  6
 13 32  1  1
 14 33  1  1
 34 15  1  0
 35 15  1  0
 16 36  1  1
 17 37  1  6
 18 38  1  6
 39 19  1  0
 40  7  1  0
M  CHG  1   7   1
M  END
>  <b_m_subgroup_collapsed>  (1380) 
0

>  <r_i_docking_score>  (1380) 
-5.9263268445322899

>  <s_m_subgroup_title>  (1380) 
glide-dock_SP_D22_pv

>  <s_m_subgroupid>  (1380) 
glide-dock_SP_D22_pv

>  <Molecule ChEMBL ID>  (1380) 
CHEMBL2432047

>  <Standard Type>  (1380) 
Ki

>  <Standard Value>  (1380) 
10000.0

>  <label>  (1380) 
0

$$$$
CHEMBL3085215
     RDKit          3D

 46 47  0  0  1  0  0  0  0  0999 V2000
   11.7168    9.9045   -6.4926 C   0  0  0  0  0  0  0  0  0  0  0  0
   11.5536    9.0181   -7.7397 C   0  0  0  0  0  0  0  0  0  0  0  0
   10.1208    9.0501   -8.3468 C   0  0  0  0  0  0  0  0  0  0  0  0
    9.5697    7.7584   -8.8610 N   0  0  2  0  0  0  0  0  0  0  0  0
    8.9663    6.9178   -7.7612 C   0  0  0  0  0  0  0  0  0  0  0  0
    9.8526    6.6818   -6.5252 C   0  0  0  0  0  0  0  0  0  0  0  0
    8.3524    5.5942   -8.2200 C   0  0  0  0  0  0  0  0  0  0  0  0
   10.3181    7.0993  -10.0031 C   0  0  2  0  0  0  0  0  0  0  0  0
   11.1465    8.0725  -10.8812 C   0  0  0  0  0  0  0  0  0  0  0  0
   11.9223    7.3738  -11.8393 O   0  0  0  0  0  0  0  0  0  0  0  0
   11.2185    6.5722  -12.6978 C   0  0  0  0  0  0  0  0  0  0  0  0
   11.8507    6.1726  -13.8891 C   0  0  0  0  0  0  0  0  0  0  0  0
   11.1907    5.3185  -14.7872 C   0  0  0  0  0  0  0  0  0  0  0  0
    9.8882    4.8739  -14.5003 C   0  0  0  0  0  0  0  0  0  0  0  0
    9.2256    5.2699  -13.3142 C   0  0  0  0  0  0  0  0  0  0  0  0
    7.8434    4.7341  -13.1123 C   0  0  0  0  0  0  0  0  0  0  0  0
    6.7775    5.6653  -12.5395 C   0  0  0  0  0  0  0  0  0  0  0  0
    7.5030    3.6101  -13.4773 O   0  0  0  0  0  0  0  0  0  0  0  0
    9.9234    6.0921  -12.3785 C   0  0  0  0  0  0  0  0  0  0  0  0
    9.3460    6.4227  -11.0060 C   0  0  0  0  0  0  0  0  0  0  0  0
   12.7258    9.8086   -6.0853 H   0  0  0  0  0  0  0  0  0  0  0  0
   11.5646   10.9593   -6.7180 H   0  0  0  0  0  0  0  0  0  0  0  0
   11.0160    9.6366   -5.7017 H   0  0  0  0  0  0  0  0  0  0  0  0
   11.8726    8.0029   -7.5099 H   0  0  0  0  0  0  0  0  0  0  0  0
   12.2834    9.3723   -8.4599 H   0  0  0  0  0  0  0  0  0  0  0  0
   10.0815    9.7723   -9.1573 H   0  0  0  0  0  0  0  0  0  0  0  0
    9.4179    9.4297   -7.6059 H   0  0  0  0  0  0  0  0  0  0  0  0
    8.1277    7.5122   -7.3966 H   0  0  0  0  0  0  0  0  0  0  0  0
    9.2830    6.1715   -5.7540 H   0  0  0  0  0  0  0  0  0  0  0  0
   10.7352    6.0869   -6.7548 H   0  0  0  0  0  0  0  0  0  0  0  0
   10.1599    7.6035   -6.0410 H   0  0  0  0  0  0  0  0  0  0  0  0
    7.7298    5.1569   -7.4459 H   0  0  0  0  0  0  0  0  0  0  0  0
    7.6859    5.7700   -9.0582 H   0  0  0  0  0  0  0  0  0  0  0  0
    9.1072    4.8576   -8.4950 H   0  0  0  0  0  0  0  0  0  0  0  0
   11.0036    6.3625   -9.5847 H   0  0  0  0  0  0  0  0  0  0  0  0
   10.4859    8.7722  -11.3984 H   0  0  0  0  0  0  0  0  0  0  0  0
   11.8669    8.6619  -10.3335 H   0  0  0  0  0  0  0  0  0  0  0  0
   12.8502    6.5192  -14.1069 H   0  0  0  0  0  0  0  0  0  0  0  0
   11.6796    5.0078  -15.6985 H   0  0  0  0  0  0  0  0  0  0  0  0
    9.3913    4.2261  -15.2085 H   0  0  0  0  0  0  0  0  0  0  0  0
    6.9980    6.7069  -12.7741 H   0  0  0  0  0  0  0  0  0  0  0  0
    5.8039    5.4250  -12.9672 H   0  0  0  0  0  0  0  0  0  0  0  0
    6.7063    5.5546  -11.4582 H   0  0  0  0  0  0  0  0  0  0  0  0
    8.4865    7.0766  -11.1460 H   0  0  0  0  0  0  0  0  0  0  0  0
    9.0081    5.4610  -10.6385 H   0  0  0  0  0  0  0  0  0  0  0  0
    8.7256    8.0647   -9.3321 H   0  0  0  0  0  0  0  0  0  0  0  0
  2  1  1  0
  3  2  1  0
  4  3  1  0
  5  4  1  0
  6  5  1  0
  7  5  1  0
  8  4  1  0
  9  8  1  0
 10  9  1  0
 11 10  1  0
 12 11  1  0
 13 12  2  0
 14 13  1  0
 15 14  2  0
 16 15  1  0
 17 16  1  0
 18 16  2  0
 19 11  2  0
 19 15  1  0
 20  8  1  0
 20 19  1  0
 21  1  1  0
 22  1  1  0
 23  1  1  0
 24  2  1  0
 25  2  1  0
 26  3  1  0
 27  3  1  0
 28  5  1  0
 29  6  1  0
 30  6  1  0
 31  6  1  0
 32  7  1  0
 33  7  1  0
 34  7  1  0
  8 35  1  1
 36  9  1  0
 37  9  1  0
 38 12  1  0
 39 13  1  0
 40 14  1  0
 41 17  1  0
 42 17  1  0
 43 17  1  0
 44 20  1  0
 45 20  1  0
  4 46  1  6
M  CHG  1   4   1
M  END
>  <b_m_subgroup_collapsed>  (1381) 
0

>  <r_i_docking_score>  (1381) 
-5.92079382489234

>  <s_m_subgroup_title>  (1381) 
glide-dock_SP_D22_pv

>  <s_m_subgroupid>  (1381) 
glide-dock_SP_D22_pv

>  <Molecule ChEMBL ID>  (1381) 
CHEMBL3085215

>  <Standard Type>  (1381) 
Ki

>  <Standard Value>  (1381) 
30100.0

>  <label>  (1381) 
0

$$$$
CHEMBL4090568
     RDKit          3D

 53 57  0  0  1  0  0  0  0  0999 V2000
    4.0850   -0.2277  -13.4469 O   0  0  0  0  0  0  0  0  0  0  0  0
    4.7780   -0.2798  -14.4647 C   0  0  0  0  0  0  0  0  0  0  0  0
    4.3800   -1.2288  -15.6047 C   0  0  0  0  0  0  0  0  0  0  0  0
    4.6095   -0.6496  -16.8879 O   0  0  0  0  0  0  0  0  0  0  0  0
    5.8046    0.0071  -17.0543 C   0  0  0  0  0  0  0  0  0  0  0  0
    6.3095    0.1652  -18.3596 C   0  0  0  0  0  0  0  0  0  0  0  0
    7.5105    0.8650  -18.5747 C   0  0  0  0  0  0  0  0  0  0  0  0
    8.2004    1.4207  -17.4824 C   0  0  0  0  0  0  0  0  0  0  0  0
    7.6906    1.2824  -16.1771 C   0  0  0  0  0  0  0  0  0  0  0  0
    6.4860    0.5723  -15.9445 C   0  0  0  0  0  0  0  0  0  0  0  0
    5.8925    0.4671  -14.6404 N   0  0  0  0  0  0  0  0  0  0  0  0
    6.3826    1.2739  -13.5095 C   0  0  0  0  0  0  0  0  0  0  0  0
    5.7692    2.6861  -13.5325 C   0  0  0  0  0  0  0  0  0  0  0  0
    6.1779    3.6154  -12.3801 C   0  0  0  0  0  0  0  0  0  0  0  0
    7.1707    4.6022  -12.8049 N   0  0  0  0  0  0  0  0  0  0  0  0
    7.0191    5.7890  -11.9563 C   0  0  0  0  0  0  0  0  0  0  0  0
    8.0226    6.8682  -12.3904 C   0  0  0  0  0  0  0  0  0  0  0  0
    9.3681    6.3475  -12.2357 N   0  0  0  0  0  0  0  0  0  0  0  0
   10.3682    7.0263  -11.5132 C   0  0  0  0  0  0  0  0  0  0  0  0
   11.4832    7.3722  -12.1207 N   0  0  0  0  0  0  0  0  0  0  0  0
   12.4860    8.1723  -11.0468 S   0  0  0  0  0  0  0  0  0  0  0  0
   11.4324    8.0229   -9.6668 C   0  0  0  0  0  0  0  0  0  0  0  0
   11.6193    8.4567   -8.3411 C   0  0  0  0  0  0  0  0  0  0  0  0
   10.6181    8.2103   -7.3854 C   0  0  0  0  0  0  0  0  0  0  0  0
    9.4496    7.5264   -7.7671 C   0  0  0  0  0  0  0  0  0  0  0  0
    9.2860    7.0906   -9.0978 C   0  0  0  0  0  0  0  0  0  0  0  0
   10.2599    7.3346  -10.0938 C   0  0  0  0  0  0  0  0  0  0  0  0
    9.6022    5.1412  -13.0136 C   0  0  0  0  0  0  0  0  0  0  0  0
    8.5381    4.0808  -12.6461 C   0  0  0  0  0  0  0  0  0  0  0  0
    3.3248   -1.4910  -15.5201 H   0  0  0  0  0  0  0  0  0  0  0  0
    4.9509   -2.1539  -15.5169 H   0  0  0  0  0  0  0  0  0  0  0  0
    5.7730   -0.2553  -19.1973 H   0  0  0  0  0  0  0  0  0  0  0  0
    7.9001    0.9767  -19.5758 H   0  0  0  0  0  0  0  0  0  0  0  0
    9.1195    1.9646  -17.6453 H   0  0  0  0  0  0  0  0  0  0  0  0
    8.2449    1.7487  -15.3788 H   0  0  0  0  0  0  0  0  0  0  0  0
    6.1275    0.7978  -12.5606 H   0  0  0  0  0  0  0  0  0  0  0  0
    7.4672    1.2964  -13.5108 H   0  0  0  0  0  0  0  0  0  0  0  0
    5.9472    3.1733  -14.4925 H   0  0  0  0  0  0  0  0  0  0  0  0
    4.6907    2.5609  -13.4469 H   0  0  0  0  0  0  0  0  0  0  0  0
    5.2724    4.1490  -12.0880 H   0  0  0  0  0  0  0  0  0  0  0  0
    6.4859    3.0735  -11.4861 H   0  0  0  0  0  0  0  0  0  0  0  0
    6.0076    6.1866  -12.0471 H   0  0  0  0  0  0  0  0  0  0  0  0
    7.1664    5.5297  -10.9084 H   0  0  0  0  0  0  0  0  0  0  0  0
    7.8539    7.1124  -13.4398 H   0  0  0  0  0  0  0  0  0  0  0  0
    7.8938    7.8003  -11.8456 H   0  0  0  0  0  0  0  0  0  0  0  0
   12.5276    8.9720   -8.0628 H   0  0  0  0  0  0  0  0  0  0  0  0
   10.7455    8.5403   -6.3652 H   0  0  0  0  0  0  0  0  0  0  0  0
    8.6689    7.3359   -7.0433 H   0  0  0  0  0  0  0  0  0  0  0  0
    8.3767    6.5727   -9.3638 H   0  0  0  0  0  0  0  0  0  0  0  0
    9.5528    5.3806  -14.0764 H   0  0  0  0  0  0  0  0  0  0  0  0
   10.6021    4.7530  -12.8176 H   0  0  0  0  0  0  0  0  0  0  0  0
    8.6935    3.7724  -11.6118 H   0  0  0  0  0  0  0  0  0  0  0  0
    8.6773    3.1996  -13.2712 H   0  0  0  0  0  0  0  0  0  0  0  0
  2  1  2  0
  3  2  1  0
  4  3  1  0
  5  4  1  0
  6  5  2  0
  7  6  1  0
  8  7  2  0
  9  8  1  0
 10  5  1  0
 10  9  2  0
 11  2  1  0
 11 10  1  0
 12 11  1  0
 13 12  1  0
 14 13  1  0
 15 14  1  0
 16 15  1  0
 17 16  1  0
 18 17  1  0
 19 18  1  0
 20 19  2  0
 21 20  1  0
 22 21  1  0
 23 22  2  0
 24 23  1  0
 25 24  2  0
 26 25  1  0
 27 19  1  0
 27 22  1  0
 27 26  2  0
 28 18  1  0
 29 15  1  0
 29 28  1  0
 30  3  1  0
 31  3  1  0
 32  6  1  0
 33  7  1  0
 34  8  1  0
 35  9  1  0
 36 12  1  0
 37 12  1  0
 38 13  1  0
 39 13  1  0
 40 14  1  0
 41 14  1  0
 42 16  1  0
 43 16  1  0
 44 17  1  0
 45 17  1  0
 46 23  1  0
 47 24  1  0
 48 25  1  0
 49 26  1  0
 50 28  1  0
 51 28  1  0
 52 29  1  0
 53 29  1  0
M  END
>  <b_m_subgroup_collapsed>  (1382) 
0

>  <r_i_docking_score>  (1382) 
-5.9203091980806102

>  <s_m_subgroup_title>  (1382) 
glide-dock_SP_D22_pv

>  <s_m_subgroupid>  (1382) 
glide-dock_SP_D22_pv

>  <Molecule ChEMBL ID>  (1382) 
CHEMBL4090568

>  <Standard Type>  (1382) 
Ki

>  <Standard Value>  (1382) 
17.7

>  <label>  (1382) 
1

$$$$
CHEMBL1794855
     RDKit          3D

 33 34  0  0  1  0  0  0  0  0999 V2000
    6.4511    4.3245  -13.1355 C   0  0  0  0  0  0  0  0  0  0  0  0
    6.6910    5.0749  -11.8160 C   0  0  0  0  0  0  0  0  0  0  0  0
    7.6992    6.1707  -11.8457 N   0  0  2  0  0  0  0  0  0  0  0  0
    7.3570    7.3635  -12.6512 C   0  0  0  0  0  0  0  0  0  0  0  0
    9.1383    5.7522  -11.8425 C   0  0  1  0  0  0  0  0  0  0  0  0
    9.6729    5.3145  -13.2416 C   0  0  0  0  0  0  0  0  0  0  0  0
   11.1616    5.5836  -13.5206 C   0  0  0  0  0  0  0  0  0  0  0  0
   11.6389    6.9706  -13.0658 C   0  0  0  0  0  0  0  0  0  0  0  0
   11.1846    7.3242  -11.6623 C   0  0  0  0  0  0  0  0  0  0  0  0
   11.9768    8.1727  -10.8645 C   0  0  0  0  0  0  0  0  0  0  0  0
   11.5585    8.4608   -9.5538 C   0  0  0  0  0  0  0  0  0  0  0  0
   10.4392    7.9468   -9.0099 N   0  0  0  0  0  0  0  0  0  0  0  0
    9.6930    7.1180   -9.7674 C   0  0  0  0  0  0  0  0  0  0  0  0
   10.0098    6.7689  -11.1014 C   0  0  0  0  0  0  0  0  0  0  0  0
    5.7042    3.5440  -12.9829 H   0  0  0  0  0  0  0  0  0  0  0  0
    6.0640    4.9721  -13.9160 H   0  0  0  0  0  0  0  0  0  0  0  0
    7.3450    3.8298  -13.5089 H   0  0  0  0  0  0  0  0  0  0  0  0
    6.9822    4.3572  -11.0474 H   0  0  0  0  0  0  0  0  0  0  0  0
    5.7489    5.4992  -11.4631 H   0  0  0  0  0  0  0  0  0  0  0  0
    7.6859    7.2725  -13.6765 H   0  0  0  0  0  0  0  0  0  0  0  0
    6.2829    7.5542  -12.6462 H   0  0  0  0  0  0  0  0  0  0  0  0
    7.8468    8.2465  -12.2405 H   0  0  0  0  0  0  0  0  0  0  0  0
    9.2086    4.8674  -11.2067 H   0  0  0  0  0  0  0  0  0  0  0  0
    9.1114    5.7737  -14.0485 H   0  0  0  0  0  0  0  0  0  0  0  0
    9.4943    4.2478  -13.3727 H   0  0  0  0  0  0  0  0  0  0  0  0
   11.3618    5.4660  -14.5862 H   0  0  0  0  0  0  0  0  0  0  0  0
   11.7636    4.8121  -13.0462 H   0  0  0  0  0  0  0  0  0  0  0  0
   11.2861    7.7424  -13.7477 H   0  0  0  0  0  0  0  0  0  0  0  0
   12.7286    7.0084  -13.1142 H   0  0  0  0  0  0  0  0  0  0  0  0
   12.8889    8.6101  -11.2450 H   0  0  0  0  0  0  0  0  0  0  0  0
   12.1424    9.1137   -8.9225 H   0  0  0  0  0  0  0  0  0  0  0  0
    8.8182    6.7050   -9.2872 H   0  0  0  0  0  0  0  0  0  0  0  0
    7.5454    6.5598  -10.9179 H   0  0  0  0  0  0  0  0  0  0  0  0
  2  1  1  0
  3  2  1  0
  4  3  1  0
  5  3  1  0
  6  5  1  0
  7  6  1  0
  8  7  1  0
  9  8  1  0
 10  9  2  0
 11 10  1  0
 12 11  2  0
 13 12  1  0
 14  5  1  0
 14  9  1  0
 14 13  2  0
 15  1  1  0
 16  1  1  0
 17  1  1  0
 18  2  1  0
 19  2  1  0
 20  4  1  0
 21  4  1  0
 22  4  1  0
  5 23  1  1
 24  6  1  0
 25  6  1  0
 26  7  1  0
 27  7  1  0
 28  8  1  0
 29  8  1  0
 30 10  1  0
 31 11  1  0
 32 13  1  0
  3 33  1  1
M  CHG  1   3   1
M  END
>  <b_m_subgroup_collapsed>  (1383) 
0

>  <r_i_docking_score>  (1383) 
-5.9198087968243698

>  <s_m_subgroup_title>  (1383) 
glide-dock_SP_D22_pv

>  <s_m_subgroupid>  (1383) 
glide-dock_SP_D22_pv

>  <Molecule ChEMBL ID>  (1383) 
CHEMBL1794855

>  <Standard Type>  (1383) 
Ki

>  <Standard Value>  (1383) 
10000.0

>  <label>  (1383) 
0

$$$$
CHEMBL1672288
     RDKit          3D

 21 22  0  0  1  0  0  0  0  0999 V2000
   12.4849    7.5467  -13.8044 N   0  0  0  0  0  0  0  0  0  0  0  0
   11.7682    7.2948  -12.9311 C   0  0  0  0  0  0  0  0  0  0  0  0
   10.8663    6.9729  -11.8339 C   0  0  0  0  0  0  0  0  0  0  0  0
    9.7419    6.1560  -12.0718 C   0  0  0  0  0  0  0  0  0  0  0  0
    8.9037    5.7770  -11.0058 C   0  0  0  0  0  0  0  0  0  0  0  0
    7.8432    4.9722  -11.2416 F   0  0  0  0  0  0  0  0  0  0  0  0
    9.1857    6.2159   -9.6973 C   0  0  0  0  0  0  0  0  0  0  0  0
   10.3007    7.0432   -9.4507 C   0  0  0  0  0  0  0  0  0  0  0  0
   10.6061    7.4655   -8.0900 C   0  0  0  0  0  0  0  0  0  0  0  0
   10.8898    7.7736   -6.9417 C   0  0  0  0  0  0  0  0  0  0  0  0
   11.2867    8.1072   -5.6169 C   0  0  0  0  0  0  0  0  0  0  0  0
   11.3845    9.3754   -5.0890 C   0  0  0  0  0  0  0  0  0  0  0  0
   12.0104    9.3684   -3.4572 S   0  0  0  0  0  0  0  0  0  0  0  0
   12.0852    7.6218   -3.5557 C   0  0  0  0  0  0  0  0  0  0  0  0
   12.4872    6.9288   -2.5148 F   0  0  0  0  0  0  0  0  0  0  0  0
   11.6859    7.1087   -4.7160 N   0  0  0  0  0  0  0  0  0  0  0  0
   11.1364    7.4294  -10.5219 C   0  0  0  0  0  0  0  0  0  0  0  0
    9.5246    5.8011  -13.0687 H   0  0  0  0  0  0  0  0  0  0  0  0
    8.5329    5.9216   -8.8878 H   0  0  0  0  0  0  0  0  0  0  0  0
   11.1548   10.3122   -5.5732 H   0  0  0  0  0  0  0  0  0  0  0  0
   12.0056    8.0457  -10.3328 H   0  0  0  0  0  0  0  0  0  0  0  0
  2  1  3  0
  3  2  1  0
  4  3  1  0
  5  4  2  0
  6  5  1  0
  7  5  1  0
  8  7  2  0
  9  8  1  0
 10  9  3  0
 11 10  1  0
 12 11  2  0
 13 12  1  0
 14 13  1  0
 15 14  1  0
 16 11  1  0
 16 14  2  0
 17  3  2  0
 17  8  1  0
 18  4  1  0
 19  7  1  0
 20 12  1  0
 21 17  1  0
M  END
>  <b_m_subgroup_collapsed>  (1384) 
0

>  <r_i_docking_score>  (1384) 
-5.9158252141569703

>  <s_m_subgroup_title>  (1384) 
glide-dock_SP_D22_pv

>  <s_m_subgroupid>  (1384) 
glide-dock_SP_D22_pv

>  <Molecule ChEMBL ID>  (1384) 
CHEMBL1672288

>  <Standard Type>  (1384) 
Ki

>  <Standard Value>  (1384) 
10000.0

>  <label>  (1384) 
0

$$$$
CHEMBL394777
     RDKit          3D

 43 46  0  0  1  0  0  0  0  0999 V2000
    8.4848    5.6957   -7.7428 C   0  0  0  0  0  0  0  0  0  0  0  0
    9.4343    6.7244   -7.9573 O   0  0  0  0  0  0  0  0  0  0  0  0
    9.9281    6.8765   -9.2340 C   0  0  0  0  0  0  0  0  0  0  0  0
    9.6079    6.0134  -10.3114 C   0  0  0  0  0  0  0  0  0  0  0  0
   10.1633    6.1996  -11.5971 C   0  0  0  0  0  0  0  0  0  0  0  0
   11.0759    7.2629  -11.7947 C   0  0  0  0  0  0  0  0  0  0  0  0
   11.3947    8.1323  -10.7295 C   0  0  0  0  0  0  0  0  0  0  0  0
   10.8276    7.9372   -9.4576 C   0  0  0  0  0  0  0  0  0  0  0  0
   11.2859    8.9723   -8.1538 Cl  0  0  0  0  0  0  0  0  0  0  0  0
   11.8160    7.3722  -13.1085 C   0  0  0  0  0  0  0  0  0  0  0  0
   12.0241    5.9902  -13.7126 C   0  0  0  0  0  0  0  0  0  0  0  0
   10.7369    5.2784  -13.9275 N   0  0  1  0  0  0  0  0  0  0  0  0
   11.0264    3.9855  -14.6095 C   0  0  0  0  0  0  0  0  0  0  0  0
    9.8005    3.2806  -15.1978 C   0  0  0  0  0  0  0  0  0  0  0  0
    8.8672    2.7039  -14.1314 C   0  0  0  0  0  0  0  0  0  0  0  0
    7.9257    3.7570  -13.5810 C   0  0  0  0  0  0  0  0  0  0  0  0
    6.5383    3.5253  -13.6893 C   0  0  0  0  0  0  0  0  0  0  0  0
    5.6213    4.4695  -13.2051 C   0  0  0  0  0  0  0  0  0  0  0  0
    6.0860    5.6715  -12.6470 C   0  0  0  0  0  0  0  0  0  0  0  0
    7.4641    5.9231  -12.5691 C   0  0  0  0  0  0  0  0  0  0  0  0
    8.4067    4.9493  -12.9807 C   0  0  0  0  0  0  0  0  0  0  0  0
    9.9017    5.1394  -12.6851 C   0  0  2  0  0  0  0  0  0  0  0  0
    8.0742    5.7813   -6.7373 H   0  0  0  0  0  0  0  0  0  0  0  0
    8.9413    4.7110   -7.8469 H   0  0  0  0  0  0  0  0  0  0  0  0
    7.6587    5.7713   -8.4438 H   0  0  0  0  0  0  0  0  0  0  0  0
    8.9481    5.1706  -10.1692 H   0  0  0  0  0  0  0  0  0  0  0  0
   12.1116    8.9295  -10.8695 H   0  0  0  0  0  0  0  0  0  0  0  0
   11.2861    8.0140  -13.8100 H   0  0  0  0  0  0  0  0  0  0  0  0
   12.7892    7.8365  -12.9397 H   0  0  0  0  0  0  0  0  0  0  0  0
   12.5603    6.0994  -14.6569 H   0  0  0  0  0  0  0  0  0  0  0  0
   12.6610    5.3952  -13.0548 H   0  0  0  0  0  0  0  0  0  0  0  0
   11.7107    4.1713  -15.4390 H   0  0  0  0  0  0  0  0  0  0  0  0
   11.5581    3.3156  -13.9314 H   0  0  0  0  0  0  0  0  0  0  0  0
    9.2601    3.9275  -15.8897 H   0  0  0  0  0  0  0  0  0  0  0  0
   10.1682    2.4476  -15.7983 H   0  0  0  0  0  0  0  0  0  0  0  0
    8.2813    1.8997  -14.5791 H   0  0  0  0  0  0  0  0  0  0  0  0
    9.4308    2.2404  -13.3231 H   0  0  0  0  0  0  0  0  0  0  0  0
    6.1651    2.6155  -14.1370 H   0  0  0  0  0  0  0  0  0  0  0  0
    4.5617    4.2740  -13.2814 H   0  0  0  0  0  0  0  0  0  0  0  0
    5.3900    6.4120  -12.2786 H   0  0  0  0  0  0  0  0  0  0  0  0
    7.7666    6.8593  -12.1221 H   0  0  0  0  0  0  0  0  0  0  0  0
   10.2277    4.2171  -12.2012 H   0  0  0  0  0  0  0  0  0  0  0  0
   10.1985    5.8479  -14.5643 H   0  0  0  0  0  0  0  0  0  0  0  0
  2  1  1  0
  3  2  1  0
  4  3  2  0
  5  4  1  0
  6  5  2  0
  7  6  1  0
  8  3  1  0
  8  7  2  0
  9  8  1  0
 10  6  1  0
 11 10  1  0
 12 11  1  0
 13 12  1  0
 14 13  1  0
 15 14  1  0
 16 15  1  0
 17 16  2  0
 18 17  1  0
 19 18  2  0
 20 19  1  0
 21 16  1  0
 21 20  2  0
 22  5  1  0
 22 12  1  0
 22 21  1  0
 23  1  1  0
 24  1  1  0
 25  1  1  0
 26  4  1  0
 27  7  1  0
 28 10  1  0
 29 10  1  0
 30 11  1  0
 31 11  1  0
 32 13  1  0
 33 13  1  0
 34 14  1  0
 35 14  1  0
 36 15  1  0
 37 15  1  0
 38 17  1  0
 39 18  1  0
 40 19  1  0
 41 20  1  0
 22 42  1  1
 12 43  1  6
M  CHG  1  12   1
M  END
>  <b_m_subgroup_collapsed>  (1385) 
0

>  <r_i_docking_score>  (1385) 
-5.9127222236117998

>  <s_m_subgroup_title>  (1385) 
glide-dock_SP_D22_pv

>  <s_m_subgroupid>  (1385) 
glide-dock_SP_D22_pv

>  <Molecule ChEMBL ID>  (1385) 
CHEMBL394777

>  <Standard Type>  (1385) 
Ki

>  <Standard Value>  (1385) 
10000.0

>  <label>  (1385) 
0

$$$$
CHEMBL508399
     RDKit          3D

 45 47  0  0  1  0  0  0  0  0999 V2000
   12.6060    6.7022  -17.9186 C   0  0  0  0  0  0  0  0  0  0  0  0
   11.3656    6.0920  -17.2422 C   0  0  0  0  0  0  0  0  0  0  0  0
   11.6754    4.9286  -16.3699 N   0  0  2  0  0  0  0  0  0  0  0  0
   12.4936    5.3167  -15.1871 C   0  0  0  0  0  0  0  0  0  0  0  0
   12.1091    4.5703  -13.9039 C   0  0  0  0  0  0  0  0  0  0  0  0
   10.6783    4.8236  -13.4457 C   0  0  0  0  0  0  0  0  0  0  0  0
   10.4210    6.0445  -12.7805 C   0  0  0  0  0  0  0  0  0  0  0  0
    9.1457    6.3354  -12.2599 C   0  0  0  0  0  0  0  0  0  0  0  0
    8.1013    5.4130  -12.4254 C   0  0  0  0  0  0  0  0  0  0  0  0
    8.3447    4.1941  -13.0866 C   0  0  0  0  0  0  0  0  0  0  0  0
    9.6276    3.8710  -13.5862 C   0  0  0  0  0  0  0  0  0  0  0  0
    9.8264    2.4695  -14.1666 C   0  0  0  0  0  0  0  0  0  0  0  0
    9.3253    2.2823  -15.5949 C   0  0  0  0  0  0  0  0  0  0  0  0
    7.9415    2.0525  -15.7692 C   0  0  0  0  0  0  0  0  0  0  0  0
    7.3934    1.8531  -17.0472 C   0  0  0  0  0  0  0  0  0  0  0  0
    8.2263    1.8982  -18.1779 C   0  0  0  0  0  0  0  0  0  0  0  0
    7.6846    1.7691  -19.4220 O   0  0  0  0  0  0  0  0  0  0  0  0
    9.6110    2.0937  -18.0183 C   0  0  0  0  0  0  0  0  0  0  0  0
   10.1763    2.2742  -16.7341 C   0  0  0  0  0  0  0  0  0  0  0  0
   11.6913    2.4119  -16.6507 C   0  0  0  0  0  0  0  0  0  0  0  0
   12.2124    3.7715  -17.1400 C   0  0  0  0  0  0  0  0  0  0  0  0
   12.3260    7.5684  -18.5201 H   0  0  0  0  0  0  0  0  0  0  0  0
   13.1019    5.9916  -18.5807 H   0  0  0  0  0  0  0  0  0  0  0  0
   13.3355    7.0445  -17.1848 H   0  0  0  0  0  0  0  0  0  0  0  0
   10.8825    6.8547  -16.6372 H   0  0  0  0  0  0  0  0  0  0  0  0
   10.6365    5.7957  -17.9955 H   0  0  0  0  0  0  0  0  0  0  0  0
   13.5548    5.1785  -15.3948 H   0  0  0  0  0  0  0  0  0  0  0  0
   12.3733    6.3836  -14.9851 H   0  0  0  0  0  0  0  0  0  0  0  0
   12.3363    3.5157  -13.9870 H   0  0  0  0  0  0  0  0  0  0  0  0
   12.7683    4.9125  -13.1055 H   0  0  0  0  0  0  0  0  0  0  0  0
   11.2133    6.7668  -12.6471 H   0  0  0  0  0  0  0  0  0  0  0  0
    8.9609    7.2687  -11.7453 H   0  0  0  0  0  0  0  0  0  0  0  0
    7.1214    5.6369  -12.0289 H   0  0  0  0  0  0  0  0  0  0  0  0
    7.5330    3.4883  -13.1757 H   0  0  0  0  0  0  0  0  0  0  0  0
   10.8269    2.0839  -14.0108 H   0  0  0  0  0  0  0  0  0  0  0  0
    9.2371    1.7939  -13.5458 H   0  0  0  0  0  0  0  0  0  0  0  0
    7.2838    2.0209  -14.9145 H   0  0  0  0  0  0  0  0  0  0  0  0
    6.3321    1.6867  -17.1601 H   0  0  0  0  0  0  0  0  0  0  0  0
    8.3258    1.6828  -20.1124 H   0  0  0  0  0  0  0  0  0  0  0  0
   10.2482    2.0998  -18.8901 H   0  0  0  0  0  0  0  0  0  0  0  0
   12.0862    2.1730  -15.6702 H   0  0  0  0  0  0  0  0  0  0  0  0
   12.1145    1.6376  -17.2909 H   0  0  0  0  0  0  0  0  0  0  0  0
   11.9242    3.8652  -18.1890 H   0  0  0  0  0  0  0  0  0  0  0  0
   13.3027    3.7780  -17.1362 H   0  0  0  0  0  0  0  0  0  0  0  0
   10.7803    4.6320  -16.0034 H   0  0  0  0  0  0  0  0  0  0  0  0
  2  1  1  0
  3  2  1  0
  4  3  1  0
  5  4  1  0
  6  5  1  0
  7  6  2  0
  8  7  1  0
  9  8  2  0
 10  9  1  0
 11  6  1  0
 11 10  2  0
 12 11  1  0
 13 12  1  0
 14 13  1  0
 15 14  2  0
 16 15  1  0
 17 16  1  0
 18 16  2  0
 19 13  2  0
 19 18  1  0
 20 19  1  0
 21  3  1  0
 21 20  1  0
 22  1  1  0
 23  1  1  0
 24  1  1  0
 25  2  1  0
 26  2  1  0
 27  4  1  0
 28  4  1  0
 29  5  1  0
 30  5  1  0
 31  7  1  0
 32  8  1  0
 33  9  1  0
 34 10  1  0
 35 12  1  0
 36 12  1  0
 37 14  1  0
 38 15  1  0
 39 17  1  0
 40 18  1  0
 41 20  1  0
 42 20  1  0
 43 21  1  0
 44 21  1  0
  3 45  1  1
M  CHG  1   3   1
M  END
>  <b_m_subgroup_collapsed>  (1386) 
0

>  <r_i_docking_score>  (1386) 
-5.9066294707202003

>  <s_m_subgroup_title>  (1386) 
glide-dock_SP_D22_pv

>  <s_m_subgroupid>  (1386) 
glide-dock_SP_D22_pv

>  <Molecule ChEMBL ID>  (1386) 
CHEMBL508399

>  <Standard Type>  (1386) 
Ki

>  <Standard Value>  (1386) 
77.62

>  <label>  (1386) 
1

$$$$
CHEMBL2062859
     RDKit          3D

 59 62  0  0  1  0  0  0  0  0999 V2000
    7.2511    4.3920  -12.3898 C   0  0  0  0  0  0  0  0  0  0  0  0
    8.2666    4.6400  -13.5134 C   0  0  0  0  0  0  0  0  0  0  0  0
    9.6033    5.1523  -13.0860 N   0  0  0  0  0  0  0  0  0  0  0  0
    9.5269    6.3880  -12.2476 C   0  0  0  0  0  0  0  0  0  0  0  0
    9.3901    6.1038  -10.7406 C   0  0  0  0  0  0  0  0  0  0  0  0
   10.4733    5.3206  -14.2945 C   0  0  1  0  0  0  0  0  0  0  0  0
   11.9601    5.6677  -14.0634 C   0  0  2  0  0  0  0  0  0  0  0  0
   12.4855    7.0597  -14.4440 C   0  0  0  0  0  0  0  0  0  0  0  0
   12.8860    7.7723  -13.2973 O   0  0  0  0  0  0  0  0  0  0  0  0
   12.3280    4.4668  -14.9544 C   0  0  2  0  0  0  0  0  0  0  0  0
   12.7605    4.5816  -16.4071 C   0  0  0  0  0  0  0  0  0  0  0  0
   11.5475    4.4141  -17.2204 N   0  0  0  0  0  0  0  0  0  0  0  0
   11.1138    5.6933  -17.7878 C   0  0  0  0  0  0  0  0  0  0  0  0
   10.0512    5.5882  -18.8745 C   0  0  0  0  0  0  0  0  0  0  0  0
    9.0468    6.5747  -18.9711 C   0  0  0  0  0  0  0  0  0  0  0  0
    8.1074    6.5428  -20.0214 C   0  0  0  0  0  0  0  0  0  0  0  0
    8.1660    5.5148  -20.9818 C   0  0  0  0  0  0  0  0  0  0  0  0
    9.1533    4.5148  -20.8824 C   0  0  0  0  0  0  0  0  0  0  0  0
   10.0944    4.5536  -19.8343 C   0  0  0  0  0  0  0  0  0  0  0  0
   10.5097    3.7342  -16.4165 C   0  0  1  0  0  0  0  0  0  0  0  0
   10.4072    2.2326  -16.6786 C   0  0  0  0  0  0  0  0  0  0  0  0
   11.3803    1.5275  -17.4220 C   0  0  0  0  0  0  0  0  0  0  0  0
   11.2112    0.1464  -17.6160 C   0  0  0  0  0  0  0  0  0  0  0  0
   10.0854   -0.4838  -17.0566 C   0  0  0  0  0  0  0  0  0  0  0  0
    9.1709    0.3018  -16.3298 C   0  0  0  0  0  0  0  0  0  0  0  0
    9.3200    1.6305  -16.1455 N   0  0  0  0  0  0  0  0  0  0  0  0
   10.8979    4.0041  -14.9634 C   0  0  2  0  0  0  0  0  0  0  0  0
    6.3772    3.8675  -12.7791 H   0  0  0  0  0  0  0  0  0  0  0  0
    6.8837    5.3244  -11.9604 H   0  0  0  0  0  0  0  0  0  0  0  0
    7.6687    3.7774  -11.5918 H   0  0  0  0  0  0  0  0  0  0  0  0
    8.4061    3.6990  -14.0474 H   0  0  0  0  0  0  0  0  0  0  0  0
    7.8327    5.3348  -14.2336 H   0  0  0  0  0  0  0  0  0  0  0  0
   10.4394    6.9708  -12.3709 H   0  0  0  0  0  0  0  0  0  0  0  0
    8.7207    7.0371  -12.5965 H   0  0  0  0  0  0  0  0  0  0  0  0
    9.5990    7.0055  -10.1660 H   0  0  0  0  0  0  0  0  0  0  0  0
   10.0860    5.3339  -10.4071 H   0  0  0  0  0  0  0  0  0  0  0  0
    8.3884    5.7918  -10.4526 H   0  0  0  0  0  0  0  0  0  0  0  0
   10.0264    5.9812  -15.0289 H   0  0  0  0  0  0  0  0  0  0  0  0
   12.2480    5.3981  -13.0469 H   0  0  0  0  0  0  0  0  0  0  0  0
   13.3527    7.0023  -15.0983 H   0  0  0  0  0  0  0  0  0  0  0  0
   11.7295    7.6407  -14.9731 H   0  0  0  0  0  0  0  0  0  0  0  0
   13.7323    7.4269  -13.0356 H   0  0  0  0  0  0  0  0  0  0  0  0
   12.9586    3.7721  -14.4024 H   0  0  0  0  0  0  0  0  0  0  0  0
   13.2993    5.4992  -16.6381 H   0  0  0  0  0  0  0  0  0  0  0  0
   13.4405    3.7633  -16.6490 H   0  0  0  0  0  0  0  0  0  0  0  0
   10.7798    6.3714  -17.0056 H   0  0  0  0  0  0  0  0  0  0  0  0
   11.9724    6.1754  -18.2591 H   0  0  0  0  0  0  0  0  0  0  0  0
    9.0019    7.3730  -18.2473 H   0  0  0  0  0  0  0  0  0  0  0  0
    7.3451    7.3037  -20.0878 H   0  0  0  0  0  0  0  0  0  0  0  0
    7.4455    5.4869  -21.7849 H   0  0  0  0  0  0  0  0  0  0  0  0
    9.1944    3.7240  -21.6155 H   0  0  0  0  0  0  0  0  0  0  0  0
   10.8616    3.7953  -19.7818 H   0  0  0  0  0  0  0  0  0  0  0  0
    9.5283    4.1547  -16.6394 H   0  0  0  0  0  0  0  0  0  0  0  0
   12.2428    2.0214  -17.8439 H   0  0  0  0  0  0  0  0  0  0  0  0
   11.9365   -0.4230  -18.1789 H   0  0  0  0  0  0  0  0  0  0  0  0
    9.9260   -1.5444  -17.1841 H   0  0  0  0  0  0  0  0  0  0  0  0
    8.2948   -0.1489  -15.8867 H   0  0  0  0  0  0  0  0  0  0  0  0
   10.7583    3.1533  -14.2918 H   0  0  0  0  0  0  0  0  0  0  0  0
   10.0362    4.4412  -12.5135 H   0  0  0  0  0  0  0  0  0  0  0  0
  2  1  1  0
  3  2  1  0
  4  3  1  0
  5  4  1  0
  6  3  1  0
  7  6  1  0
  8  7  1  0
  9  8  1  0
 10  7  1  0
 11 10  1  0
 12 11  1  0
 13 12  1  0
 14 13  1  0
 15 14  2  0
 16 15  1  0
 17 16  2  0
 18 17  1  0
 19 14  1  0
 19 18  2  0
 20 12  1  0
 21 20  1  0
 22 21  2  0
 23 22  1  0
 24 23  2  0
 25 24  1  0
 26 21  1  0
 26 25  2  0
 27  6  1  0
 27 10  1  0
 27 20  1  0
 28  1  1  0
 29  1  1  0
 30  1  1  0
 31  2  1  0
 32  2  1  0
 33  4  1  0
 34  4  1  0
 35  5  1  0
 36  5  1  0
 37  5  1  0
  6 38  1  6
  7 39  1  1
 40  8  1  0
 41  8  1  0
 42  9  1  0
 10 43  1  1
 44 11  1  0
 45 11  1  0
 46 13  1  0
 47 13  1  0
 48 15  1  0
 49 16  1  0
 50 17  1  0
 51 18  1  0
 52 19  1  0
 20 53  1  6
 54 22  1  0
 55 23  1  0
 56 24  1  0
 57 25  1  0
 27 58  1  1
 59  3  1  0
M  CHG  1   3   1
M  END
>  <b_m_subgroup_collapsed>  (1387) 
0

>  <r_i_docking_score>  (1387) 
-5.9043453562407304

>  <s_m_subgroup_title>  (1387) 
glide-dock_SP_D22_pv

>  <s_m_subgroupid>  (1387) 
glide-dock_SP_D22_pv

>  <Molecule ChEMBL ID>  (1387) 
CHEMBL2062859

>  <Standard Type>  (1387) 
Ki

>  <Standard Value>  (1387) 
12000.0

>  <label>  (1387) 
0

$$$$
CHEMBL2112882
     RDKit          3D

 83 89  0  0  1  0  0  0  0  0999 V2000
    7.8926    2.8709  -21.2392 C   0  0  0  0  0  0  0  0  0  0  0  0
    8.6848    1.7716  -20.5153 C   0  0  0  0  0  0  0  0  0  0  0  0
   10.0943    2.2632  -20.1623 C   0  0  0  0  0  0  0  0  0  0  0  0
    8.7440    0.4628  -21.3333 C   0  0  0  0  0  0  0  0  0  0  0  0
    7.4153   -0.3243  -21.5086 C   0  0  1  0  0  0  0  0  0  0  0  0
    7.5599   -1.4870  -22.5093 C   0  0  0  0  0  0  0  0  0  0  0  0
    7.8946   -1.2579  -23.6701 O   0  0  0  0  0  0  0  0  0  0  0  0
    7.3218   -2.7393  -22.0975 N   0  0  0  0  0  0  0  0  0  0  0  0
    6.8605   -3.1323  -20.7675 C   0  0  1  0  0  0  0  0  0  0  0  0
    7.3324   -4.5580  -20.4051 C   0  0  0  0  0  0  0  0  0  0  0  0
    6.6214   -5.1569  -19.2048 C   0  0  0  0  0  0  0  0  0  0  0  0
    5.2541   -5.4937  -19.2957 C   0  0  0  0  0  0  0  0  0  0  0  0
    4.5889   -6.0556  -18.1900 C   0  0  0  0  0  0  0  0  0  0  0  0
    5.2870   -6.2869  -16.9935 C   0  0  0  0  0  0  0  0  0  0  0  0
    6.6491   -5.9501  -16.8948 C   0  0  0  0  0  0  0  0  0  0  0  0
    7.3172   -5.3849  -17.9972 C   0  0  0  0  0  0  0  0  0  0  0  0
    7.1521   -2.0527  -19.6782 C   0  0  2  0  0  0  0  0  0  0  0  0
    8.4741   -2.1071  -19.1759 O   0  0  0  0  0  0  0  0  0  0  0  0
    6.2231   -2.1984  -18.6472 O   0  0  0  0  0  0  0  0  0  0  0  0
    5.8551   -0.9460  -18.1509 C   0  0  1  0  0  0  0  0  0  0  0  0
    4.3961   -1.0244  -17.6778 C   0  0  0  0  0  0  0  0  0  0  0  0
    6.7431   -0.6435  -17.0320 N   0  0  0  0  0  0  0  0  0  0  0  0
    7.2814    0.5405  -16.6864 C   0  0  0  0  0  0  0  0  0  0  0  0
    7.0639    1.6035  -17.2707 O   0  0  0  0  0  0  0  0  0  0  0  0
    8.1824    0.5172  -15.4393 C   0  0  2  0  0  0  0  0  0  0  0  0
    7.9513    1.7056  -14.5406 C   0  0  0  0  0  0  0  0  0  0  0  0
    8.7536    2.7845  -14.5676 C   0  0  0  0  0  0  0  0  0  0  0  0
    8.5637    3.9311  -13.6749 C   0  0  0  0  0  0  0  0  0  0  0  0
    7.3709    4.2768  -13.0030 C   0  0  0  0  0  0  0  0  0  0  0  0
    7.3305    5.3949  -12.1502 C   0  0  0  0  0  0  0  0  0  0  0  0
    8.4843    6.1857  -11.9862 C   0  0  0  0  0  0  0  0  0  0  0  0
    9.6563    5.8606  -12.6424 C   0  0  0  0  0  0  0  0  0  0  0  0
   10.8871    6.4542  -12.6733 N   0  0  0  0  0  0  0  0  0  0  0  0
   11.7526    5.7264  -13.4838 C   0  0  0  0  0  0  0  0  0  0  0  0
   11.0121    4.6639  -13.9410 C   0  0  0  0  0  0  0  0  0  0  0  0
    9.6877    4.7413  -13.4564 C   0  0  0  0  0  0  0  0  0  0  0  0
   11.2278    3.4279  -14.7960 C   0  0  0  0  0  0  0  0  0  0  0  0
    9.9483    2.9029  -15.5330 C   0  0  1  0  0  0  0  0  0  0  0  0
   10.1384    1.7113  -16.3919 N   0  0  0  0  0  0  0  0  0  0  0  0
   11.4467    1.5888  -17.0203 C   0  0  0  0  0  0  0  0  0  0  0  0
    9.6884    0.4534  -15.7935 C   0  0  0  0  0  0  0  0  0  0  0  0
    6.0083   -0.1044  -19.4243 C   0  0  0  0  0  0  0  0  0  0  0  0
    5.4470    0.9726  -19.6303 O   0  0  0  0  0  0  0  0  0  0  0  0
    6.8537   -0.7551  -20.2209 N   0  0  0  0  0  0  0  0  0  0  0  0
    8.3281    3.1004  -22.2126 H   0  0  0  0  0  0  0  0  0  0  0  0
    7.8797    3.7934  -20.6580 H   0  0  0  0  0  0  0  0  0  0  0  0
    6.8554    2.5742  -21.4028 H   0  0  0  0  0  0  0  0  0  0  0  0
    8.1975    1.5736  -19.5666 H   0  0  0  0  0  0  0  0  0  0  0  0
   10.6664    2.5188  -21.0540 H   0  0  0  0  0  0  0  0  0  0  0  0
   10.6440    1.4966  -19.6227 H   0  0  0  0  0  0  0  0  0  0  0  0
   10.0567    3.1431  -19.5196 H   0  0  0  0  0  0  0  0  0  0  0  0
    9.1560    0.6969  -22.3179 H   0  0  0  0  0  0  0  0  0  0  0  0
    9.4758   -0.2042  -20.8769 H   0  0  0  0  0  0  0  0  0  0  0  0
    6.6853    0.3434  -21.9709 H   0  0  0  0  0  0  0  0  0  0  0  0
    7.4228   -3.4707  -22.7807 H   0  0  0  0  0  0  0  0  0  0  0  0
    5.7757   -3.1619  -20.8672 H   0  0  0  0  0  0  0  0  0  0  0  0
    7.1352   -5.2209  -21.2469 H   0  0  0  0  0  0  0  0  0  0  0  0
    8.4109   -4.6019  -20.2571 H   0  0  0  0  0  0  0  0  0  0  0  0
    4.7054   -5.3159  -20.2089 H   0  0  0  0  0  0  0  0  0  0  0  0
    3.5362   -6.2963  -18.2507 H   0  0  0  0  0  0  0  0  0  0  0  0
    4.7693   -6.7138  -16.1483 H   0  0  0  0  0  0  0  0  0  0  0  0
    7.1807   -6.1203  -15.9706 H   0  0  0  0  0  0  0  0  0  0  0  0
    8.3596   -5.1185  -17.9141 H   0  0  0  0  0  0  0  0  0  0  0  0
    8.7543   -1.2212  -19.0102 H   0  0  0  0  0  0  0  0  0  0  0  0
    4.1180   -0.1085  -17.1606 H   0  0  0  0  0  0  0  0  0  0  0  0
    4.2702   -1.8645  -16.9915 H   0  0  0  0  0  0  0  0  0  0  0  0
    3.7224   -1.1694  -18.5257 H   0  0  0  0  0  0  0  0  0  0  0  0
    6.9069   -1.4216  -16.4036 H   0  0  0  0  0  0  0  0  0  0  0  0
    7.9424   -0.3726  -14.8568 H   0  0  0  0  0  0  0  0  0  0  0  0
    7.1148    1.6439  -13.8627 H   0  0  0  0  0  0  0  0  0  0  0  0
    6.4757    3.6849  -13.1301 H   0  0  0  0  0  0  0  0  0  0  0  0
    6.4232    5.6563  -11.6278 H   0  0  0  0  0  0  0  0  0  0  0  0
    8.4369    7.0498  -11.3389 H   0  0  0  0  0  0  0  0  0  0  0  0
   11.1396    7.2925  -12.1710 H   0  0  0  0  0  0  0  0  0  0  0  0
   12.7853    6.0044  -13.6406 H   0  0  0  0  0  0  0  0  0  0  0  0
   12.0107    3.6544  -15.5184 H   0  0  0  0  0  0  0  0  0  0  0  0
   11.6275    2.6277  -14.1691 H   0  0  0  0  0  0  0  0  0  0  0  0
    9.6733    3.6993  -16.2243 H   0  0  0  0  0  0  0  0  0  0  0  0
   11.4607    0.7702  -17.7368 H   0  0  0  0  0  0  0  0  0  0  0  0
   12.2210    1.3925  -16.2814 H   0  0  0  0  0  0  0  0  0  0  0  0
   11.6947    2.5035  -17.5603 H   0  0  0  0  0  0  0  0  0  0  0  0
   10.2842    0.2428  -14.9052 H   0  0  0  0  0  0  0  0  0  0  0  0
    9.8632   -0.3688  -16.4917 H   0  0  0  0  0  0  0  0  0  0  0  0
  2  1  1  0
  3  2  1  0
  4  2  1  0
  5  4  1  0
  6  5  1  0
  7  6  2  0
  8  6  1  0
  9  8  1  0
 10  9  1  0
 11 10  1  0
 12 11  2  0
 13 12  1  0
 14 13  2  0
 15 14  1  0
 16 11  1  0
 16 15  2  0
 17  9  1  0
 17 18  1  1
 19 17  1  0
 20 19  1  0
 21 20  1  0
 20 22  1  1
 23 22  1  0
 24 23  2  0
 25 23  1  0
 26 25  1  0
 27 26  2  0
 28 27  1  0
 29 28  1  0
 30 29  2  0
 31 30  1  0
 32 31  2  0
 33 32  1  0
 34 33  1  0
 35 34  2  0
 36 28  2  0
 36 32  1  0
 36 35  1  0
 37 35  1  0
 38 27  1  0
 38 37  1  0
 39 38  1  0
 40 39  1  0
 41 25  1  0
 41 39  1  0
 42 20  1  0
 43 42  2  0
 44  5  1  0
 44 17  1  0
 44 42  1  0
 45  1  1  0
 46  1  1  0
 47  1  1  0
 48  2  1  0
 49  3  1  0
 50  3  1  0
 51  3  1  0
 52  4  1  0
 53  4  1  0
  5 54  1  6
 55  8  1  0
  9 56  1  6
 57 10  1  0
 58 10  1  0
 59 12  1  0
 60 13  1  0
 61 14  1  0
 62 15  1  0
 63 16  1  0
 64 18  1  0
 65 21  1  0
 66 21  1  0
 67 21  1  0
 68 22  1  0
 25 69  1  1
 70 26  1  0
 71 29  1  0
 72 30  1  0
 73 31  1  0
 74 33  1  0
 75 34  1  0
 76 37  1  0
 77 37  1  0
 38 78  1  6
 79 40  1  0
 80 40  1  0
 81 40  1  0
 82 41  1  0
 83 41  1  0
M  END
>  <b_m_subgroup_collapsed>  (1388) 
0

>  <r_i_docking_score>  (1388) 
-5.9030015093464598

>  <s_m_subgroup_title>  (1388) 
glide-dock_SP_D22_pv

>  <s_m_subgroupid>  (1388) 
glide-dock_SP_D22_pv

>  <Molecule ChEMBL ID>  (1388) 
CHEMBL2112882

>  <Standard Type>  (1388) 
Ki

>  <Standard Value>  (1388) 
3.162

>  <label>  (1388) 
1

$$$$
CHEMBL4204059
     RDKit          3D

 47 49  0  0  1  0  0  0  0  0999 V2000
   14.7853    6.5918  -17.4731 C   0  0  0  0  0  0  0  0  0  0  0  0
   13.6370    7.4643  -16.9485 C   0  0  0  0  0  0  0  0  0  0  0  0
   12.4946    6.6694  -16.2945 C   0  0  0  0  0  0  0  0  0  0  0  0
   12.9000    5.9133  -15.0188 C   0  0  0  0  0  0  0  0  0  0  0  0
   11.7364    5.1423  -14.4323 C   0  0  0  0  0  0  0  0  0  0  0  0
   11.4209    3.8532  -14.8937 C   0  0  0  0  0  0  0  0  0  0  0  0
   10.2577    3.2591  -14.3693 C   0  0  0  0  0  0  0  0  0  0  0  0
    9.7638    1.9426  -14.8087 C   0  0  0  0  0  0  0  0  0  0  0  0
    8.4532    1.4150  -14.6452 C   0  0  0  0  0  0  0  0  0  0  0  0
    8.4841    0.1741  -15.2166 C   0  0  0  0  0  0  0  0  0  0  0  0
    9.7183   -0.0954  -15.7328 O   0  0  0  0  0  0  0  0  0  0  0  0
   10.4864    1.0015  -15.4858 C   0  0  0  0  0  0  0  0  0  0  0  0
    9.5171    3.9036  -13.4439 N   0  0  0  0  0  0  0  0  0  0  0  0
    9.9084    5.1187  -13.0513 C   0  0  0  0  0  0  0  0  0  0  0  0
    9.1233    5.7635  -12.0926 N   0  0  0  0  0  0  0  0  0  0  0  0
    8.2431    5.0299  -11.1830 C   0  0  0  0  0  0  0  0  0  0  0  0
    8.7595    5.1539   -9.7397 C   0  0  0  0  0  0  0  0  0  0  0  0
    8.8859    6.5814   -9.3602 N   0  0  0  0  0  0  0  0  0  0  0  0
    9.2178    6.7790   -7.9330 C   0  0  0  0  0  0  0  0  0  0  0  0
    9.7683    7.3323  -10.2895 C   0  0  0  0  0  0  0  0  0  0  0  0
    9.2825    7.1770  -11.7419 C   0  0  0  0  0  0  0  0  0  0  0  0
   10.9801    5.7711  -13.5095 N   0  0  0  0  0  0  0  0  0  0  0  0
   15.5246    7.2033  -17.9911 H   0  0  0  0  0  0  0  0  0  0  0  0
   15.3024    6.0753  -16.6646 H   0  0  0  0  0  0  0  0  0  0  0  0
   14.4229    5.8426  -18.1771 H   0  0  0  0  0  0  0  0  0  0  0  0
   13.2272    8.0415  -17.7789 H   0  0  0  0  0  0  0  0  0  0  0  0
   14.0299    8.1955  -16.2439 H   0  0  0  0  0  0  0  0  0  0  0  0
   12.0820    5.9674  -17.0211 H   0  0  0  0  0  0  0  0  0  0  0  0
   11.6869    7.3585  -16.0460 H   0  0  0  0  0  0  0  0  0  0  0  0
   13.2858    6.6120  -14.2748 H   0  0  0  0  0  0  0  0  0  0  0  0
   13.7048    5.2090  -15.2287 H   0  0  0  0  0  0  0  0  0  0  0  0
   12.0207    3.3652  -15.6499 H   0  0  0  0  0  0  0  0  0  0  0  0
    7.6060    1.8806  -14.1638 H   0  0  0  0  0  0  0  0  0  0  0  0
    7.7537   -0.6151  -15.3392 H   0  0  0  0  0  0  0  0  0  0  0  0
   11.5037    0.9459  -15.8446 H   0  0  0  0  0  0  0  0  0  0  0  0
    7.2400    5.4505  -11.2553 H   0  0  0  0  0  0  0  0  0  0  0  0
    8.1492    3.9783  -11.4466 H   0  0  0  0  0  0  0  0  0  0  0  0
    8.0856    4.6434   -9.0545 H   0  0  0  0  0  0  0  0  0  0  0  0
    9.7304    4.6642   -9.6463 H   0  0  0  0  0  0  0  0  0  0  0  0
   10.2022    6.3732   -7.6972 H   0  0  0  0  0  0  0  0  0  0  0  0
    9.2126    7.8396   -7.6806 H   0  0  0  0  0  0  0  0  0  0  0  0
    8.4805    6.2878   -7.2966 H   0  0  0  0  0  0  0  0  0  0  0  0
    9.7776    8.3868  -10.0152 H   0  0  0  0  0  0  0  0  0  0  0  0
   10.7911    6.9665  -10.1952 H   0  0  0  0  0  0  0  0  0  0  0  0
    9.9565    7.7024  -12.4167 H   0  0  0  0  0  0  0  0  0  0  0  0
    8.3111    7.6618  -11.8564 H   0  0  0  0  0  0  0  0  0  0  0  0
    7.9527    6.9770   -9.4934 H   0  0  0  0  0  0  0  0  0  0  0  0
  2  1  1  0
  3  2  1  0
  4  3  1  0
  5  4  1  0
  6  5  1  0
  7  6  2  0
  8  7  1  0
  9  8  1  0
 10  9  2  0
 11 10  1  0
 12  8  2  0
 12 11  1  0
 13  7  1  0
 14 13  2  0
 15 14  1  0
 16 15  1  0
 17 16  1  0
 18 17  1  0
 19 18  1  0
 20 18  1  0
 21 15  1  0
 21 20  1  0
 22  5  2  0
 22 14  1  0
 23  1  1  0
 24  1  1  0
 25  1  1  0
 26  2  1  0
 27  2  1  0
 28  3  1  0
 29  3  1  0
 30  4  1  0
 31  4  1  0
 32  6  1  0
 33  9  1  0
 34 10  1  0
 35 12  1  0
 36 16  1  0
 37 16  1  0
 38 17  1  0
 39 17  1  0
 40 19  1  0
 41 19  1  0
 42 19  1  0
 43 20  1  0
 44 20  1  0
 45 21  1  0
 46 21  1  0
 47 18  1  0
M  CHG  1  18   1
M  END
>  <b_m_subgroup_collapsed>  (1389) 
0

>  <r_i_docking_score>  (1389) 
-5.8995984638382897

>  <s_m_subgroup_title>  (1389) 
glide-dock_SP_D22_pv

>  <s_m_subgroupid>  (1389) 
glide-dock_SP_D22_pv

>  <Molecule ChEMBL ID>  (1389) 
CHEMBL4204059

>  <Standard Type>  (1389) 
Ki

>  <Standard Value>  (1389) 
37.0

>  <label>  (1389) 
1

$$$$
CHEMBL198125
     RDKit          3D

 44 45  0  0  1  0  0  0  0  0999 V2000
   11.8168    9.3211  -10.2469 C   0  0  0  0  0  0  0  0  0  0  0  0
   10.5707    8.4848  -10.5471 C   0  0  0  0  0  0  0  0  0  0  0  0
   10.7137    7.0763   -9.9608 C   0  0  0  0  0  0  0  0  0  0  0  0
   10.0023    6.8658   -8.6649 N   0  0  0  0  0  0  0  0  0  0  0  0
    9.7265    5.4126   -8.4837 C   0  0  0  0  0  0  0  0  0  0  0  0
    8.4218    4.9841   -9.1545 C   0  0  0  0  0  0  0  0  0  0  0  0
    8.4347    4.7373  -10.6697 C   0  0  0  0  0  0  0  0  0  0  0  0
   10.6602    7.5932   -7.5161 C   0  0  1  0  0  0  0  0  0  0  0  0
   10.0550    9.0062   -7.3068 C   0  0  0  0  0  0  0  0  0  0  0  0
   10.9558    9.8729   -6.4085 C   0  0  0  0  0  0  0  0  0  0  0  0
   11.3292    9.1351   -5.2285 N   0  0  0  0  0  0  0  0  0  0  0  0
   11.8126    9.7721   -4.1505 N   0  0  0  0  0  0  0  0  0  0  0  0
   12.0868    8.8079   -3.2953 C   0  0  0  0  0  0  0  0  0  0  0  0
   11.7720    7.5198   -3.8137 C   0  0  0  0  0  0  0  0  0  0  0  0
   11.8938    6.2016   -3.1375 C   0  0  0  0  0  0  0  0  0  0  0  0
   12.4860    6.2917   -1.8725 O   0  0  0  0  0  0  0  0  0  0  0  0
   11.2858    7.7713   -5.0635 C   0  0  0  0  0  0  0  0  0  0  0  0
   10.7167    6.8852   -6.1342 C   0  0  0  0  0  0  0  0  0  0  0  0
   11.6500   10.3929  -10.2468 H   0  0  0  0  0  0  0  0  0  0  0  0
   12.5797    9.0967  -10.9931 H   0  0  0  0  0  0  0  0  0  0  0  0
   12.2558    9.1022   -9.2781 H   0  0  0  0  0  0  0  0  0  0  0  0
    9.6445    8.9647  -10.2344 H   0  0  0  0  0  0  0  0  0  0  0  0
   10.4738    8.4063  -11.6297 H   0  0  0  0  0  0  0  0  0  0  0  0
   10.3521    6.3896  -10.7173 H   0  0  0  0  0  0  0  0  0  0  0  0
   11.7643    6.8128   -9.8530 H   0  0  0  0  0  0  0  0  0  0  0  0
   10.5589    4.7866   -8.7959 H   0  0  0  0  0  0  0  0  0  0  0  0
    9.5523    5.1744   -7.4465 H   0  0  0  0  0  0  0  0  0  0  0  0
    8.0856    4.0643   -8.6746 H   0  0  0  0  0  0  0  0  0  0  0  0
    7.6859    5.7452   -8.9212 H   0  0  0  0  0  0  0  0  0  0  0  0
    7.5507    4.1726  -10.9661 H   0  0  0  0  0  0  0  0  0  0  0  0
    9.3120    4.1727  -10.9850 H   0  0  0  0  0  0  0  0  0  0  0  0
    8.3933    5.6705  -11.2305 H   0  0  0  0  0  0  0  0  0  0  0  0
   11.7113    7.7084   -7.7765 H   0  0  0  0  0  0  0  0  0  0  0  0
    9.8939    9.5368   -8.2348 H   0  0  0  0  0  0  0  0  0  0  0  0
    9.0660    8.9144   -6.8536 H   0  0  0  0  0  0  0  0  0  0  0  0
   11.8722   10.1337   -6.9373 H   0  0  0  0  0  0  0  0  0  0  0  0
   10.4863   10.8104   -6.1169 H   0  0  0  0  0  0  0  0  0  0  0  0
   12.4885    9.0688   -2.3265 H   0  0  0  0  0  0  0  0  0  0  0  0
   10.9053    5.7735   -3.0035 H   0  0  0  0  0  0  0  0  0  0  0  0
   12.4823    5.5116   -3.7379 H   0  0  0  0  0  0  0  0  0  0  0  0
   12.4107    5.4441   -1.4560 H   0  0  0  0  0  0  0  0  0  0  0  0
    9.7144    6.5941   -5.8162 H   0  0  0  0  0  0  0  0  0  0  0  0
   11.3171    5.9774   -6.1989 H   0  0  0  0  0  0  0  0  0  0  0  0
    9.0823    7.2787   -8.7613 H   0  0  0  0  0  0  0  0  0  0  0  0
  2  1  1  0
  3  2  1  0
  4  3  1  0
  5  4  1  0
  6  5  1  0
  7  6  1  0
  8  4  1  0
  9  8  1  0
 10  9  1  0
 11 10  1  0
 12 11  1  0
 13 12  2  0
 14 13  1  0
 15 14  1  0
 16 15  1  0
 17 11  1  0
 17 14  2  0
 18  8  1  0
 18 17  1  0
 19  1  1  0
 20  1  1  0
 21  1  1  0
 22  2  1  0
 23  2  1  0
 24  3  1  0
 25  3  1  0
 26  5  1  0
 27  5  1  0
 28  6  1  0
 29  6  1  0
 30  7  1  0
 31  7  1  0
 32  7  1  0
  8 33  1  6
 34  9  1  0
 35  9  1  0
 36 10  1  0
 37 10  1  0
 38 13  1  0
 39 15  1  0
 40 15  1  0
 41 16  1  0
 42 18  1  0
 43 18  1  0
 44  4  1  0
M  CHG  1   4   1
M  END
>  <b_m_subgroup_collapsed>  (1390) 
0

>  <r_i_docking_score>  (1390) 
-5.8986028699477702

>  <s_m_subgroup_title>  (1390) 
glide-dock_SP_D22_pv

>  <s_m_subgroupid>  (1390) 
glide-dock_SP_D22_pv

>  <Molecule ChEMBL ID>  (1390) 
CHEMBL198125

>  <Standard Type>  (1390) 
Ki

>  <Standard Value>  (1390) 
20000.0

>  <label>  (1390) 
0

$$$$
CHEMBL230930
     RDKit          3D

 55 58  0  0  1  0  0  0  0  0999 V2000
   13.1547    4.9405  -16.1613 C   0  0  0  0  0  0  0  0  0  0  0  0
   12.6071    3.7407  -16.8828 C   0  0  0  0  0  0  0  0  0  0  0  0
   13.3264    3.1912  -17.8481 N   0  0  0  0  0  0  0  0  0  0  0  0
   12.6018    2.0806  -18.2971 O   0  0  0  0  0  0  0  0  0  0  0  0
   11.4422    1.9983  -17.5942 C   0  0  0  0  0  0  0  0  0  0  0  0
   10.5320    0.8731  -17.9570 C   0  0  0  0  0  0  0  0  0  0  0  0
   11.3877    3.0261  -16.6927 C   0  0  0  0  0  0  0  0  0  0  0  0
   10.3024    3.3339  -15.7378 C   0  0  0  0  0  0  0  0  0  0  0  0
    9.9700    4.6700  -15.4249 C   0  0  0  0  0  0  0  0  0  0  0  0
    8.9349    4.9701  -14.5189 C   0  0  0  0  0  0  0  0  0  0  0  0
    8.2112    3.9386  -13.8988 C   0  0  0  0  0  0  0  0  0  0  0  0
    6.8977    4.3281  -12.7245 S   0  0  0  0  0  0  0  0  0  0  0  0
    6.2771    5.6184  -13.0468 O   0  0  0  0  0  0  0  0  0  0  0  0
    6.0662    3.1293  -12.5431 O   0  0  0  0  0  0  0  0  0  0  0  0
    7.6861    4.5720  -11.1990 N   0  0  0  0  0  0  0  0  0  0  0  0
    8.5071    5.6013  -10.7297 C   0  0  0  0  0  0  0  0  0  0  0  0
    8.8931    6.7037  -11.5137 C   0  0  0  0  0  0  0  0  0  0  0  0
    9.7206    7.7016  -10.9710 C   0  0  0  0  0  0  0  0  0  0  0  0
   10.1441    7.6495   -9.6265 C   0  0  0  0  0  0  0  0  0  0  0  0
    9.7018    6.5727   -8.8106 C   0  0  0  0  0  0  0  0  0  0  0  0
    8.9153    5.5488   -9.3843 C   0  0  0  0  0  0  0  0  0  0  0  0
    9.9743    6.4748   -7.3178 C   0  0  0  0  0  0  0  0  0  0  0  0
    9.7763    7.7936   -6.5587 C   0  0  0  0  0  0  0  0  0  0  0  0
   10.9157    8.7460   -6.6453 N   0  0  1  0  0  0  0  0  0  0  0  0
   11.6852    8.8195   -5.3788 C   0  0  0  0  0  0  0  0  0  0  0  0
   11.7940    8.5972   -7.8335 C   0  0  0  0  0  0  0  0  0  0  0  0
   11.0412    8.7916   -9.1571 C   0  0  0  0  0  0  0  0  0  0  0  0
    8.4914    2.6014  -14.2465 C   0  0  0  0  0  0  0  0  0  0  0  0
    9.5419    2.3054  -15.1370 C   0  0  0  0  0  0  0  0  0  0  0  0
   12.9196    4.9010  -15.0974 H   0  0  0  0  0  0  0  0  0  0  0  0
   14.2394    4.9967  -16.2520 H   0  0  0  0  0  0  0  0  0  0  0  0
   12.7413    5.8644  -16.5655 H   0  0  0  0  0  0  0  0  0  0  0  0
    9.4888    1.1769  -17.8882 H   0  0  0  0  0  0  0  0  0  0  0  0
   10.7139    0.5398  -18.9791 H   0  0  0  0  0  0  0  0  0  0  0  0
   10.6875    0.0242  -17.2933 H   0  0  0  0  0  0  0  0  0  0  0  0
   10.4914    5.4881  -15.8982 H   0  0  0  0  0  0  0  0  0  0  0  0
    8.6698    5.9936  -14.3374 H   0  0  0  0  0  0  0  0  0  0  0  0
    7.2071    4.0892  -10.4491 H   0  0  0  0  0  0  0  0  0  0  0  0
    8.5315    6.8288  -12.5154 H   0  0  0  0  0  0  0  0  0  0  0  0
   10.0079    8.5348  -11.5949 H   0  0  0  0  0  0  0  0  0  0  0  0
    8.5832    4.7239   -8.7713 H   0  0  0  0  0  0  0  0  0  0  0  0
    9.2535    5.7728   -6.9012 H   0  0  0  0  0  0  0  0  0  0  0  0
   10.9525    6.0309   -7.1321 H   0  0  0  0  0  0  0  0  0  0  0  0
    8.8681    8.2858   -6.9132 H   0  0  0  0  0  0  0  0  0  0  0  0
    9.5871    7.5548   -5.5126 H   0  0  0  0  0  0  0  0  0  0  0  0
   12.0862    7.8417   -5.1066 H   0  0  0  0  0  0  0  0  0  0  0  0
   12.5152    9.5243   -5.4567 H   0  0  0  0  0  0  0  0  0  0  0  0
   11.0470    9.1588   -4.5610 H   0  0  0  0  0  0  0  0  0  0  0  0
   12.5593    9.3711   -7.7707 H   0  0  0  0  0  0  0  0  0  0  0  0
   12.3412    7.6541   -7.8298 H   0  0  0  0  0  0  0  0  0  0  0  0
   11.7847    8.9596   -9.9390 H   0  0  0  0  0  0  0  0  0  0  0  0
   10.4465    9.7042   -9.1198 H   0  0  0  0  0  0  0  0  0  0  0  0
    7.9103    1.7883  -13.8435 H   0  0  0  0  0  0  0  0  0  0  0  0
    9.7567    1.2710  -15.3554 H   0  0  0  0  0  0  0  0  0  0  0  0
   10.4896    9.6574   -6.7416 H   0  0  0  0  0  0  0  0  0  0  0  0
  2  1  1  0
  3  2  2  0
  4  3  1  0
  5  4  1  0
  6  5  1  0
  7  2  1  0
  7  5  2  0
  8  7  1  0
  9  8  1  0
 10  9  2  0
 11 10  1  0
 12 11  1  0
 13 12  2  0
 14 12  2  0
 15 12  1  0
 16 15  1  0
 17 16  1  0
 18 17  2  0
 19 18  1  0
 20 19  2  0
 21 16  2  0
 21 20  1  0
 22 20  1  0
 23 22  1  0
 24 23  1  0
 25 24  1  0
 26 24  1  0
 27 19  1  0
 27 26  1  0
 28 11  2  0
 29  8  2  0
 29 28  1  0
 30  1  1  0
 31  1  1  0
 32  1  1  0
 33  6  1  0
 34  6  1  0
 35  6  1  0
 36  9  1  0
 37 10  1  0
 38 15  1  0
 39 17  1  0
 40 18  1  0
 41 21  1  0
 42 22  1  0
 43 22  1  0
 44 23  1  0
 45 23  1  0
 46 25  1  0
 47 25  1  0
 48 25  1  0
 49 26  1  0
 50 26  1  0
 51 27  1  0
 52 27  1  0
 53 28  1  0
 54 29  1  0
 24 55  1  6
M  CHG  1  24   1
M  END
>  <b_m_subgroup_collapsed>  (1391) 
0

>  <r_i_docking_score>  (1391) 
-5.8964249296195899

>  <s_m_subgroup_title>  (1391) 
glide-dock_SP_D22_pv

>  <s_m_subgroupid>  (1391) 
glide-dock_SP_D22_pv

>  <Molecule ChEMBL ID>  (1391) 
CHEMBL230930

>  <Standard Type>  (1391) 
Ki

>  <Standard Value>  (1391) 
100.0

>  <label>  (1391) 
1

$$$$
CHEMBL607689
     RDKit          3D

 46 49  0  0  1  0  0  0  0  0999 V2000
   12.9767    5.2582  -15.1062 C   0  0  0  0  0  0  0  0  0  0  0  0
   11.7621    5.0900  -14.3279 N   0  0  0  0  0  0  0  0  0  0  0  0
   10.8384    4.1056  -14.4409 C   0  0  0  0  0  0  0  0  0  0  0  0
   11.0320    2.9851  -15.4435 C   0  0  0  0  0  0  0  0  0  0  0  0
    9.9177    2.0559  -15.6761 N   0  0  0  0  0  0  0  0  0  0  0  0
    9.6359    1.2245  -14.4964 C   0  0  0  0  0  0  0  0  0  0  0  0
    8.4532    0.2729  -14.7324 C   0  0  0  0  0  0  0  0  0  0  0  0
    7.2200    1.0479  -15.2078 C   0  0  0  0  0  0  0  0  0  0  0  0
    5.9944    0.1605  -15.3676 C   0  0  0  0  0  0  0  0  0  0  0  0
    5.8516   -0.6585  -16.5109 C   0  0  0  0  0  0  0  0  0  0  0  0
    4.7041   -1.4538  -16.6777 C   0  0  0  0  0  0  0  0  0  0  0  0
    3.6865   -1.4279  -15.7088 C   0  0  0  0  0  0  0  0  0  0  0  0
    3.8218   -0.6271  -14.5611 C   0  0  0  0  0  0  0  0  0  0  0  0
    4.9807    0.1550  -14.3798 C   0  0  0  0  0  0  0  0  0  0  0  0
    5.1018    0.9097  -13.2612 F   0  0  0  0  0  0  0  0  0  0  0  0
    7.5949    1.8114  -16.4874 C   0  0  0  0  0  0  0  0  0  0  0  0
    8.7462    2.7746  -16.1825 C   0  0  0  0  0  0  0  0  0  0  0  0
    9.7964    4.2114  -13.6086 N   0  0  0  0  0  0  0  0  0  0  0  0
   10.0858    5.3339  -12.8743 C   0  0  0  0  0  0  0  0  0  0  0  0
    9.3776    5.9431  -11.8158 C   0  0  0  0  0  0  0  0  0  0  0  0
    9.9101    7.0714  -11.1612 C   0  0  0  0  0  0  0  0  0  0  0  0
   11.1537    7.6015  -11.5608 C   0  0  0  0  0  0  0  0  0  0  0  0
   11.8546    7.0303  -12.6455 C   0  0  0  0  0  0  0  0  0  0  0  0
   11.3204    5.9028  -13.2896 C   0  0  0  0  0  0  0  0  0  0  0  0
   13.4579    6.2097  -14.8679 H   0  0  0  0  0  0  0  0  0  0  0  0
   13.6718    4.4472  -14.8847 H   0  0  0  0  0  0  0  0  0  0  0  0
   12.7389    5.2554  -16.1709 H   0  0  0  0  0  0  0  0  0  0  0  0
   11.9050    2.4076  -15.1396 H   0  0  0  0  0  0  0  0  0  0  0  0
   11.2916    3.4321  -16.4029 H   0  0  0  0  0  0  0  0  0  0  0  0
    9.4033    1.8283  -13.6234 H   0  0  0  0  0  0  0  0  0  0  0  0
   10.5261    0.6466  -14.2485 H   0  0  0  0  0  0  0  0  0  0  0  0
    8.2156   -0.2277  -13.7955 H   0  0  0  0  0  0  0  0  0  0  0  0
    8.7254   -0.4950  -15.4568 H   0  0  0  0  0  0  0  0  0  0  0  0
    6.9826    1.7948  -14.4491 H   0  0  0  0  0  0  0  0  0  0  0  0
    6.6249   -0.6951  -17.2625 H   0  0  0  0  0  0  0  0  0  0  0  0
    4.6033   -2.0875  -17.5456 H   0  0  0  0  0  0  0  0  0  0  0  0
    2.8163   -2.0462  -15.8470 H   0  0  0  0  0  0  0  0  0  0  0  0
    3.0364   -0.6117  -13.8200 H   0  0  0  0  0  0  0  0  0  0  0  0
    7.8910    1.1332  -17.2883 H   0  0  0  0  0  0  0  0  0  0  0  0
    6.7345    2.3741  -16.8516 H   0  0  0  0  0  0  0  0  0  0  0  0
    8.3992    3.4956  -15.4474 H   0  0  0  0  0  0  0  0  0  0  0  0
    9.0148    3.3306  -17.0815 H   0  0  0  0  0  0  0  0  0  0  0  0
    8.4291    5.5364  -11.4930 H   0  0  0  0  0  0  0  0  0  0  0  0
    9.3636    7.5250  -10.3451 H   0  0  0  0  0  0  0  0  0  0  0  0
   11.5596    8.4604  -11.0463 H   0  0  0  0  0  0  0  0  0  0  0  0
   12.8028    7.4417  -12.9633 H   0  0  0  0  0  0  0  0  0  0  0  0
  2  1  1  0
  3  2  1  0
  4  3  1  0
  5  4  1  0
  6  5  1  0
  7  6  1  0
  8  7  1  0
  9  8  1  0
 10  9  2  0
 11 10  1  0
 12 11  2  0
 13 12  1  0
 14  9  1  0
 14 13  2  0
 15 14  1  0
 16  8  1  0
 17  5  1  0
 17 16  1  0
 18  3  2  0
 19 18  1  0
 20 19  2  0
 21 20  1  0
 22 21  2  0
 23 22  1  0
 24  2  1  0
 24 19  1  0
 24 23  2  0
 25  1  1  0
 26  1  1  0
 27  1  1  0
 28  4  1  0
 29  4  1  0
 30  6  1  0
 31  6  1  0
 32  7  1  0
 33  7  1  0
 34  8  1  0
 35 10  1  0
 36 11  1  0
 37 12  1  0
 38 13  1  0
 39 16  1  0
 40 16  1  0
 41 17  1  0
 42 17  1  0
 43 20  1  0
 44 21  1  0
 45 22  1  0
 46 23  1  0
M  END
>  <b_m_subgroup_collapsed>  (1392) 
0

>  <r_i_docking_score>  (1392) 
-5.8932005642469703

>  <s_m_subgroup_title>  (1392) 
glide-dock_SP_D22_pv

>  <s_m_subgroupid>  (1392) 
glide-dock_SP_D22_pv

>  <Molecule ChEMBL ID>  (1392) 
CHEMBL607689

>  <Standard Type>  (1392) 
Ki

>  <Standard Value>  (1392) 
39.81

>  <label>  (1392) 
1

$$$$
CHEMBL596886
     RDKit          3D

 48 51  0  0  1  0  0  0  0  0999 V2000
    5.2830    2.0337  -12.6474 C   0  0  0  0  0  0  0  0  0  0  0  0
    5.6883    3.2489  -13.0455 C   0  0  0  0  0  0  0  0  0  0  0  0
    6.6070    4.1551  -12.2586 C   0  0  0  0  0  0  0  0  0  0  0  0
    7.8643    4.2453  -12.9157 O   0  0  0  0  0  0  0  0  0  0  0  0
    8.7824    5.1806  -12.4865 C   0  0  0  0  0  0  0  0  0  0  0  0
    8.5270    6.0479  -11.3964 C   0  0  0  0  0  0  0  0  0  0  0  0
    9.4293    7.0660  -11.0538 C   0  0  0  0  0  0  0  0  0  0  0  0
   10.5901    7.2522  -11.8155 C   0  0  0  0  0  0  0  0  0  0  0  0
   10.8707    6.3792  -12.8845 C   0  0  0  0  0  0  0  0  0  0  0  0
   10.0104    5.2998  -13.1963 C   0  0  0  0  0  0  0  0  0  0  0  0
   10.4495    4.3570  -14.2564 C   0  0  0  0  0  0  0  0  0  0  0  0
   10.0553    2.9947  -14.2847 C   0  0  0  0  0  0  0  0  0  0  0  0
   10.4681    2.0829  -15.2740 C   0  0  0  0  0  0  0  0  0  0  0  0
    9.9771    0.8007  -15.1816 O   0  0  0  0  0  0  0  0  0  0  0  0
   10.2197   -0.0758  -16.2670 C   0  0  0  0  0  0  0  0  0  0  0  0
   11.3620    2.5194  -16.2731 C   0  0  0  0  0  0  0  0  0  0  0  0
   11.8449    3.8378  -16.2678 C   0  0  0  0  0  0  0  0  0  0  0  0
   11.3778    4.7314  -15.2651 C   0  0  0  0  0  0  0  0  0  0  0  0
   11.8551    6.2002  -15.2142 C   0  0  1  0  0  0  0  0  0  0  0  0
   12.0877    6.6268  -13.7448 C   0  0  0  0  0  0  0  0  0  0  0  0
   13.0298    6.5149  -16.0792 N   0  0  2  0  0  0  0  0  0  0  0  0
   13.2913    7.9683  -16.2562 C   0  0  0  0  0  0  0  0  0  0  0  0
   12.9109    5.8634  -17.3964 C   0  0  0  0  0  0  0  0  0  0  0  0
   12.9139    4.3542  -17.2170 C   0  0  0  0  0  0  0  0  0  0  0  0
    5.6061    1.6126  -11.7085 H   0  0  0  0  0  0  0  0  0  0  0  0
    4.6240    1.4418  -13.2636 H   0  0  0  0  0  0  0  0  0  0  0  0
    5.3542    3.6335  -13.9990 H   0  0  0  0  0  0  0  0  0  0  0  0
    6.1188    5.1270  -12.1867 H   0  0  0  0  0  0  0  0  0  0  0  0
    6.7468    3.7687  -11.2491 H   0  0  0  0  0  0  0  0  0  0  0  0
    7.6290    5.9692  -10.8050 H   0  0  0  0  0  0  0  0  0  0  0  0
    9.2025    7.7245  -10.2278 H   0  0  0  0  0  0  0  0  0  0  0  0
   11.2620    8.0593  -11.5696 H   0  0  0  0  0  0  0  0  0  0  0  0
    9.4128    2.6079  -13.5091 H   0  0  0  0  0  0  0  0  0  0  0  0
    9.7665   -1.0422  -16.0554 H   0  0  0  0  0  0  0  0  0  0  0  0
   11.2859   -0.2275  -16.4167 H   0  0  0  0  0  0  0  0  0  0  0  0
    9.7779    0.3055  -17.1888 H   0  0  0  0  0  0  0  0  0  0  0  0
   11.7312    1.8462  -17.0336 H   0  0  0  0  0  0  0  0  0  0  0  0
   11.0200    6.7730  -15.6199 H   0  0  0  0  0  0  0  0  0  0  0  0
   12.3659    7.6749  -13.6566 H   0  0  0  0  0  0  0  0  0  0  0  0
   12.8835    6.0328  -13.3091 H   0  0  0  0  0  0  0  0  0  0  0  0
   12.4856    8.4629  -16.8069 H   0  0  0  0  0  0  0  0  0  0  0  0
   14.2095    8.1143  -16.8296 H   0  0  0  0  0  0  0  0  0  0  0  0
   13.4218    8.4953  -15.3122 H   0  0  0  0  0  0  0  0  0  0  0  0
   11.9958    6.1895  -17.8960 H   0  0  0  0  0  0  0  0  0  0  0  0
   13.7482    6.1468  -18.0388 H   0  0  0  0  0  0  0  0  0  0  0  0
   13.8869    4.0221  -16.8463 H   0  0  0  0  0  0  0  0  0  0  0  0
   12.7753    3.8770  -18.1906 H   0  0  0  0  0  0  0  0  0  0  0  0
   13.8407    6.1151  -15.6234 H   0  0  0  0  0  0  0  0  0  0  0  0
  2  1  2  0
  3  2  1  0
  4  3  1  0
  5  4  1  0
  6  5  1  0
  7  6  2  0
  8  7  1  0
  9  8  2  0
 10  5  2  0
 10  9  1  0
 11 10  1  0
 12 11  2  0
 13 12  1  0
 14 13  1  0
 15 14  1  0
 16 13  2  0
 17 16  1  0
 18 11  1  0
 18 17  2  0
 19 18  1  0
 20  9  1  0
 20 19  1  0
 21 19  1  0
 22 21  1  0
 23 21  1  0
 24 17  1  0
 24 23  1  0
 25  1  1  0
 26  1  1  0
 27  2  1  0
 28  3  1  0
 29  3  1  0
 30  6  1  0
 31  7  1  0
 32  8  1  0
 33 12  1  0
 34 15  1  0
 35 15  1  0
 36 15  1  0
 37 16  1  0
 19 38  1  6
 39 20  1  0
 40 20  1  0
 41 22  1  0
 42 22  1  0
 43 22  1  0
 44 23  1  0
 45 23  1  0
 46 24  1  0
 47 24  1  0
 21 48  1  1
M  CHG  1  21   1
M  END
>  <b_m_subgroup_collapsed>  (1393) 
0

>  <r_i_docking_score>  (1393) 
-5.8905003976277897

>  <s_m_subgroup_title>  (1393) 
glide-dock_SP_D22_pv

>  <s_m_subgroupid>  (1393) 
glide-dock_SP_D22_pv

>  <Molecule ChEMBL ID>  (1393) 
CHEMBL596886

>  <Standard Type>  (1393) 
Ki

>  <Standard Value>  (1393) 
10000.0

>  <label>  (1393) 
0

$$$$
CHEMBL4440301
     RDKit          3D

 49 50  0  0  1  0  0  0  0  0999 V2000
   11.9327    8.0539   -3.7403 C   0  0  0  0  0  0  0  0  0  0  0  0
   11.4744    9.4221   -4.2651 C   0  0  0  0  0  0  0  0  0  0  0  0
   11.4995    9.5496   -5.8006 C   0  0  0  0  0  0  0  0  0  0  0  0
   10.4590    8.6593   -6.5222 C   0  0  0  0  0  0  0  0  0  0  0  0
   10.5371    8.7472   -8.0054 N   0  0  0  0  0  0  0  0  0  0  0  0
    9.2901    8.2570   -8.6609 C   0  0  0  0  0  0  0  0  0  0  0  0
    9.3628    8.3556  -10.1986 C   0  0  0  0  0  0  0  0  0  0  0  0
   10.6128    7.7936  -10.7016 N   0  0  0  0  0  0  0  0  0  0  0  0
   10.6420    6.9684  -11.8463 C   0  0  0  0  0  0  0  0  0  0  0  0
   11.6817    7.1037  -12.8007 C   0  0  0  0  0  0  0  0  0  0  0  0
   11.7455    6.2680  -13.9347 C   0  0  0  0  0  0  0  0  0  0  0  0
   12.8681    6.4258  -14.9425 C   0  0  0  0  0  0  0  0  0  0  0  0
   12.4297    7.1648  -16.2083 C   0  0  0  0  0  0  0  0  0  0  0  0
   10.7611    5.2838  -14.1325 C   0  0  0  0  0  0  0  0  0  0  0  0
    9.7343    5.1156  -13.1894 C   0  0  0  0  0  0  0  0  0  0  0  0
    8.5508    3.8846  -13.4477 Cl  0  0  0  0  0  0  0  0  0  0  0  0
    9.6872    5.9278  -12.0350 C   0  0  0  0  0  0  0  0  0  0  0  0
    8.7450    5.6365  -11.0818 O   0  0  0  0  0  0  0  0  0  0  0  0
    9.2359    4.7948  -10.0523 C   0  0  0  0  0  0  0  0  0  0  0  0
   11.8441    8.2631  -10.0852 C   0  0  0  0  0  0  0  0  0  0  0  0
   11.7533    8.0921   -8.5615 C   0  0  0  0  0  0  0  0  0  0  0  0
   11.9272    8.0387   -2.6508 H   0  0  0  0  0  0  0  0  0  0  0  0
   11.2859    7.2445   -4.0773 H   0  0  0  0  0  0  0  0  0  0  0  0
   12.9459    7.8227   -4.0664 H   0  0  0  0  0  0  0  0  0  0  0  0
   12.1362   10.1725   -3.8379 H   0  0  0  0  0  0  0  0  0  0  0  0
   10.4861    9.6608   -3.8794 H   0  0  0  0  0  0  0  0  0  0  0  0
   12.5134    9.3318   -6.1326 H   0  0  0  0  0  0  0  0  0  0  0  0
   11.3169   10.5909   -6.0658 H   0  0  0  0  0  0  0  0  0  0  0  0
    9.4634    8.9713   -6.2050 H   0  0  0  0  0  0  0  0  0  0  0  0
   10.5612    7.6145   -6.2258 H   0  0  0  0  0  0  0  0  0  0  0  0
    8.4410    8.8379   -8.3047 H   0  0  0  0  0  0  0  0  0  0  0  0
    9.1040    7.2238   -8.3652 H   0  0  0  0  0  0  0  0  0  0  0  0
    9.3190    9.3967  -10.4961 H   0  0  0  0  0  0  0  0  0  0  0  0
    8.4861    7.9033  -10.6562 H   0  0  0  0  0  0  0  0  0  0  0  0
   12.4453    7.8560  -12.6724 H   0  0  0  0  0  0  0  0  0  0  0  0
   13.6860    6.9729  -14.4801 H   0  0  0  0  0  0  0  0  0  0  0  0
   13.2562    5.4383  -15.1971 H   0  0  0  0  0  0  0  0  0  0  0  0
   13.2567    7.2486  -16.9143 H   0  0  0  0  0  0  0  0  0  0  0  0
   11.6133    6.6454  -16.7086 H   0  0  0  0  0  0  0  0  0  0  0  0
   12.0917    8.1722  -15.9683 H   0  0  0  0  0  0  0  0  0  0  0  0
   10.7954    4.6485  -15.0046 H   0  0  0  0  0  0  0  0  0  0  0  0
    8.4187    4.4945   -9.3997 H   0  0  0  0  0  0  0  0  0  0  0  0
    9.6862    3.8928  -10.4669 H   0  0  0  0  0  0  0  0  0  0  0  0
    9.9861    5.3008   -9.4464 H   0  0  0  0  0  0  0  0  0  0  0  0
   12.7090    7.7117  -10.4534 H   0  0  0  0  0  0  0  0  0  0  0  0
   11.9977    9.3114  -10.3469 H   0  0  0  0  0  0  0  0  0  0  0  0
   12.6634    8.4946   -8.1172 H   0  0  0  0  0  0  0  0  0  0  0  0
   11.7151    7.0298   -8.3102 H   0  0  0  0  0  0  0  0  0  0  0  0
   10.6040    9.7261   -8.2436 H   0  0  0  0  0  0  0  0  0  0  0  0
  2  1  1  0
  3  2  1  0
  4  3  1  0
  5  4  1  0
  6  5  1  0
  7  6  1  0
  8  7  1  0
  9  8  1  0
 10  9  1  0
 11 10  2  0
 12 11  1  0
 13 12  1  0
 14 11  1  0
 15 14  2  0
 16 15  1  0
 17  9  2  0
 17 15  1  0
 18 17  1  0
 19 18  1  0
 20  8  1  0
 21  5  1  0
 21 20  1  0
 22  1  1  0
 23  1  1  0
 24  1  1  0
 25  2  1  0
 26  2  1  0
 27  3  1  0
 28  3  1  0
 29  4  1  0
 30  4  1  0
 31  6  1  0
 32  6  1  0
 33  7  1  0
 34  7  1  0
 35 10  1  0
 36 12  1  0
 37 12  1  0
 38 13  1  0
 39 13  1  0
 40 13  1  0
 41 14  1  0
 42 19  1  0
 43 19  1  0
 44 19  1  0
 45 20  1  0
 46 20  1  0
 47 21  1  0
 48 21  1  0
 49  5  1  0
M  CHG  1   5   1
M  END
>  <b_m_subgroup_collapsed>  (1394) 
0

>  <r_i_docking_score>  (1394) 
-5.8902498236582002

>  <s_m_subgroup_title>  (1394) 
glide-dock_SP_D22_pv

>  <s_m_subgroupid>  (1394) 
glide-dock_SP_D22_pv

>  <Molecule ChEMBL ID>  (1394) 
CHEMBL4440301

>  <Standard Type>  (1394) 
Ki

>  <Standard Value>  (1394) 
29.8

>  <label>  (1394) 
1

$$$$
CHEMBL5940523
     RDKit          3D

 74 77  0  0  1  0  0  0  0  0999 V2000
   13.2491    9.1280  -20.1312 C   0  0  0  0  0  0  0  0  0  0  0  0
   13.8934    8.2025  -19.1250 C   0  0  0  0  0  0  0  0  0  0  0  0
   13.1049    7.5309  -18.2873 N   0  0  0  0  0  0  0  0  0  0  0  0
   13.6393    6.6809  -17.3900 C   0  0  0  0  0  0  0  0  0  0  0  0
   12.7564    5.9553  -16.5600 N   0  0  0  0  0  0  0  0  0  0  0  0
   13.1792    5.4764  -15.2456 C   0  0  0  0  0  0  0  0  0  0  0  0
   12.4422    4.1626  -14.9107 C   0  0  0  0  0  0  0  0  0  0  0  0
   10.9884    4.3377  -14.9306 N   0  0  0  0  0  0  0  0  0  0  0  0
   10.5473    5.1849  -13.8253 C   0  0  0  0  0  0  0  0  0  0  0  0
    9.0358    5.0835  -13.5638 C   0  0  0  0  0  0  0  0  0  0  0  0
    8.6328    5.8321  -12.2847 C   0  0  0  0  0  0  0  0  0  0  0  0
    9.0508    5.0940  -10.9989 C   0  0  0  0  0  0  0  0  0  0  0  0
    8.8858    5.9262   -9.8160 N   0  0  0  0  0  0  0  0  0  0  0  0
    9.7314    6.8946   -9.4256 C   0  0  0  0  0  0  0  0  0  0  0  0
   10.7073    7.2386  -10.0966 O   0  0  0  0  0  0  0  0  0  0  0  0
    9.3413    7.5222   -8.2978 N   0  0  0  0  0  0  0  0  0  0  0  0
    8.8869    6.7840   -7.1074 C   0  0  0  0  0  0  0  0  0  0  0  0
   10.0807    6.6038   -6.1455 C   0  0  0  0  0  0  0  0  0  0  0  0
   10.7107    7.8955   -5.9330 N   0  0  0  0  0  0  0  0  0  0  0  0
   11.5645    8.3477   -4.9938 C   0  0  0  0  0  0  0  0  0  0  0  0
   12.0791    7.4890   -3.8873 C   0  0  0  0  0  0  0  0  0  0  0  0
   11.9230    9.6223   -5.1736 N   0  0  0  0  0  0  0  0  0  0  0  0
   11.2863   10.0292   -6.3289 N   0  0  0  0  0  0  0  0  0  0  0  0
   10.6004    8.9617   -6.7473 C   0  0  0  0  0  0  0  0  0  0  0  0
    9.7500    8.9090   -7.9942 C   0  0  0  0  0  0  0  0  0  0  0  0
   10.5798    4.8043  -16.2601 C   0  0  0  0  0  0  0  0  0  0  0  0
   11.3016    6.1014  -16.6962 C   0  0  0  0  0  0  0  0  0  0  0  0
   15.0404    6.5104  -17.3459 C   0  0  0  0  0  0  0  0  0  0  0  0
   15.8334    7.2546  -18.2468 C   0  0  0  0  0  0  0  0  0  0  0  0
   17.3655    7.1535  -18.3282 C   0  0  0  0  0  0  0  0  0  0  0  0
   17.7560    6.4114  -19.6200 C   0  0  0  0  0  0  0  0  0  0  0  0
   17.9887    8.5661  -18.3308 C   0  0  0  0  0  0  0  0  0  0  0  0
   17.9706    6.3891  -17.1267 C   0  0  0  0  0  0  0  0  0  0  0  0
   15.2226    8.0798  -19.1276 N   0  0  0  0  0  0  0  0  0  0  0  0
   12.1700    8.9721  -20.1645 H   0  0  0  0  0  0  0  0  0  0  0  0
   13.4451   10.1664  -19.8555 H   0  0  0  0  0  0  0  0  0  0  0  0
   13.6473    8.9521  -21.1312 H   0  0  0  0  0  0  0  0  0  0  0  0
   14.2439    5.2874  -15.1767 H   0  0  0  0  0  0  0  0  0  0  0  0
   12.9789    6.2449  -14.5014 H   0  0  0  0  0  0  0  0  0  0  0  0
   12.7146    3.4014  -15.6443 H   0  0  0  0  0  0  0  0  0  0  0  0
   12.7563    3.7773  -13.9403 H   0  0  0  0  0  0  0  0  0  0  0  0
   11.0782    4.8530  -12.9374 H   0  0  0  0  0  0  0  0  0  0  0  0
   10.8377    6.2215  -13.9723 H   0  0  0  0  0  0  0  0  0  0  0  0
    8.4909    5.5124  -14.4017 H   0  0  0  0  0  0  0  0  0  0  0  0
    8.7274    4.0399  -13.4964 H   0  0  0  0  0  0  0  0  0  0  0  0
    9.0641    6.8331  -12.3113 H   0  0  0  0  0  0  0  0  0  0  0  0
    7.5519    5.9736  -12.2726 H   0  0  0  0  0  0  0  0  0  0  0  0
    8.4448    4.1961  -10.8803 H   0  0  0  0  0  0  0  0  0  0  0  0
   10.0847    4.7565  -11.0397 H   0  0  0  0  0  0  0  0  0  0  0  0
    8.0268    5.8251   -9.2940 H   0  0  0  0  0  0  0  0  0  0  0  0
    8.0882    7.3595   -6.6395 H   0  0  0  0  0  0  0  0  0  0  0  0
    8.4458    5.8132   -7.3369 H   0  0  0  0  0  0  0  0  0  0  0  0
   10.8214    5.9353   -6.5794 H   0  0  0  0  0  0  0  0  0  0  0  0
    9.7663    6.1785   -5.1921 H   0  0  0  0  0  0  0  0  0  0  0  0
   11.2860    7.2445   -3.1862 H   0  0  0  0  0  0  0  0  0  0  0  0
   12.4846    6.5665   -4.2930 H   0  0  0  0  0  0  0  0  0  0  0  0
   12.8718    8.0029   -3.3470 H   0  0  0  0  0  0  0  0  0  0  0  0
   10.2956    9.3702   -8.8188 H   0  0  0  0  0  0  0  0  0  0  0  0
    8.8509    9.5049   -7.8465 H   0  0  0  0  0  0  0  0  0  0  0  0
   10.8084    4.0157  -16.9787 H   0  0  0  0  0  0  0  0  0  0  0  0
    9.5005    4.9414  -16.3063 H   0  0  0  0  0  0  0  0  0  0  0  0
   10.9513    6.9476  -16.1045 H   0  0  0  0  0  0  0  0  0  0  0  0
   11.0233    6.3097  -17.7286 H   0  0  0  0  0  0  0  0  0  0  0  0
   15.4955    5.8165  -16.6655 H   0  0  0  0  0  0  0  0  0  0  0  0
   17.3320    5.4072  -19.6498 H   0  0  0  0  0  0  0  0  0  0  0  0
   17.4034    6.9379  -20.5089 H   0  0  0  0  0  0  0  0  0  0  0  0
   18.8385    6.3149  -19.7109 H   0  0  0  0  0  0  0  0  0  0  0  0
   17.6971    9.1375  -17.4495 H   0  0  0  0  0  0  0  0  0  0  0  0
   19.0769    8.5180  -18.3432 H   0  0  0  0  0  0  0  0  0  0  0  0
   17.6899    9.1448  -19.2044 H   0  0  0  0  0  0  0  0  0  0  0  0
   17.5966    5.3715  -17.0553 H   0  0  0  0  0  0  0  0  0  0  0  0
   19.0556    6.3179  -17.2033 H   0  0  0  0  0  0  0  0  0  0  0  0
   17.7464    6.8831  -16.1828 H   0  0  0  0  0  0  0  0  0  0  0  0
   15.7903    8.6099  -19.7886 H   0  0  0  0  0  0  0  0  0  0  0  0
  2  1  1  0
  3  2  1  0
  4  3  2  0
  5  4  1  0
  6  5  1  0
  7  6  1  0
  8  7  1  0
  9  8  1  0
 10  9  1  0
 11 10  1  0
 12 11  1  0
 13 12  1  0
 14 13  1  0
 15 14  2  0
 16 14  1  0
 17 16  1  0
 18 17  1  0
 19 18  1  0
 20 19  1  0
 21 20  1  0
 22 20  2  0
 23 22  1  0
 24 19  1  0
 24 23  2  0
 25 16  1  0
 25 24  1  0
 26  8  1  0
 27  5  1  0
 27 26  1  0
 28  4  1  0
 29 28  2  0
 30 29  1  0
 31 30  1  0
 32 30  1  0
 33 30  1  0
 34  2  2  0
 34 29  1  0
 35  1  1  0
 36  1  1  0
 37  1  1  0
 38  6  1  0
 39  6  1  0
 40  7  1  0
 41  7  1  0
 42  9  1  0
 43  9  1  0
 44 10  1  0
 45 10  1  0
 46 11  1  0
 47 11  1  0
 48 12  1  0
 49 12  1  0
 50 13  1  0
 51 17  1  0
 52 17  1  0
 53 18  1  0
 54 18  1  0
 55 21  1  0
 56 21  1  0
 57 21  1  0
 58 25  1  0
 59 25  1  0
 60 26  1  0
 61 26  1  0
 62 27  1  0
 63 27  1  0
 64 28  1  0
 65 31  1  0
 66 31  1  0
 67 31  1  0
 68 32  1  0
 69 32  1  0
 70 32  1  0
 71 33  1  0
 72 33  1  0
 73 33  1  0
 74 34  1  0
M  CHG  1  34   1
M  END
>  <b_m_subgroup_collapsed>  (1395) 
0

>  <r_i_docking_score>  (1395) 
-5.8891901674196401

>  <s_m_subgroup_title>  (1395) 
glide-dock_SP_D22_pv

>  <s_m_subgroupid>  (1395) 
glide-dock_SP_D22_pv

>  <Molecule ChEMBL ID>  (1395) 
CHEMBL5940523

>  <Standard Type>  (1395) 
Ki

>  <Standard Value>  (1395) 
10541.0

>  <label>  (1395) 
0

$$$$
CHEMBL285802
     RDKit          3D

 41 43  0  0  1  0  0  0  0  0999 V2000
    8.7184    6.0728   -8.4882 C   0  0  0  0  0  0  0  0  0  0  0  0
    8.8860    7.1784   -9.4625 N   0  0  0  0  0  0  0  0  0  0  0  0
    9.2858    8.4363   -8.7924 C   0  0  0  0  0  0  0  0  0  0  0  0
    9.7780    6.8498  -10.6046 C   0  0  0  0  0  0  0  0  0  0  0  0
    9.2169    5.7420  -11.5075 C   0  0  0  0  0  0  0  0  0  0  0  0
   10.0770    5.5883  -12.6342 O   0  0  0  0  0  0  0  0  0  0  0  0
    9.8088    4.5926  -13.5578 C   0  0  0  0  0  0  0  0  0  0  0  0
    8.7284    3.7701  -13.4494 C   0  0  0  0  0  0  0  0  0  0  0  0
    8.3051    2.5932  -14.2469 C   0  0  0  0  0  0  0  0  0  0  0  0
    6.9304    2.2792  -14.2736 C   0  0  0  0  0  0  0  0  0  0  0  0
    6.4769    1.1078  -14.9102 C   0  0  0  0  0  0  0  0  0  0  0  0
    7.3579    0.2670  -15.6027 C   0  0  0  0  0  0  0  0  0  0  0  0
    8.7238    0.5726  -15.6014 C   0  0  0  0  0  0  0  0  0  0  0  0
    9.1845    1.7038  -14.9025 C   0  0  0  0  0  0  0  0  0  0  0  0
   10.8860    1.8132  -14.6469 S   0  0  0  0  0  0  0  0  0  0  0  0
   11.2835    3.3892  -15.2804 C   0  0  0  0  0  0  0  0  0  0  0  0
   12.1836    3.4488  -16.3626 C   0  0  0  0  0  0  0  0  0  0  0  0
   12.7143    4.6824  -16.7759 C   0  0  0  0  0  0  0  0  0  0  0  0
   12.3560    5.8518  -16.0857 C   0  0  0  0  0  0  0  0  0  0  0  0
   13.0449    7.3694  -16.5324 Cl  0  0  0  0  0  0  0  0  0  0  0  0
   11.4347    5.7843  -15.0246 C   0  0  0  0  0  0  0  0  0  0  0  0
   10.8432    4.5630  -14.6257 C   0  0  0  0  0  0  0  0  0  0  0  0
    9.6793    5.7531   -8.0828 H   0  0  0  0  0  0  0  0  0  0  0  0
    8.0875    6.3837   -7.6539 H   0  0  0  0  0  0  0  0  0  0  0  0
    8.2299    5.2115   -8.9422 H   0  0  0  0  0  0  0  0  0  0  0  0
   10.2734    8.3457   -8.3383 H   0  0  0  0  0  0  0  0  0  0  0  0
    9.3068    9.2642   -9.5027 H   0  0  0  0  0  0  0  0  0  0  0  0
    8.5707    8.6991   -8.0109 H   0  0  0  0  0  0  0  0  0  0  0  0
   10.7663    6.5720  -10.2359 H   0  0  0  0  0  0  0  0  0  0  0  0
    9.9108    7.7458  -11.2129 H   0  0  0  0  0  0  0  0  0  0  0  0
    8.2096    6.0087  -11.8329 H   0  0  0  0  0  0  0  0  0  0  0  0
    9.1718    4.8041  -10.9525 H   0  0  0  0  0  0  0  0  0  0  0  0
    8.0542    3.9120  -12.6217 H   0  0  0  0  0  0  0  0  0  0  0  0
    6.2179    2.9089  -13.7603 H   0  0  0  0  0  0  0  0  0  0  0  0
    5.4290    0.8514  -14.8718 H   0  0  0  0  0  0  0  0  0  0  0  0
    6.9970   -0.6265  -16.0918 H   0  0  0  0  0  0  0  0  0  0  0  0
    9.4232   -0.1047  -16.0701 H   0  0  0  0  0  0  0  0  0  0  0  0
   12.5130    2.5387  -16.8430 H   0  0  0  0  0  0  0  0  0  0  0  0
   13.4229    4.7245  -17.5896 H   0  0  0  0  0  0  0  0  0  0  0  0
   11.1967    6.6986  -14.5094 H   0  0  0  0  0  0  0  0  0  0  0  0
    7.9476    7.3721   -9.8389 H   0  0  0  0  0  0  0  0  0  0  0  0
  2  1  1  0
  3  2  1  0
  4  2  1  0
  5  4  1  0
  6  5  1  0
  7  6  1  0
  8  7  2  0
  9  8  1  0
 10  9  2  0
 11 10  1  0
 12 11  2  0
 13 12  1  0
 14  9  1  0
 14 13  2  0
 15 14  1  0
 16 15  1  0
 17 16  1  0
 18 17  2  0
 19 18  1  0
 20 19  1  0
 21 19  2  0
 22  7  1  0
 22 16  2  0
 22 21  1  0
 23  1  1  0
 24  1  1  0
 25  1  1  0
 26  3  1  0
 27  3  1  0
 28  3  1  0
 29  4  1  0
 30  4  1  0
 31  5  1  0
 32  5  1  0
 33  8  1  0
 34 10  1  0
 35 11  1  0
 36 12  1  0
 37 13  1  0
 38 17  1  0
 39 18  1  0
 40 21  1  0
 41  2  1  0
M  CHG  1   2   1
M  END
>  <b_m_subgroup_collapsed>  (1396) 
0

>  <r_i_docking_score>  (1396) 
-5.88397447697698

>  <s_m_subgroup_title>  (1396) 
glide-dock_SP_D22_pv

>  <s_m_subgroupid>  (1396) 
glide-dock_SP_D22_pv

>  <Molecule ChEMBL ID>  (1396) 
CHEMBL285802

>  <Standard Type>  (1396) 
Ki

>  <Standard Value>  (1396) 
11.0

>  <label>  (1396) 
1

$$$$
CHEMBL229429
     RDKit          3D

 24 25  0  0  1  0  0  0  0  0999 V2000
   10.4858    2.0866  -14.8740 N   0  0  0  0  0  0  0  0  0  0  0  0
    9.7607    2.7446  -14.2571 C   0  0  0  0  0  0  0  0  0  0  0  0
    8.8476    3.5739  -13.4879 C   0  0  0  0  0  0  0  0  0  0  0  0
    7.4851    3.6452  -13.8452 C   0  0  0  0  0  0  0  0  0  0  0  0
    6.5971    4.4370  -13.0909 C   0  0  0  0  0  0  0  0  0  0  0  0
    5.2925    4.5124  -13.4464 F   0  0  0  0  0  0  0  0  0  0  0  0
    7.0716    5.1650  -11.9843 C   0  0  0  0  0  0  0  0  0  0  0  0
    8.4303    5.0892  -11.6179 C   0  0  0  0  0  0  0  0  0  0  0  0
    8.9208    5.8282  -10.4666 C   0  0  0  0  0  0  0  0  0  0  0  0
    9.3248    6.4446   -9.4945 C   0  0  0  0  0  0  0  0  0  0  0  0
    9.7922    7.1537   -8.3552 C   0  0  0  0  0  0  0  0  0  0  0  0
    9.8318    8.5150   -8.1955 C   0  0  0  0  0  0  0  0  0  0  0  0
   10.4928    8.9728   -6.6504 S   0  0  0  0  0  0  0  0  0  0  0  0
   10.7019    7.2740   -6.2660 C   0  0  0  0  0  0  0  0  0  0  0  0
   11.2684    6.7792   -4.9774 C   0  0  0  0  0  0  0  0  0  0  0  0
   11.7462    7.7780   -4.2338 F   0  0  0  0  0  0  0  0  0  0  0  0
   10.3063    6.4677   -7.2528 N   0  0  0  0  0  0  0  0  0  0  0  0
    9.3172    4.2948  -12.3719 C   0  0  0  0  0  0  0  0  0  0  0  0
    7.1116    3.0928  -14.6945 H   0  0  0  0  0  0  0  0  0  0  0  0
    6.3858    5.7724  -11.4122 H   0  0  0  0  0  0  0  0  0  0  0  0
    9.4995    9.2679   -8.8919 H   0  0  0  0  0  0  0  0  0  0  0  0
   10.4981    6.2671   -4.4001 H   0  0  0  0  0  0  0  0  0  0  0  0
   12.0852    6.0835   -5.1666 H   0  0  0  0  0  0  0  0  0  0  0  0
   10.3574    4.2299  -12.0902 H   0  0  0  0  0  0  0  0  0  0  0  0
  2  1  3  0
  3  2  1  0
  4  3  1  0
  5  4  2  0
  6  5  1  0
  7  5  1  0
  8  7  2  0
  9  8  1  0
 10  9  3  0
 11 10  1  0
 12 11  2  0
 13 12  1  0
 14 13  1  0
 15 14  1  0
 16 15  1  0
 17 11  1  0
 17 14  2  0
 18  3  2  0
 18  8  1  0
 19  4  1  0
 20  7  1  0
 21 12  1  0
 22 15  1  0
 23 15  1  0
 24 18  1  0
M  END
>  <b_m_subgroup_collapsed>  (1397) 
0

>  <r_i_docking_score>  (1397) 
-5.8823942371181399

>  <s_m_subgroup_title>  (1397) 
glide-dock_SP_D22_pv

>  <s_m_subgroupid>  (1397) 
glide-dock_SP_D22_pv

>  <Molecule ChEMBL ID>  (1397) 
CHEMBL229429

>  <Standard Type>  (1397) 
Ki

>  <Standard Value>  (1397) 
10000.0

>  <label>  (1397) 
0

$$$$
CHEMBL4438349
     RDKit          3D

 26 28  0  0  1  0  0  0  0  0999 V2000
   10.7528    6.6305   -5.2978 C   0  0  0  0  0  0  0  0  0  0  0  0
   10.9639    7.8134   -6.0987 N   0  0  0  0  0  0  0  0  0  0  0  0
   11.5358    8.9511   -5.6809 C   0  0  0  0  0  0  0  0  0  0  0  0
   11.6852    9.8664   -6.6245 N   0  0  0  0  0  0  0  0  0  0  0  0
   11.1507    9.2625   -7.7580 C   0  0  0  0  0  0  0  0  0  0  0  0
   10.6629    8.0182   -7.4465 C   0  0  0  0  0  0  0  0  0  0  0  0
    9.9533    7.0636   -8.2954 C   0  0  0  0  0  0  0  0  0  0  0  0
    8.9428    6.2151   -7.9113 C   0  0  0  0  0  0  0  0  0  0  0  0
    8.4861    5.5008   -8.9996 N   0  0  0  0  0  0  0  0  0  0  0  0
    9.1610    5.8727  -10.1368 C   0  0  0  0  0  0  0  0  0  0  0  0
    9.0390    5.4520  -11.4717 C   0  0  0  0  0  0  0  0  0  0  0  0
    9.9101    5.9747  -12.4405 C   0  0  0  0  0  0  0  0  0  0  0  0
   10.8919    6.9118  -12.0678 C   0  0  0  0  0  0  0  0  0  0  0  0
   12.0839    7.3719  -13.2323 Cl  0  0  0  0  0  0  0  0  0  0  0  0
   10.9744    7.3683  -10.7318 C   0  0  0  0  0  0  0  0  0  0  0  0
   11.9484    8.2493  -10.4014 F   0  0  0  0  0  0  0  0  0  0  0  0
   10.1134    6.8532   -9.7224 C   0  0  0  0  0  0  0  0  0  0  0  0
    9.6926    6.5150   -5.0699 H   0  0  0  0  0  0  0  0  0  0  0  0
   11.1179    5.7726   -5.8611 H   0  0  0  0  0  0  0  0  0  0  0  0
   11.3120    6.6981   -4.3616 H   0  0  0  0  0  0  0  0  0  0  0  0
   11.8762    9.1022   -4.6664 H   0  0  0  0  0  0  0  0  0  0  0  0
   11.1218    9.7729   -8.7070 H   0  0  0  0  0  0  0  0  0  0  0  0
    8.4643    6.0941   -6.9507 H   0  0  0  0  0  0  0  0  0  0  0  0
    7.6905    4.8749   -8.9635 H   0  0  0  0  0  0  0  0  0  0  0  0
    8.2974    4.7144  -11.7424 H   0  0  0  0  0  0  0  0  0  0  0  0
    9.8557    5.6241  -13.4602 H   0  0  0  0  0  0  0  0  0  0  0  0
  2  1  1  0
  3  2  1  0
  4  3  2  0
  5  4  1  0
  6  2  1  0
  6  5  2  0
  7  6  1  0
  8  7  2  0
  9  8  1  0
 10  9  1  0
 11 10  2  0
 12 11  1  0
 13 12  2  0
 14 13  1  0
 15 13  1  0
 16 15  1  0
 17  7  1  0
 17 10  1  0
 17 15  2  0
 18  1  1  0
 19  1  1  0
 20  1  1  0
 21  3  1  0
 22  5  1  0
 23  8  1  0
 24  9  1  0
 25 11  1  0
 26 12  1  0
M  END
>  <b_m_subgroup_collapsed>  (1398) 
0

>  <r_i_docking_score>  (1398) 
-5.8738889603404303

>  <s_m_subgroup_title>  (1398) 
glide-dock_SP_D22_pv

>  <s_m_subgroupid>  (1398) 
glide-dock_SP_D22_pv

>  <Molecule ChEMBL ID>  (1398) 
CHEMBL4438349

>  <Standard Type>  (1398) 
Ki

>  <Standard Value>  (1398) 
10000.0

>  <label>  (1398) 
0

$$$$
CHEMBL3323112
     RDKit          3D

 80 83  0  0  1  0  0  0  0  0999 V2000
    8.7804    8.8385  -12.2004 C   0  0  0  0  0  0  0  0  0  0  0  0
    8.4356    7.4328  -11.8648 N   0  0  0  0  0  0  0  0  0  0  0  0
    7.5674    6.7873  -12.8757 C   0  0  0  0  0  0  0  0  0  0  0  0
    9.5342    6.5394  -11.4409 C   0  0  0  0  0  0  0  0  0  0  0  0
   10.5857    7.1992  -10.6066 C   0  0  0  0  0  0  0  0  0  0  0  0
   11.8495    7.6660  -10.9088 C   0  0  0  0  0  0  0  0  0  0  0  0
   12.5344    7.7723  -12.2461 C   0  0  0  0  0  0  0  0  0  0  0  0
   13.4582    8.5723  -12.4127 O   0  0  0  0  0  0  0  0  0  0  0  0
   12.0644    7.0193  -13.2538 N   0  0  0  0  0  0  0  0  0  0  0  0
   12.2857    7.2940  -14.6773 C   0  0  0  0  0  0  0  0  0  0  0  0
   13.1755    6.2632  -15.3905 C   0  0  0  0  0  0  0  0  0  0  0  0
   12.6944    4.8075  -15.2686 C   0  0  0  0  0  0  0  0  0  0  0  0
   11.4944    4.4964  -16.1792 C   0  0  0  0  0  0  0  0  0  0  0  0
   11.1103    3.0928  -16.0465 N   0  0  0  0  0  0  0  0  0  0  0  0
   10.6429    2.5688  -17.3342 C   0  0  0  0  0  0  0  0  0  0  0  0
   10.3615    1.0631  -17.1884 C   0  0  0  0  0  0  0  0  0  0  0  0
    9.3268    0.8457  -16.1817 N   0  0  0  0  0  0  0  0  0  0  0  0
    7.9872    0.6131  -16.5629 C   0  0  0  0  0  0  0  0  0  0  0  0
    7.0277    0.1712  -15.6316 C   0  0  0  0  0  0  0  0  0  0  0  0
    5.7714   -0.2151  -16.1442 C   0  0  0  0  0  0  0  0  0  0  0  0
    4.7396   -0.9226  -15.2768 C   0  0  0  0  0  0  0  0  0  0  0  0
    4.8922   -2.2318  -15.4460 F   0  0  0  0  0  0  0  0  0  0  0  0
    4.9167   -0.6272  -13.9863 F   0  0  0  0  0  0  0  0  0  0  0  0
    3.4901   -0.6009  -15.6115 F   0  0  0  0  0  0  0  0  0  0  0  0
    5.4823   -0.0934  -17.4554 N   0  0  0  0  0  0  0  0  0  0  0  0
    6.4253    0.3981  -18.2563 C   0  0  0  0  0  0  0  0  0  0  0  0
    6.1431    0.3183  -19.7665 C   0  0  0  0  0  0  0  0  0  0  0  0
    6.3568   -1.1307  -20.2438 C   0  0  0  0  0  0  0  0  0  0  0  0
    4.6949    0.7624  -20.0798 C   0  0  0  0  0  0  0  0  0  0  0  0
    7.0774    1.2521  -20.5716 C   0  0  0  0  0  0  0  0  0  0  0  0
    7.6609    0.7308  -17.8705 N   0  0  0  0  0  0  0  0  0  0  0  0
    9.6587    1.4400  -14.8880 C   0  0  0  0  0  0  0  0  0  0  0  0
   10.0383    2.9306  -15.0548 C   0  0  0  0  0  0  0  0  0  0  0  0
   12.4528    8.1725   -9.7627 N   0  0  0  0  0  0  0  0  0  0  0  0
   11.5564    8.1001   -8.7864 C   0  0  0  0  0  0  0  0  0  0  0  0
   11.5906    8.5199   -7.4306 C   0  0  0  0  0  0  0  0  0  0  0  0
   10.4913    8.3307   -6.6260 C   0  0  0  0  0  0  0  0  0  0  0  0
    9.3288    7.7163   -7.1440 C   0  0  0  0  0  0  0  0  0  0  0  0
    9.2866    7.2970   -8.4519 C   0  0  0  0  0  0  0  0  0  0  0  0
   10.3717    7.4889   -9.2602 N   0  0  0  0  0  0  0  0  0  0  0  0
    9.4605    8.9636  -13.0434 H   0  0  0  0  0  0  0  0  0  0  0  0
    7.8636    9.3728  -12.4460 H   0  0  0  0  0  0  0  0  0  0  0  0
    9.2034    9.3425  -11.3334 H   0  0  0  0  0  0  0  0  0  0  0  0
    8.0860    6.5727  -13.8190 H   0  0  0  0  0  0  0  0  0  0  0  0
    7.1840    5.8430  -12.4862 H   0  0  0  0  0  0  0  0  0  0  0  0
    6.7016    7.4198  -13.0768 H   0  0  0  0  0  0  0  0  0  0  0  0
    9.9672    6.0605  -12.3148 H   0  0  0  0  0  0  0  0  0  0  0  0
    9.0935    5.7167  -10.8777 H   0  0  0  0  0  0  0  0  0  0  0  0
   11.3791    6.3166  -13.0324 H   0  0  0  0  0  0  0  0  0  0  0  0
   12.6974    8.2947  -14.8300 H   0  0  0  0  0  0  0  0  0  0  0  0
   11.3134    7.3004  -15.1674 H   0  0  0  0  0  0  0  0  0  0  0  0
   14.2033    6.3492  -15.0463 H   0  0  0  0  0  0  0  0  0  0  0  0
   13.2282    6.5252  -16.4482 H   0  0  0  0  0  0  0  0  0  0  0  0
   12.4857    4.5500  -14.2314 H   0  0  0  0  0  0  0  0  0  0  0  0
   13.5227    4.1701  -15.5746 H   0  0  0  0  0  0  0  0  0  0  0  0
   11.8019    4.7009  -17.2060 H   0  0  0  0  0  0  0  0  0  0  0  0
   10.6506    5.1561  -15.9792 H   0  0  0  0  0  0  0  0  0  0  0  0
   11.4136    2.7111  -18.0926 H   0  0  0  0  0  0  0  0  0  0  0  0
    9.7521    3.1029  -17.6713 H   0  0  0  0  0  0  0  0  0  0  0  0
   11.2679    0.5483  -16.8681 H   0  0  0  0  0  0  0  0  0  0  0  0
   10.0990    0.6265  -18.1523 H   0  0  0  0  0  0  0  0  0  0  0  0
    7.2701   -0.0001  -14.5947 H   0  0  0  0  0  0  0  0  0  0  0  0
    7.3783   -1.4611  -20.0477 H   0  0  0  0  0  0  0  0  0  0  0  0
    5.6867   -1.8220  -19.7318 H   0  0  0  0  0  0  0  0  0  0  0  0
    6.1724   -1.2307  -21.3145 H   0  0  0  0  0  0  0  0  0  0  0  0
    4.5037    1.7734  -19.7230 H   0  0  0  0  0  0  0  0  0  0  0  0
    4.4964    0.7444  -21.1507 H   0  0  0  0  0  0  0  0  0  0  0  0
    3.9593    0.1077  -19.6130 H   0  0  0  0  0  0  0  0  0  0  0  0
    8.1236    0.9633  -20.4683 H   0  0  0  0  0  0  0  0  0  0  0  0
    6.8486    1.2250  -21.6377 H   0  0  0  0  0  0  0  0  0  0  0  0
    6.9889    2.2864  -20.2469 H   0  0  0  0  0  0  0  0  0  0  0  0
    8.8457    1.3517  -14.1699 H   0  0  0  0  0  0  0  0  0  0  0  0
   10.5004    0.8928  -14.4603 H   0  0  0  0  0  0  0  0  0  0  0  0
   10.3626    3.3290  -14.0927 H   0  0  0  0  0  0  0  0  0  0  0  0
    9.1615    3.5061  -15.3582 H   0  0  0  0  0  0  0  0  0  0  0  0
   12.4868    8.9980   -7.0482 H   0  0  0  0  0  0  0  0  0  0  0  0
   10.5180    8.6618   -5.5926 H   0  0  0  0  0  0  0  0  0  0  0  0
    8.4533    7.5784   -6.5136 H   0  0  0  0  0  0  0  0  0  0  0  0
    8.4013    6.8352   -8.8791 H   0  0  0  0  0  0  0  0  0  0  0  0
    7.8122    7.5362  -11.0592 H   0  0  0  0  0  0  0  0  0  0  0  0
  2  1  1  0
  3  2  1  0
  4  2  1  0
  5  4  1  0
  6  5  2  0
  7  6  1  0
  8  7  2  0
  9  7  1  0
 10  9  1  0
 11 10  1  0
 12 11  1  0
 13 12  1  0
 14 13  1  0
 15 14  1  0
 16 15  1  0
 17 16  1  0
 18 17  1  0
 19 18  2  0
 20 19  1  0
 21 20  1  0
 22 21  1  0
 23 21  1  0
 24 21  1  0
 25 20  2  0
 26 25  1  0
 27 26  1  0
 28 27  1  0
 29 27  1  0
 30 27  1  0
 31 18  1  0
 31 26  2  0
 32 17  1  0
 33 14  1  0
 33 32  1  0
 34  6  1  0
 35 34  2  0
 36 35  1  0
 37 36  2  0
 38 37  1  0
 39 38  2  0
 40  5  1  0
 40 35  1  0
 40 39  1  0
 41  1  1  0
 42  1  1  0
 43  1  1  0
 44  3  1  0
 45  3  1  0
 46  3  1  0
 47  4  1  0
 48  4  1  0
 49  9  1  0
 50 10  1  0
 51 10  1  0
 52 11  1  0
 53 11  1  0
 54 12  1  0
 55 12  1  0
 56 13  1  0
 57 13  1  0
 58 15  1  0
 59 15  1  0
 60 16  1  0
 61 16  1  0
 62 19  1  0
 63 28  1  0
 64 28  1  0
 65 28  1  0
 66 29  1  0
 67 29  1  0
 68 29  1  0
 69 30  1  0
 70 30  1  0
 71 30  1  0
 72 32  1  0
 73 32  1  0
 74 33  1  0
 75 33  1  0
 76 36  1  0
 77 37  1  0
 78 38  1  0
 79 39  1  0
 80  2  1  0
M  CHG  1   2   1
M  END
>  <b_m_subgroup_collapsed>  (1399) 
0

>  <r_i_docking_score>  (1399) 
-5.8691039027866099

>  <s_m_subgroup_title>  (1399) 
glide-dock_SP_D22_pv

>  <s_m_subgroupid>  (1399) 
glide-dock_SP_D22_pv

>  <Molecule ChEMBL ID>  (1399) 
CHEMBL3323112

>  <Standard Type>  (1399) 
Ki

>  <Standard Value>  (1399) 
72.0

>  <label>  (1399) 
1

$$$$
CHEMBL4528162
     RDKit          3D

 49 52  0  0  1  0  0  0  0  0999 V2000
    8.1979    0.0000  -15.2463 C   0  0  0  0  0  0  0  0  0  0  0  0
    9.3118    0.6135  -14.3884 C   0  0  0  0  0  0  0  0  0  0  0  0
   10.1833    1.5620  -15.1461 C   0  0  0  0  0  0  0  0  0  0  0  0
   10.9036    1.1383  -16.2491 N   0  0  0  0  0  0  0  0  0  0  0  0
   11.5996    2.1836  -16.6944 C   0  0  0  0  0  0  0  0  0  0  0  0
   12.4508    2.1451  -17.8252 N   0  0  0  0  0  0  0  0  0  0  0  0
   12.6742    1.1027  -18.6465 C   0  0  0  0  0  0  0  0  0  0  0  0
   13.6620    1.3470  -19.7805 C   0  0  0  0  0  0  0  0  0  0  0  0
   12.1458   -0.0048  -18.5277 O   0  0  0  0  0  0  0  0  0  0  0  0
   11.4133    3.2790  -15.9746 N   0  0  0  0  0  0  0  0  0  0  0  0
   10.4882    2.9082  -14.9884 C   0  0  0  0  0  0  0  0  0  0  0  0
   10.0143    3.9304  -14.0493 C   0  0  0  0  0  0  0  0  0  0  0  0
   10.7212    4.9432  -13.4466 C   0  0  0  0  0  0  0  0  0  0  0  0
    9.8730    5.7457  -12.6916 N   0  0  0  0  0  0  0  0  0  0  0  0
   10.3475    7.1915  -11.8630 S   0  0  0  0  0  0  0  0  0  0  0  0
    9.3584    8.2105  -12.2465 O   0  0  0  0  0  0  0  0  0  0  0  0
   11.7719    7.3722  -12.1883 O   0  0  0  0  0  0  0  0  0  0  0  0
   10.2117    6.9139  -10.0982 C   0  0  0  0  0  0  0  0  0  0  0  0
    9.4139    5.8861   -9.5573 C   0  0  0  0  0  0  0  0  0  0  0  0
    9.2877    5.7660   -8.1624 C   0  0  0  0  0  0  0  0  0  0  0  0
    9.9784    6.6459   -7.3068 C   0  0  0  0  0  0  0  0  0  0  0  0
   10.7936    7.6581   -7.8480 C   0  0  0  0  0  0  0  0  0  0  0  0
   10.9076    7.7948   -9.2456 C   0  0  0  0  0  0  0  0  0  0  0  0
    8.5828    5.2553  -12.7948 C   0  0  0  0  0  0  0  0  0  0  0  0
    7.3677    5.6980  -12.2459 C   0  0  0  0  0  0  0  0  0  0  0  0
    6.1902    4.9786  -12.4791 C   0  0  0  0  0  0  0  0  0  0  0  0
    6.2114    3.8481  -13.3098 C   0  0  0  0  0  0  0  0  0  0  0  0
    7.4244    3.4303  -13.8886 C   0  0  0  0  0  0  0  0  0  0  0  0
    8.6466    4.1012  -13.6317 C   0  0  0  0  0  0  0  0  0  0  0  0
    7.5445   -0.6276  -14.6410 H   0  0  0  0  0  0  0  0  0  0  0  0
    7.5770    0.7569  -15.7219 H   0  0  0  0  0  0  0  0  0  0  0  0
    8.6127   -0.6242  -16.0386 H   0  0  0  0  0  0  0  0  0  0  0  0
    9.9287   -0.1960  -13.9944 H   0  0  0  0  0  0  0  0  0  0  0  0
    8.8850    1.1117  -13.5203 H   0  0  0  0  0  0  0  0  0  0  0  0
   12.9389    3.0047  -18.0266 H   0  0  0  0  0  0  0  0  0  0  0  0
   13.3222    2.1637  -20.4161 H   0  0  0  0  0  0  0  0  0  0  0  0
   14.6443    1.6003  -19.3798 H   0  0  0  0  0  0  0  0  0  0  0  0
   13.7662    0.4544  -20.3994 H   0  0  0  0  0  0  0  0  0  0  0  0
   11.7730    5.1774  -13.5240 H   0  0  0  0  0  0  0  0  0  0  0  0
    8.8807    5.1898  -10.1806 H   0  0  0  0  0  0  0  0  0  0  0  0
    8.6545    4.9922   -7.7567 H   0  0  0  0  0  0  0  0  0  0  0  0
    9.8761    6.5446   -6.2354 H   0  0  0  0  0  0  0  0  0  0  0  0
   11.3209    8.3367   -7.1937 H   0  0  0  0  0  0  0  0  0  0  0  0
   11.5163    8.5839   -9.6662 H   0  0  0  0  0  0  0  0  0  0  0  0
    7.3387    6.5723  -11.6125 H   0  0  0  0  0  0  0  0  0  0  0  0
    5.2859    5.3116  -12.0042 H   0  0  0  0  0  0  0  0  0  0  0  0
    5.2999    3.3027  -13.5080 H   0  0  0  0  0  0  0  0  0  0  0  0
    7.4142    2.5810  -14.5466 H   0  0  0  0  0  0  0  0  0  0  0  0
   10.9134    0.2146  -16.6613 H   0  0  0  0  0  0  0  0  0  0  0  0
  2  1  1  0
  3  2  1  0
  4  3  1  0
  5  4  1  0
  6  5  1  0
  7  6  1  0
  8  7  1  0
  9  7  2  0
 10  5  2  0
 11  3  2  0
 11 10  1  0
 12 11  1  0
 13 12  2  0
 14 13  1  0
 15 14  1  0
 16 15  2  0
 17 15  2  0
 18 15  1  0
 19 18  2  0
 20 19  1  0
 21 20  2  0
 22 21  1  0
 23 18  1  0
 23 22  2  0
 24 14  1  0
 25 24  2  0
 26 25  1  0
 27 26  2  0
 28 27  1  0
 29 12  1  0
 29 24  1  0
 29 28  2  0
 30  1  1  0
 31  1  1  0
 32  1  1  0
 33  2  1  0
 34  2  1  0
 35  6  1  0
 36  8  1  0
 37  8  1  0
 38  8  1  0
 39 13  1  0
 40 19  1  0
 41 20  1  0
 42 21  1  0
 43 22  1  0
 44 23  1  0
 45 25  1  0
 46 26  1  0
 47 27  1  0
 48 28  1  0
 49  4  1  0
M  END
>  <b_m_subgroup_collapsed>  (1400) 
0

>  <r_i_docking_score>  (1400) 
-5.8687575152761902

>  <s_m_subgroup_title>  (1400) 
glide-dock_SP_D22_pv

>  <s_m_subgroupid>  (1400) 
glide-dock_SP_D22_pv

>  <Molecule ChEMBL ID>  (1400) 
CHEMBL4528162

>  <Standard Type>  (1400) 
Ki

>  <Standard Value>  (1400) 
10000.0

>  <label>  (1400) 
0

$$$$
CHEMBL164950
     RDKit          3D

 42 42  0  0  1  0  0  0  0  0999 V2000
    9.7474    5.5072   -7.8595 C   0  0  0  0  0  0  0  0  0  0  0  0
    9.1018    6.3371   -8.9573 C   0  0  0  0  0  0  0  0  0  0  0  0
    9.0803    5.5486  -10.2712 C   0  0  0  0  0  0  0  0  0  0  0  0
    8.4857    6.3065  -11.4034 N   0  0  0  0  0  0  0  0  0  0  0  0
    9.2357    7.5410  -11.7840 C   0  0  0  0  0  0  0  0  0  0  0  0
   10.7486    7.3478  -12.0734 C   0  0  0  0  0  0  0  0  0  0  0  0
   11.6797    7.9776  -11.0267 C   0  0  0  0  0  0  0  0  0  0  0  0
    8.0422    5.4581  -12.5584 C   0  0  0  0  0  0  0  0  0  0  0  0
    9.1096    4.4505  -13.0577 C   0  0  0  0  0  0  0  0  0  0  0  0
    8.6207    3.6396  -14.2616 C   0  0  0  0  0  0  0  0  0  0  0  0
    7.3066    2.9244  -13.9605 C   0  0  0  0  0  0  0  0  0  0  0  0
    7.1308    1.5911  -14.1319 C   0  0  0  0  0  0  0  0  0  0  0  0
    5.8954    0.9746  -13.7754 C   0  0  0  0  0  0  0  0  0  0  0  0
    4.9050    0.4724  -13.4462 N   0  0  0  0  0  0  0  0  0  0  0  0
    8.1994    0.7908  -14.6362 C   0  0  0  0  0  0  0  0  0  0  0  0
    9.0882    0.1725  -15.0470 N   0  0  0  0  0  0  0  0  0  0  0  0
    6.2271    3.8721  -13.4360 C   0  0  0  0  0  0  0  0  0  0  0  0
    6.7265    4.7083  -12.2423 C   0  0  0  0  0  0  0  0  0  0  0  0
    9.6168    5.9740   -6.8828 H   0  0  0  0  0  0  0  0  0  0  0  0
   10.8154    5.3747   -8.0338 H   0  0  0  0  0  0  0  0  0  0  0  0
    9.2857    4.5211   -7.8463 H   0  0  0  0  0  0  0  0  0  0  0  0
    8.0861    6.5779   -8.6602 H   0  0  0  0  0  0  0  0  0  0  0  0
    9.6291    7.2848   -9.0455 H   0  0  0  0  0  0  0  0  0  0  0  0
   10.0859    5.2092  -10.5133 H   0  0  0  0  0  0  0  0  0  0  0  0
    8.5015    4.6423  -10.0978 H   0  0  0  0  0  0  0  0  0  0  0  0
    8.7516    7.9981  -12.6469 H   0  0  0  0  0  0  0  0  0  0  0  0
    9.1003    8.2820  -10.9960 H   0  0  0  0  0  0  0  0  0  0  0  0
   11.0263    6.3058  -12.1775 H   0  0  0  0  0  0  0  0  0  0  0  0
   10.9768    7.7723  -13.0483 H   0  0  0  0  0  0  0  0  0  0  0  0
   12.7128    7.9684  -11.3750 H   0  0  0  0  0  0  0  0  0  0  0  0
   11.4141    9.0133  -10.8160 H   0  0  0  0  0  0  0  0  0  0  0  0
   11.6534    7.4284  -10.0864 H   0  0  0  0  0  0  0  0  0  0  0  0
    7.8119    6.1304  -13.3860 H   0  0  0  0  0  0  0  0  0  0  0  0
   10.0131    4.9597  -13.3785 H   0  0  0  0  0  0  0  0  0  0  0  0
    9.3969    3.7578  -12.2655 H   0  0  0  0  0  0  0  0  0  0  0  0
    8.4862    4.3159  -15.1022 H   0  0  0  0  0  0  0  0  0  0  0  0
    9.4084    2.9500  -14.5628 H   0  0  0  0  0  0  0  0  0  0  0  0
    5.9360    4.5399  -14.2462 H   0  0  0  0  0  0  0  0  0  0  0  0
    5.3205    3.3399  -13.1485 H   0  0  0  0  0  0  0  0  0  0  0  0
    6.8577    4.0374  -11.3943 H   0  0  0  0  0  0  0  0  0  0  0  0
    5.9543    5.4209  -11.9469 H   0  0  0  0  0  0  0  0  0  0  0  0
    7.6173    6.6904  -11.0259 H   0  0  0  0  0  0  0  0  0  0  0  0
  2  1  1  0
  3  2  1  0
  4  3  1  0
  5  4  1  0
  6  5  1  0
  7  6  1  0
  8  4  1  0
  9  8  1  0
 10  9  1  0
 11 10  1  0
 12 11  2  3
 13 12  1  0
 14 13  3  0
 15 12  1  0
 16 15  3  0
 17 11  1  0
 18  8  1  0
 18 17  1  0
 19  1  1  0
 20  1  1  0
 21  1  1  0
 22  2  1  0
 23  2  1  0
 24  3  1  0
 25  3  1  0
 26  5  1  0
 27  5  1  0
 28  6  1  0
 29  6  1  0
 30  7  1  0
 31  7  1  0
 32  7  1  0
 33  8  1  0
 34  9  1  0
 35  9  1  0
 36 10  1  0
 37 10  1  0
 38 17  1  0
 39 17  1  0
 40 18  1  0
 41 18  1  0
 42  4  1  0
M  CHG  1   4   1
M  END
>  <b_m_subgroup_collapsed>  (1401) 
0

>  <r_i_docking_score>  (1401) 
-5.8602138951856597

>  <s_m_subgroup_title>  (1401) 
glide-dock_SP_D22_pv

>  <s_m_subgroupid>  (1401) 
glide-dock_SP_D22_pv

>  <Molecule ChEMBL ID>  (1401) 
CHEMBL164950

>  <Standard Type>  (1401) 
Ki

>  <Standard Value>  (1401) 
15000.0

>  <label>  (1401) 
0

$$$$
CHEMBL4559312
     RDKit          3D

 29 31  0  0  1  0  0  0  0  0999 V2000
   12.8558    7.8754  -14.2919 C   0  0  0  0  0  0  0  0  0  0  0  0
   11.8624    7.0555  -13.4580 C   0  0  0  0  0  0  0  0  0  0  0  0
   11.6416    5.7084  -13.9719 N   0  0  0  0  0  0  0  0  0  0  0  0
   12.5230    4.9914  -14.6899 C   0  0  0  0  0  0  0  0  0  0  0  0
   12.1322    3.7722  -15.0081 N   0  0  0  0  0  0  0  0  0  0  0  0
   10.8898    3.6645  -14.4134 C   0  0  0  0  0  0  0  0  0  0  0  0
   10.5432    4.8510  -13.7999 C   0  0  0  0  0  0  0  0  0  0  0  0
    9.2912    5.1897  -13.1105 C   0  0  0  0  0  0  0  0  0  0  0  0
    9.0094    6.2247  -12.2440 C   0  0  0  0  0  0  0  0  0  0  0  0
    7.6863    6.1704  -11.8470 N   0  0  0  0  0  0  0  0  0  0  0  0
    7.0717    5.0667  -12.3893 C   0  0  0  0  0  0  0  0  0  0  0  0
    5.7759    4.5428  -12.2464 C   0  0  0  0  0  0  0  0  0  0  0  0
    5.4479    3.3133  -12.8406 C   0  0  0  0  0  0  0  0  0  0  0  0
    6.4079    2.6491  -13.6210 C   0  0  0  0  0  0  0  0  0  0  0  0
    6.0862    0.8817  -14.2469 Br  0  0  0  0  0  0  0  0  0  0  0  0
    7.6645    3.2358  -13.8473 C   0  0  0  0  0  0  0  0  0  0  0  0
    8.0604    4.4312  -13.1945 C   0  0  0  0  0  0  0  0  0  0  0  0
   13.0322    8.8530  -13.8469 H   0  0  0  0  0  0  0  0  0  0  0  0
   13.8169    7.3725  -14.3492 H   0  0  0  0  0  0  0  0  0  0  0  0
   12.4918    8.0294  -15.3078 H   0  0  0  0  0  0  0  0  0  0  0  0
   10.9239    7.5961  -13.4412 H   0  0  0  0  0  0  0  0  0  0  0  0
   12.2125    6.9745  -12.4288 H   0  0  0  0  0  0  0  0  0  0  0  0
   13.4928    5.3542  -14.9941 H   0  0  0  0  0  0  0  0  0  0  0  0
   10.3647    2.7277  -14.4871 H   0  0  0  0  0  0  0  0  0  0  0  0
    9.6349    7.0120  -11.8549 H   0  0  0  0  0  0  0  0  0  0  0  0
    7.2460    6.8366  -11.1963 H   0  0  0  0  0  0  0  0  0  0  0  0
    5.0784    5.0370  -11.5877 H   0  0  0  0  0  0  0  0  0  0  0  0
    4.4858    2.8585  -12.6590 H   0  0  0  0  0  0  0  0  0  0  0  0
    8.3502    2.6891  -14.4668 H   0  0  0  0  0  0  0  0  0  0  0  0
  2  1  1  0
  3  2  1  0
  4  3  1  0
  5  4  2  0
  6  5  1  0
  7  3  1  0
  7  6  2  0
  8  7  1  0
  9  8  2  0
 10  9  1  0
 11 10  1  0
 12 11  2  0
 13 12  1  0
 14 13  2  0
 15 14  1  0
 16 14  1  0
 17  8  1  0
 17 11  1  0
 17 16  2  0
 18  1  1  0
 19  1  1  0
 20  1  1  0
 21  2  1  0
 22  2  1  0
 23  4  1  0
 24  6  1  0
 25  9  1  0
 26 10  1  0
 27 12  1  0
 28 13  1  0
 29 16  1  0
M  END
>  <b_m_subgroup_collapsed>  (1402) 
0

>  <r_i_docking_score>  (1402) 
-5.8582912610066904

>  <s_m_subgroup_title>  (1402) 
glide-dock_SP_D22_pv

>  <s_m_subgroupid>  (1402) 
glide-dock_SP_D22_pv

>  <Molecule ChEMBL ID>  (1402) 
CHEMBL4559312

>  <Standard Type>  (1402) 
Ki

>  <Standard Value>  (1402) 
10000.0

>  <label>  (1402) 
0

$$$$
CHEMBL1949727
     RDKit          3D

 47 50  0  0  1  0  0  0  0  0999 V2000
    9.3524    3.5674  -17.8688 C   0  0  0  0  0  0  0  0  0  0  0  0
   10.6570    3.3269  -17.2029 N   0  0  2  0  0  0  0  0  0  0  0  0
   11.8058    3.6020  -18.1067 C   0  0  0  0  0  0  0  0  0  0  0  0
   13.0824    4.0151  -17.3490 C   0  0  0  0  0  0  0  0  0  0  0  0
   12.9540    5.3509  -16.6307 C   0  0  0  0  0  0  0  0  0  0  0  0
   13.2920    6.5090  -17.3660 C   0  0  0  0  0  0  0  0  0  0  0  0
   13.2587    7.7815  -16.7693 C   0  0  0  0  0  0  0  0  0  0  0  0
   12.8859    7.9076  -15.4224 C   0  0  0  0  0  0  0  0  0  0  0  0
   12.5284    6.7665  -14.6842 C   0  0  0  0  0  0  0  0  0  0  0  0
   12.5476    5.4822  -15.2711 C   0  0  0  0  0  0  0  0  0  0  0  0
   12.1545    4.3029  -14.3817 C   0  0  0  0  0  0  0  0  0  0  0  0
   10.6661    4.2595  -14.0702 C   0  0  0  0  0  0  0  0  0  0  0  0
   10.0091    5.2393  -13.3425 N   0  0  0  0  0  0  0  0  0  0  0  0
    8.6722    4.9906  -13.1576 C   0  0  0  0  0  0  0  0  0  0  0  0
    7.6475    5.6755  -12.4832 C   0  0  0  0  0  0  0  0  0  0  0  0
    6.3487    5.1400  -12.4913 C   0  0  0  0  0  0  0  0  0  0  0  0
    6.0901    3.9380  -13.1787 C   0  0  0  0  0  0  0  0  0  0  0  0
    7.1337    3.2646  -13.8483 C   0  0  0  0  0  0  0  0  0  0  0  0
    8.4582    3.7660  -13.8453 C   0  0  0  0  0  0  0  0  0  0  0  0
    9.7387    3.3092  -14.3888 C   0  0  0  0  0  0  0  0  0  0  0  0
    9.9661    2.0181  -15.1401 C   0  0  0  0  0  0  0  0  0  0  0  0
   10.7629    2.0236  -16.4744 C   0  0  1  0  0  0  0  0  0  0  0  0
   10.4781    0.7901  -17.3643 C   0  0  0  0  0  0  0  0  0  0  0  0
   11.4711    0.1996  -17.8445 O   0  0  0  0  0  0  0  0  0  0  0  0
    9.2869    0.4792  -17.5920 O   0  0  0  0  0  0  0  0  0  0  0  0
    9.2561    2.9637  -18.7756 H   0  0  0  0  0  0  0  0  0  0  0  0
    9.2545    4.6179  -18.1536 H   0  0  0  0  0  0  0  0  0  0  0  0
    8.5209    3.3222  -17.2048 H   0  0  0  0  0  0  0  0  0  0  0  0
   12.0061    2.7316  -18.7362 H   0  0  0  0  0  0  0  0  0  0  0  0
   11.5456    4.4095  -18.7951 H   0  0  0  0  0  0  0  0  0  0  0  0
   13.4326    3.2378  -16.6777 H   0  0  0  0  0  0  0  0  0  0  0  0
   13.8890    4.1052  -18.0780 H   0  0  0  0  0  0  0  0  0  0  0  0
   13.5955    6.4298  -18.3987 H   0  0  0  0  0  0  0  0  0  0  0  0
   13.5285    8.6598  -17.3388 H   0  0  0  0  0  0  0  0  0  0  0  0
   12.8736    8.8795  -14.9555 H   0  0  0  0  0  0  0  0  0  0  0  0
   12.2560    6.8847  -13.6475 H   0  0  0  0  0  0  0  0  0  0  0  0
   12.4865    3.3518  -14.7710 H   0  0  0  0  0  0  0  0  0  0  0  0
   12.6893    4.4087  -13.4369 H   0  0  0  0  0  0  0  0  0  0  0  0
   10.4902    6.0489  -12.9786 H   0  0  0  0  0  0  0  0  0  0  0  0
    7.8456    6.5990  -11.9565 H   0  0  0  0  0  0  0  0  0  0  0  0
    5.5594    5.6523  -11.9619 H   0  0  0  0  0  0  0  0  0  0  0  0
    5.0908    3.5269  -13.1857 H   0  0  0  0  0  0  0  0  0  0  0  0
    6.9180    2.3355  -14.3586 H   0  0  0  0  0  0  0  0  0  0  0  0
   10.4284    1.3040  -14.4535 H   0  0  0  0  0  0  0  0  0  0  0  0
    8.9670    1.6176  -15.3211 H   0  0  0  0  0  0  0  0  0  0  0  0
   11.8011    1.9049  -16.1707 H   0  0  0  0  0  0  0  0  0  0  0  0
   10.7226    4.0335  -16.4828 H   0  0  0  0  0  0  0  0  0  0  0  0
  2  1  1  0
  3  2  1  0
  4  3  1  0
  5  4  1  0
  6  5  2  0
  7  6  1  0
  8  7  2  0
  9  8  1  0
 10  5  1  0
 10  9  2  0
 11 10  1  0
 12 11  1  0
 13 12  1  0
 14 13  1  0
 15 14  2  0
 16 15  1  0
 17 16  2  0
 18 17  1  0
 19 14  1  0
 19 18  2  0
 20 12  2  0
 20 19  1  0
 21 20  1  0
 22  2  1  0
 22 21  1  0
 23 22  1  0
 24 23  2  0
 25 23  1  0
 26  1  1  0
 27  1  1  0
 28  1  1  0
 29  3  1  0
 30  3  1  0
 31  4  1  0
 32  4  1  0
 33  6  1  0
 34  7  1  0
 35  8  1  0
 36  9  1  0
 37 11  1  0
 38 11  1  0
 39 13  1  0
 40 15  1  0
 41 16  1  0
 42 17  1  0
 43 18  1  0
 44 21  1  0
 45 21  1  0
 22 46  1  1
  2 47  1  1
M  CHG  2   2   1  25  -1
M  END
>  <b_m_subgroup_collapsed>  (1403) 
0

>  <r_i_docking_score>  (1403) 
-5.8560001448008796

>  <s_m_subgroup_title>  (1403) 
glide-dock_SP_D22_pv

>  <s_m_subgroupid>  (1403) 
glide-dock_SP_D22_pv

>  <Molecule ChEMBL ID>  (1403) 
CHEMBL1949727

>  <Standard Type>  (1403) 
Ki

>  <Standard Value>  (1403) 
10000.0

>  <label>  (1403) 
0

$$$$
CHEMBL209876
     RDKit          3D

 77 81  0  0  1  0  0  0  0  0999 V2000
    8.5242    8.7247   -7.7339 C   0  0  0  0  0  0  0  0  0  0  0  0
    9.3875    7.6095   -7.6474 O   0  0  0  0  0  0  0  0  0  0  0  0
   10.5750    7.8016   -8.2991 C   0  0  0  0  0  0  0  0  0  0  0  0
   11.6439    8.4069   -7.6059 C   0  0  0  0  0  0  0  0  0  0  0  0
   11.4508    8.9522   -5.9754 Cl  0  0  0  0  0  0  0  0  0  0  0  0
   12.8819    8.5724   -8.2467 C   0  0  0  0  0  0  0  0  0  0  0  0
   13.0550    8.1723   -9.5780 C   0  0  0  0  0  0  0  0  0  0  0  0
   11.9793    7.6381  -10.2940 C   0  0  0  0  0  0  0  0  0  0  0  0
   10.7499    7.4061   -9.6523 C   0  0  0  0  0  0  0  0  0  0  0  0
    9.7613    6.7616  -10.4015 N   0  0  0  0  0  0  0  0  0  0  0  0
    9.1450    7.5641  -11.4458 C   0  0  0  0  0  0  0  0  0  0  0  0
    8.3874    6.6706  -12.4434 C   0  0  0  0  0  0  0  0  0  0  0  0
    7.5559    5.6243  -11.7877 N   0  0  0  0  0  0  0  0  0  0  0  0
    6.9113    4.7664  -12.8098 C   0  0  0  0  0  0  0  0  0  0  0  0
    5.9905    3.6656  -12.2640 C   0  0  0  0  0  0  0  0  0  0  0  0
    5.3802    2.8308  -13.3976 C   0  0  0  0  0  0  0  0  0  0  0  0
    6.1875    1.5989  -13.8607 C   0  0  0  0  0  0  0  0  0  0  0  0
    7.3820    1.9143  -14.6518 N   0  0  0  0  0  0  0  0  0  0  0  0
    7.4789    1.7592  -15.9840 C   0  0  0  0  0  0  0  0  0  0  0  0
    6.4879    1.5756  -16.6937 O   0  0  0  0  0  0  0  0  0  0  0  0
    8.8447    1.8153  -16.6374 C   0  0  0  0  0  0  0  0  0  0  0  0
    8.8983    2.2095  -17.9988 C   0  0  0  0  0  0  0  0  0  0  0  0
   10.1224    2.2681  -18.6971 C   0  0  0  0  0  0  0  0  0  0  0  0
   11.2452    1.6232  -18.1527 C   0  0  0  0  0  0  0  0  0  0  0  0
   11.2223    1.2521  -16.7975 C   0  0  0  0  0  0  0  0  0  0  0  0
   10.0856    1.5081  -15.9931 C   0  0  0  0  0  0  0  0  0  0  0  0
   10.3725    1.7296  -14.5001 C   0  0  0  0  0  0  0  0  0  0  0  0
   10.6327    3.2335  -14.1195 C   0  0  0  0  0  0  0  0  0  0  0  0
   10.9063    4.1418  -15.3154 C   0  0  0  0  0  0  0  0  0  0  0  0
    9.8347    4.8043  -15.9455 C   0  0  0  0  0  0  0  0  0  0  0  0
    9.9313    5.1477  -17.3084 C   0  0  0  0  0  0  0  0  0  0  0  0
   11.1053    4.8240  -18.0186 C   0  0  0  0  0  0  0  0  0  0  0  0
   12.2718    4.4742  -17.3018 C   0  0  0  0  0  0  0  0  0  0  0  0
   12.1713    4.1298  -15.9390 C   0  0  0  0  0  0  0  0  0  0  0  0
   11.0277    4.5594  -19.5221 C   0  0  0  0  0  0  0  0  0  0  0  0
   10.2861    3.2209  -19.8837 C   0  0  0  0  0  0  0  0  0  0  0  0
    8.3209    4.8573  -10.7724 C   0  0  0  0  0  0  0  0  0  0  0  0
    8.9076    5.7967   -9.7335 C   0  0  0  0  0  0  0  0  0  0  0  0
    7.6985    8.5723   -7.0462 H   0  0  0  0  0  0  0  0  0  0  0  0
    9.0510    9.6362   -7.4675 H   0  0  0  0  0  0  0  0  0  0  0  0
    8.0947    8.8637   -8.7251 H   0  0  0  0  0  0  0  0  0  0  0  0
   13.6958    9.0259   -7.7073 H   0  0  0  0  0  0  0  0  0  0  0  0
   14.0090    8.3198  -10.0627 H   0  0  0  0  0  0  0  0  0  0  0  0
   12.1212    7.3511  -11.3257 H   0  0  0  0  0  0  0  0  0  0  0  0
    8.4858    8.2920  -10.9800 H   0  0  0  0  0  0  0  0  0  0  0  0
    9.8977    8.1434  -11.9814 H   0  0  0  0  0  0  0  0  0  0  0  0
    7.7592    7.2918  -13.0819 H   0  0  0  0  0  0  0  0  0  0  0  0
    9.1160    6.1763  -13.0889 H   0  0  0  0  0  0  0  0  0  0  0  0
    6.3119    5.4129  -13.4469 H   0  0  0  0  0  0  0  0  0  0  0  0
    7.6758    4.3237  -13.4441 H   0  0  0  0  0  0  0  0  0  0  0  0
    6.4859    2.9928  -11.5687 H   0  0  0  0  0  0  0  0  0  0  0  0
    5.1915    4.1478  -11.7004 H   0  0  0  0  0  0  0  0  0  0  0  0
    4.4097    2.4753  -13.0472 H   0  0  0  0  0  0  0  0  0  0  0  0
    5.1967    3.4844  -14.2468 H   0  0  0  0  0  0  0  0  0  0  0  0
    6.4837    0.9934  -13.0065 H   0  0  0  0  0  0  0  0  0  0  0  0
    5.5257    0.9480  -14.4349 H   0  0  0  0  0  0  0  0  0  0  0  0
    8.2397    2.0746  -14.1467 H   0  0  0  0  0  0  0  0  0  0  0  0
    8.0141    2.6103  -18.4682 H   0  0  0  0  0  0  0  0  0  0  0  0
   12.1827    1.6103  -18.6897 H   0  0  0  0  0  0  0  0  0  0  0  0
   12.1583    0.9731  -16.3391 H   0  0  0  0  0  0  0  0  0  0  0  0
    9.6414    1.2587  -13.8473 H   0  0  0  0  0  0  0  0  0  0  0  0
   11.2850    1.1830  -14.2718 H   0  0  0  0  0  0  0  0  0  0  0  0
    9.7784    3.6233  -13.5713 H   0  0  0  0  0  0  0  0  0  0  0  0
   11.4820    3.3097  -13.4465 H   0  0  0  0  0  0  0  0  0  0  0  0
    8.8807    4.8686  -15.4514 H   0  0  0  0  0  0  0  0  0  0  0  0
    9.0418    5.4548  -17.8395 H   0  0  0  0  0  0  0  0  0  0  0  0
   13.1908    4.2597  -17.8264 H   0  0  0  0  0  0  0  0  0  0  0  0
   13.0148    3.6645  -15.4520 H   0  0  0  0  0  0  0  0  0  0  0  0
   10.5621    5.4053  -20.0284 H   0  0  0  0  0  0  0  0  0  0  0  0
   12.0480    4.5091  -19.9032 H   0  0  0  0  0  0  0  0  0  0  0  0
   10.7918    2.7126  -20.7055 H   0  0  0  0  0  0  0  0  0  0  0  0
    9.2893    3.4648  -20.2534 H   0  0  0  0  0  0  0  0  0  0  0  0
    7.6860    4.1657  -10.2330 H   0  0  0  0  0  0  0  0  0  0  0  0
    9.1083    4.2732  -11.2516 H   0  0  0  0  0  0  0  0  0  0  0  0
    9.4746    5.2329   -8.9909 H   0  0  0  0  0  0  0  0  0  0  0  0
    8.0894    6.3016   -9.2150 H   0  0  0  0  0  0  0  0  0  0  0  0
    6.8402    6.1266  -11.2704 H   0  0  0  0  0  0  0  0  0  0  0  0
  2  1  1  0
  3  2  1  0
  4  3  2  0
  5  4  1  0
  6  4  1  0
  7  6  2  0
  8  7  1  0
  9  3  1  0
  9  8  2  0
 10  9  1  0
 11 10  1  0
 12 11  1  0
 13 12  1  0
 14 13  1  0
 15 14  1  0
 16 15  1  0
 17 16  1  0
 18 17  1  0
 19 18  1  0
 20 19  2  0
 21 19  1  0
 22 21  1  0
 23 22  2  0
 24 23  1  0
 25 24  2  0
 26 21  2  0
 26 25  1  0
 27 26  1  0
 28 27  1  0
 29 28  1  0
 30 29  1  0
 31 30  2  0
 32 31  1  0
 33 32  2  0
 34 29  2  0
 34 33  1  0
 35 32  1  0
 36 23  1  0
 36 35  1  0
 37 13  1  0
 38 10  1  0
 38 37  1  0
 39  1  1  0
 40  1  1  0
 41  1  1  0
 42  6  1  0
 43  7  1  0
 44  8  1  0
 45 11  1  0
 46 11  1  0
 47 12  1  0
 48 12  1  0
 49 14  1  0
 50 14  1  0
 51 15  1  0
 52 15  1  0
 53 16  1  0
 54 16  1  0
 55 17  1  0
 56 17  1  0
 57 18  1  0
 58 22  1  0
 59 24  1  0
 60 25  1  0
 61 27  1  0
 62 27  1  0
 63 28  1  0
 64 28  1  0
 65 30  1  0
 66 31  1  0
 67 33  1  0
 68 34  1  0
 69 35  1  0
 70 35  1  0
 71 36  1  0
 72 36  1  0
 73 37  1  0
 74 37  1  0
 75 38  1  0
 76 38  1  0
 77 13  1  0
M  CHG  1  13   1
M  END
>  <b_m_subgroup_collapsed>  (1404) 
0

>  <r_i_docking_score>  (1404) 
-5.8546736687727599

>  <s_m_subgroup_title>  (1404) 
glide-dock_SP_D22_pv

>  <s_m_subgroupid>  (1404) 
glide-dock_SP_D22_pv

>  <Molecule ChEMBL ID>  (1404) 
CHEMBL209876

>  <Standard Type>  (1404) 
Ki

>  <Standard Value>  (1404) 
28.0

>  <label>  (1404) 
1

$$$$
CHEMBL116372
     RDKit          3D

 45 47  0  0  1  0  0  0  0  0999 V2000
    9.9433    5.1860   -8.5555 C   0  0  0  0  0  0  0  0  0  0  0  0
    8.4860    5.0612   -9.0110 C   0  0  0  0  0  0  0  0  0  0  0  0
    8.2723    4.8887  -10.5305 C   0  0  0  0  0  0  0  0  0  0  0  0
    8.0863    6.1723  -11.2711 N   0  0  0  0  0  0  0  0  0  0  0  0
    9.3270    6.9964  -11.3261 C   0  0  0  0  0  0  0  0  0  0  0  0
    9.2864    8.1686  -10.3296 C   0  0  0  0  0  0  0  0  0  0  0  0
   10.6719    8.7844  -10.0986 C   0  0  0  0  0  0  0  0  0  0  0  0
    7.4285    6.0391  -12.6087 C   0  0  2  0  0  0  0  0  0  0  0  0
    5.9158    5.7465  -12.5174 C   0  0  0  0  0  0  0  0  0  0  0  0
    5.5868    4.3814  -12.3011 O   0  0  0  0  0  0  0  0  0  0  0  0
    6.2562    3.4423  -13.0463 C   0  0  0  0  0  0  0  0  0  0  0  0
    5.6861    2.1581  -13.1456 C   0  0  0  0  0  0  0  0  0  0  0  0
    6.3448    1.1304  -13.8476 C   0  0  0  0  0  0  0  0  0  0  0  0
    7.6063    1.3493  -14.4437 C   0  0  0  0  0  0  0  0  0  0  0  0
    8.3738    0.4127  -15.1273 N   0  0  0  0  0  0  0  0  0  0  0  0
    9.5192    0.9700  -15.5217 C   0  0  0  0  0  0  0  0  0  0  0  0
   10.4847    0.2735  -16.2224 N   0  0  0  0  0  0  0  0  0  0  0  0
    9.7550    2.6717  -15.1222 S   0  0  0  0  0  0  0  0  0  0  0  0
    8.1764    2.6546  -14.3304 C   0  0  0  0  0  0  0  0  0  0  0  0
    7.5088    3.6983  -13.6535 C   0  0  0  0  0  0  0  0  0  0  0  0
    8.1516    5.0717  -13.5688 C   0  0  0  0  0  0  0  0  0  0  0  0
    9.9882    5.3722   -7.4826 H   0  0  0  0  0  0  0  0  0  0  0  0
   10.4856    4.2656   -8.7651 H   0  0  0  0  0  0  0  0  0  0  0  0
   10.4778    6.0031   -9.0275 H   0  0  0  0  0  0  0  0  0  0  0  0
    7.8924    5.8925   -8.6335 H   0  0  0  0  0  0  0  0  0  0  0  0
    8.0866    4.1774   -8.5135 H   0  0  0  0  0  0  0  0  0  0  0  0
    7.3742    4.2879  -10.6474 H   0  0  0  0  0  0  0  0  0  0  0  0
    9.0767    4.2964  -10.9692 H   0  0  0  0  0  0  0  0  0  0  0  0
   10.2009    6.3667  -11.1640 H   0  0  0  0  0  0  0  0  0  0  0  0
    9.4857    7.4164  -12.3193 H   0  0  0  0  0  0  0  0  0  0  0  0
    8.6002    8.9322  -10.6992 H   0  0  0  0  0  0  0  0  0  0  0  0
    8.8862    7.8520   -9.3675 H   0  0  0  0  0  0  0  0  0  0  0  0
   10.6026    9.6995   -9.5101 H   0  0  0  0  0  0  0  0  0  0  0  0
   11.3271    8.1006   -9.5600 H   0  0  0  0  0  0  0  0  0  0  0  0
   11.1612    9.0199  -11.0410 H   0  0  0  0  0  0  0  0  0  0  0  0
    7.4839    7.0370  -13.0455 H   0  0  0  0  0  0  0  0  0  0  0  0
    5.4471    6.3459  -11.7387 H   0  0  0  0  0  0  0  0  0  0  0  0
    5.4268    6.0412  -13.4455 H   0  0  0  0  0  0  0  0  0  0  0  0
    4.7333    1.9608  -12.6763 H   0  0  0  0  0  0  0  0  0  0  0  0
    5.8965    0.1503  -13.9172 H   0  0  0  0  0  0  0  0  0  0  0  0
   10.2549   -0.6250  -16.6205 H   0  0  0  0  0  0  0  0  0  0  0  0
   11.2584    0.7657  -16.6455 H   0  0  0  0  0  0  0  0  0  0  0  0
    9.2076    4.9770  -13.3141 H   0  0  0  0  0  0  0  0  0  0  0  0
    8.1301    5.4826  -14.5776 H   0  0  0  0  0  0  0  0  0  0  0  0
    7.4253    6.7443  -10.7281 H   0  0  0  0  0  0  0  0  0  0  0  0
  2  1  1  0
  3  2  1  0
  4  3  1  0
  5  4  1  0
  6  5  1  0
  7  6  1  0
  8  4  1  0
  9  8  1  0
 10  9  1  0
 11 10  1  0
 12 11  2  0
 13 12  1  0
 14 13  2  0
 15 14  1  0
 16 15  2  0
 17 16  1  0
 18 16  1  0
 19 14  1  0
 19 18  1  0
 20 11  1  0
 20 19  2  0
 21  8  1  0
 21 20  1  0
 22  1  1  0
 23  1  1  0
 24  1  1  0
 25  2  1  0
 26  2  1  0
 27  3  1  0
 28  3  1  0
 29  5  1  0
 30  5  1  0
 31  6  1  0
 32  6  1  0
 33  7  1  0
 34  7  1  0
 35  7  1  0
  8 36  1  6
 37  9  1  0
 38  9  1  0
 39 12  1  0
 40 13  1  0
 41 17  1  0
 42 17  1  0
 43 21  1  0
 44 21  1  0
 45  4  1  0
M  CHG  1   4   1
M  END
>  <b_m_subgroup_collapsed>  (1405) 
0

>  <r_i_docking_score>  (1405) 
-5.8545404864104604

>  <s_m_subgroup_title>  (1405) 
glide-dock_SP_D22_pv

>  <s_m_subgroupid>  (1405) 
glide-dock_SP_D22_pv

>  <Molecule ChEMBL ID>  (1405) 
CHEMBL116372

>  <Standard Type>  (1405) 
Ki

>  <Standard Value>  (1405) 
47.0

>  <label>  (1405) 
1

$$$$
CHEMBL1373
     RDKit          3D

 34 35  0  0  1  0  0  0  0  0999 V2000
    5.6860   -1.4287  -15.1454 N   0  0  0  0  0  0  0  0  0  0  0  0
    5.5778   -0.4345  -14.2651 C   0  0  0  0  0  0  0  0  0  0  0  0
    4.4855   -0.0757  -13.8314 O   0  0  0  0  0  0  0  0  0  0  0  0
    6.8601    0.2392  -13.7779 C   0  0  0  0  0  0  0  0  0  0  0  0
    7.7987    1.0424  -15.1696 S   0  0  0  0  0  0  0  0  0  0  0  0
    8.8344    0.0264  -15.6553 O   0  0  0  0  0  0  0  0  0  0  0  0
    8.7522    2.3586  -14.2464 C   0  0  0  0  0  0  0  0  0  0  0  0
    7.8712    3.4261  -13.5867 C   0  0  0  0  0  0  0  0  0  0  0  0
    8.4598    4.3057  -12.6484 C   0  0  0  0  0  0  0  0  0  0  0  0
    7.6826    5.2749  -11.9844 C   0  0  0  0  0  0  0  0  0  0  0  0
    6.3043    5.3737  -12.2476 C   0  0  0  0  0  0  0  0  0  0  0  0
    5.7071    4.5061  -13.1788 C   0  0  0  0  0  0  0  0  0  0  0  0
    6.4867    3.5470  -13.8470 C   0  0  0  0  0  0  0  0  0  0  0  0
    9.7980    2.9848  -15.1664 C   0  0  0  0  0  0  0  0  0  0  0  0
   11.1067    3.2070  -14.6863 C   0  0  0  0  0  0  0  0  0  0  0  0
   12.0776    3.8139  -15.5068 C   0  0  0  0  0  0  0  0  0  0  0  0
   11.7487    4.1995  -16.8194 C   0  0  0  0  0  0  0  0  0  0  0  0
   10.4483    3.9777  -17.3098 C   0  0  0  0  0  0  0  0  0  0  0  0
    9.4783    3.3732  -16.4872 C   0  0  0  0  0  0  0  0  0  0  0  0
    4.8526   -1.8960  -15.4734 H   0  0  0  0  0  0  0  0  0  0  0  0
    6.6050   -1.7537  -15.4470 H   0  0  0  0  0  0  0  0  0  0  0  0
    7.4969   -0.4752  -13.2591 H   0  0  0  0  0  0  0  0  0  0  0  0
    6.5599    0.9863  -13.0476 H   0  0  0  0  0  0  0  0  0  0  0  0
    9.2833    1.8385  -13.4483 H   0  0  0  0  0  0  0  0  0  0  0  0
    9.5139    4.2322  -12.4242 H   0  0  0  0  0  0  0  0  0  0  0  0
    8.1350    5.9416  -11.2640 H   0  0  0  0  0  0  0  0  0  0  0  0
    5.7109    6.1156  -11.7309 H   0  0  0  0  0  0  0  0  0  0  0  0
    4.6521    4.5723  -13.3962 H   0  0  0  0  0  0  0  0  0  0  0  0
    5.9942    2.9131  -14.5655 H   0  0  0  0  0  0  0  0  0  0  0  0
   11.3670    2.9157  -13.6809 H   0  0  0  0  0  0  0  0  0  0  0  0
   13.0751    3.9860  -15.1305 H   0  0  0  0  0  0  0  0  0  0  0  0
   12.4924    4.6655  -17.4490 H   0  0  0  0  0  0  0  0  0  0  0  0
   10.1942    4.2735  -18.3170 H   0  0  0  0  0  0  0  0  0  0  0  0
    8.4863    3.2136  -16.8793 H   0  0  0  0  0  0  0  0  0  0  0  0
  2  1  1  0
  3  2  2  0
  4  2  1  0
  5  4  1  1
  6  5  2  0
  7  5  1  0
  8  7  1  0
  9  8  2  0
 10  9  1  0
 11 10  2  0
 12 11  1  0
 13  8  1  0
 13 12  2  0
 14  7  1  0
 15 14  2  0
 16 15  1  0
 17 16  2  0
 18 17  1  0
 19 14  1  0
 19 18  2  0
 20  1  1  0
 21  1  1  0
 22  4  1  0
 23  4  1  0
 24  7  1  0
 25  9  1  0
 26 10  1  0
 27 11  1  0
 28 12  1  0
 29 13  1  0
 30 15  1  0
 31 16  1  0
 32 17  1  0
 33 18  1  0
 34 19  1  0
M  END
>  <b_m_subgroup_collapsed>  (1406) 
0

>  <r_i_docking_score>  (1406) 
-5.8543257071599299

>  <s_m_subgroup_title>  (1406) 
glide-dock_SP_D22_pv

>  <s_m_subgroupid>  (1406) 
glide-dock_SP_D22_pv

>  <Molecule ChEMBL ID>  (1406) 
CHEMBL1373

>  <Standard Type>  (1406) 
Ki

>  <Standard Value>  (1406) 
100000.0

>  <label>  (1406) 
0

$$$$
CHEMBL4159365
     RDKit          3D

 53 56  0  0  1  0  0  0  0  0999 V2000
   12.4861    9.1711   -3.1320 C   0  0  0  0  0  0  0  0  0  0  0  0
   12.2682    8.9173   -4.5078 O   0  0  0  0  0  0  0  0  0  0  0  0
   11.2380    9.5088   -5.1364 C   0  0  0  0  0  0  0  0  0  0  0  0
   10.4860   10.3341   -4.6220 O   0  0  0  0  0  0  0  0  0  0  0  0
   11.0695    9.0119   -6.5153 C   0  0  0  0  0  0  0  0  0  0  0  0
   12.1716    8.9722   -7.3900 C   0  0  0  0  0  0  0  0  0  0  0  0
   12.0260    8.4726   -8.6949 C   0  0  0  0  0  0  0  0  0  0  0  0
   10.7723    8.0016   -9.1351 C   0  0  0  0  0  0  0  0  0  0  0  0
   10.6282    7.4588  -10.4762 C   0  0  0  0  0  0  0  0  0  0  0  0
    9.6020    6.7953  -10.9936 N   0  0  0  0  0  0  0  0  0  0  0  0
    9.9634    6.5015  -12.2976 C   0  0  0  0  0  0  0  0  0  0  0  0
    9.0020    5.7457  -13.1851 C   0  0  0  0  0  0  0  0  0  0  0  0
    9.0447    4.2875  -13.3008 N   0  0  0  0  0  0  0  0  0  0  0  0
    9.8298    3.6517  -12.2581 C   0  0  0  0  0  0  0  0  0  0  0  0
    9.2901    3.7199  -14.6267 C   0  0  0  0  0  0  0  0  0  0  0  0
   10.6509    4.0733  -15.2563 C   0  0  2  0  0  0  0  0  0  0  0  0
   10.5528    5.1042  -16.4155 C   0  0  0  0  0  0  0  0  0  0  0  0
   11.4244    4.4763  -17.4442 C   0  0  0  0  0  0  0  0  0  0  0  0
   11.8633    5.0108  -18.6672 C   0  0  0  0  0  0  0  0  0  0  0  0
   12.6730    4.1947  -19.4885 C   0  0  0  0  0  0  0  0  0  0  0  0
   13.0156    2.8820  -19.0813 C   0  0  0  0  0  0  0  0  0  0  0  0
   12.5550    2.3703  -17.8470 C   0  0  0  0  0  0  0  0  0  0  0  0
   11.7603    3.1982  -17.0362 C   0  0  0  0  0  0  0  0  0  0  0  0
   11.2372    2.8822  -15.8147 O   0  0  0  0  0  0  0  0  0  0  0  0
   11.2286    7.0046  -12.5047 C   0  0  0  0  0  0  0  0  0  0  0  0
   12.1744    7.0601  -13.6567 C   0  0  0  0  0  0  0  0  0  0  0  0
   11.6576    7.6038  -11.3523 O   0  0  0  0  0  0  0  0  0  0  0  0
    9.6596    8.0635   -8.2688 C   0  0  0  0  0  0  0  0  0  0  0  0
    9.8056    8.5723   -6.9643 C   0  0  0  0  0  0  0  0  0  0  0  0
   13.2061    8.4593   -2.7284 H   0  0  0  0  0  0  0  0  0  0  0  0
   12.8855   10.1726   -2.9973 H   0  0  0  0  0  0  0  0  0  0  0  0
   11.5637    9.0792   -2.5565 H   0  0  0  0  0  0  0  0  0  0  0  0
   13.1389    9.3305   -7.0655 H   0  0  0  0  0  0  0  0  0  0  0  0
   12.8855    8.4514   -9.3496 H   0  0  0  0  0  0  0  0  0  0  0  0
    8.9951    6.1723  -14.1840 H   0  0  0  0  0  0  0  0  0  0  0  0
    7.9960    5.9573  -12.8193 H   0  0  0  0  0  0  0  0  0  0  0  0
    9.4897    3.9566  -11.2679 H   0  0  0  0  0  0  0  0  0  0  0  0
    9.7295    2.5725  -12.3308 H   0  0  0  0  0  0  0  0  0  0  0  0
   10.8833    3.9143  -12.3614 H   0  0  0  0  0  0  0  0  0  0  0  0
    8.4861    4.0114  -15.2940 H   0  0  0  0  0  0  0  0  0  0  0  0
    9.2066    2.6356  -14.5403 H   0  0  0  0  0  0  0  0  0  0  0  0
   11.3609    4.4131  -14.5068 H   0  0  0  0  0  0  0  0  0  0  0  0
   10.8956    6.0977  -16.1380 H   0  0  0  0  0  0  0  0  0  0  0  0
    9.5443    5.1890  -16.8208 H   0  0  0  0  0  0  0  0  0  0  0  0
   11.5889    6.0105  -18.9706 H   0  0  0  0  0  0  0  0  0  0  0  0
   13.0294    4.5733  -20.4353 H   0  0  0  0  0  0  0  0  0  0  0  0
   13.6331    2.2668  -19.7191 H   0  0  0  0  0  0  0  0  0  0  0  0
   12.8156    1.3726  -17.5259 H   0  0  0  0  0  0  0  0  0  0  0  0
   12.6059    6.0831  -13.8645 H   0  0  0  0  0  0  0  0  0  0  0  0
   11.6862    7.4366  -14.5531 H   0  0  0  0  0  0  0  0  0  0  0  0
   13.0038    7.7338  -13.4385 H   0  0  0  0  0  0  0  0  0  0  0  0
    8.6893    7.7158   -8.5992 H   0  0  0  0  0  0  0  0  0  0  0  0
    8.9460    8.6020   -6.3093 H   0  0  0  0  0  0  0  0  0  0  0  0
  2  1  1  0
  3  2  1  0
  4  3  2  0
  5  3  1  0
  6  5  1  0
  7  6  2  0
  8  7  1  0
  9  8  1  0
 10  9  2  0
 11 10  1  0
 12 11  1  0
 13 12  1  0
 14 13  1  0
 15 13  1  0
 16 15  1  0
 17 16  1  0
 18 17  1  0
 19 18  2  0
 20 19  1  0
 21 20  2  0
 22 21  1  0
 23 18  1  0
 23 22  2  0
 24 16  1  0
 24 23  1  0
 25 11  2  0
 26 25  1  0
 27  9  1  0
 27 25  1  0
 28  8  2  0
 29  5  2  0
 29 28  1  0
 30  1  1  0
 31  1  1  0
 32  1  1  0
 33  6  1  0
 34  7  1  0
 35 12  1  0
 36 12  1  0
 37 14  1  0
 38 14  1  0
 39 14  1  0
 40 15  1  0
 41 15  1  0
 16 42  1  1
 43 17  1  0
 44 17  1  0
 45 19  1  0
 46 20  1  0
 47 21  1  0
 48 22  1  0
 49 26  1  0
 50 26  1  0
 51 26  1  0
 52 28  1  0
 53 29  1  0
M  END
>  <b_m_subgroup_collapsed>  (1407) 
0

>  <r_i_docking_score>  (1407) 
-5.8535551950020999

>  <s_m_subgroup_title>  (1407) 
glide-dock_SP_D22_pv

>  <s_m_subgroupid>  (1407) 
glide-dock_SP_D22_pv

>  <Molecule ChEMBL ID>  (1407) 
CHEMBL4159365

>  <Standard Type>  (1407) 
Ki

>  <Standard Value>  (1407) 
10000.0

>  <label>  (1407) 
0

$$$$
CHEMBL4742201
     RDKit          3D

 46 48  0  0  1  0  0  0  0  0999 V2000
    4.5631   -4.5568  -18.7973 C   0  0  0  0  0  0  0  0  0  0  0  0
    4.8860   -4.0486  -17.4462 N   0  0  0  0  0  0  0  0  0  0  0  0
    5.6248   -5.0510  -16.6445 C   0  0  0  0  0  0  0  0  0  0  0  0
    5.5529   -2.7206  -17.4753 C   0  0  0  0  0  0  0  0  0  0  0  0
    5.3369   -1.8960  -16.1803 C   0  0  0  0  0  0  0  0  0  0  0  0
    6.0923   -0.6198  -16.1293 N   0  0  0  0  0  0  0  0  0  0  0  0
    6.3224   -0.0583  -14.9091 C   0  0  0  0  0  0  0  0  0  0  0  0
    5.8690   -0.5352  -13.8660 O   0  0  0  0  0  0  0  0  0  0  0  0
    7.0794    1.2461  -14.8115 C   0  0  0  0  0  0  0  0  0  0  0  0
    6.4818    2.3011  -14.0843 C   0  0  0  0  0  0  0  0  0  0  0  0
    7.1614    3.5094  -13.8466 C   0  0  0  0  0  0  0  0  0  0  0  0
    8.4684    3.6816  -14.3302 C   0  0  0  0  0  0  0  0  0  0  0  0
    9.0812    2.6461  -15.0552 C   0  0  0  0  0  0  0  0  0  0  0  0
    8.4092    1.4225  -15.2927 C   0  0  0  0  0  0  0  0  0  0  0  0
    9.1694    0.3737  -15.8841 N   0  0  0  0  0  0  0  0  0  0  0  0
   10.4358    0.0437  -15.2335 C   0  0  0  0  0  0  0  0  0  0  0  0
    8.9154   -0.1773  -17.0964 C   0  0  0  0  0  0  0  0  0  0  0  0
    9.6761   -0.9847  -17.6371 O   0  0  0  0  0  0  0  0  0  0  0  0
    7.6908    0.2671  -17.8468 C   0  0  0  0  0  0  0  0  0  0  0  0
    7.8740    0.8157  -19.1359 C   0  0  0  0  0  0  0  0  0  0  0  0
    6.7728    1.1654  -19.9366 C   0  0  0  0  0  0  0  0  0  0  0  0
    5.4686    0.9708  -19.4524 C   0  0  0  0  0  0  0  0  0  0  0  0
    5.2726    0.4257  -18.1719 C   0  0  0  0  0  0  0  0  0  0  0  0
    6.3693    0.0586  -17.3589 C   0  0  0  0  0  0  0  0  0  0  0  0
    5.4677   -4.7139  -19.3859 H   0  0  0  0  0  0  0  0  0  0  0  0
    3.9201   -3.8556  -19.3315 H   0  0  0  0  0  0  0  0  0  0  0  0
    4.0238   -5.5029  -18.7323 H   0  0  0  0  0  0  0  0  0  0  0  0
    6.6209   -5.2297  -17.0521 H   0  0  0  0  0  0  0  0  0  0  0  0
    5.0851   -5.9989  -16.6300 H   0  0  0  0  0  0  0  0  0  0  0  0
    5.7295   -4.7293  -15.6089 H   0  0  0  0  0  0  0  0  0  0  0  0
    6.6167   -2.8509  -17.6795 H   0  0  0  0  0  0  0  0  0  0  0  0
    5.1459   -2.1699  -18.3221 H   0  0  0  0  0  0  0  0  0  0  0  0
    4.2743   -1.6823  -16.0506 H   0  0  0  0  0  0  0  0  0  0  0  0
    5.6306   -2.5160  -15.3323 H   0  0  0  0  0  0  0  0  0  0  0  0
    5.4868    2.1790  -13.6806 H   0  0  0  0  0  0  0  0  0  0  0  0
    6.6845    4.2979  -13.2822 H   0  0  0  0  0  0  0  0  0  0  0  0
    8.9991    4.6039  -14.1432 H   0  0  0  0  0  0  0  0  0  0  0  0
   10.0951    2.7857  -15.4019 H   0  0  0  0  0  0  0  0  0  0  0  0
   11.2861    0.3648  -15.8361 H   0  0  0  0  0  0  0  0  0  0  0  0
   10.4911   -1.0275  -15.0925 H   0  0  0  0  0  0  0  0  0  0  0  0
   10.5265    0.4979  -14.2468 H   0  0  0  0  0  0  0  0  0  0  0  0
    8.8722    0.9533  -19.5271 H   0  0  0  0  0  0  0  0  0  0  0  0
    6.9289    1.5749  -20.9244 H   0  0  0  0  0  0  0  0  0  0  0  0
    4.6174    1.2290  -20.0659 H   0  0  0  0  0  0  0  0  0  0  0  0
    4.2634    0.2432  -17.8356 H   0  0  0  0  0  0  0  0  0  0  0  0
    3.9729   -3.9603  -16.9789 H   0  0  0  0  0  0  0  0  0  0  0  0
  2  1  1  0
  3  2  1  0
  4  2  1  0
  5  4  1  0
  6  5  1  0
  7  6  1  0
  8  7  2  0
  9  7  1  0
 10  9  2  0
 11 10  1  0
 12 11  2  0
 13 12  1  0
 14  9  1  0
 14 13  2  0
 15 14  1  0
 16 15  1  0
 17 15  1  0
 18 17  2  0
 19 17  1  0
 20 19  2  0
 21 20  1  0
 22 21  2  0
 23 22  1  0
 24  6  1  0
 24 19  1  0
 24 23  2  0
 25  1  1  0
 26  1  1  0
 27  1  1  0
 28  3  1  0
 29  3  1  0
 30  3  1  0
 31  4  1  0
 32  4  1  0
 33  5  1  0
 34  5  1  0
 35 10  1  0
 36 11  1  0
 37 12  1  0
 38 13  1  0
 39 16  1  0
 40 16  1  0
 41 16  1  0
 42 20  1  0
 43 21  1  0
 44 22  1  0
 45 23  1  0
 46  2  1  0
M  CHG  1   2   1
M  END
>  <b_m_subgroup_collapsed>  (1408) 
0

>  <r_i_docking_score>  (1408) 
-5.8363686023634704

>  <s_m_subgroup_title>  (1408) 
glide-dock_SP_D22_pv

>  <s_m_subgroupid>  (1408) 
glide-dock_SP_D22_pv

>  <Molecule ChEMBL ID>  (1408) 
CHEMBL4742201

>  <Standard Type>  (1408) 
Ki

>  <Standard Value>  (1408) 
65300.0

>  <label>  (1408) 
0

$$$$
CHEMBL317988
     RDKit          3D

 32 34  0  0  1  0  0  0  0  0999 V2000
    4.9523    3.2815  -12.8330 C   0  0  0  0  0  0  0  0  0  0  0  0
    6.1502    2.6407  -13.5085 C   0  0  0  0  0  0  0  0  0  0  0  0
    6.0852    1.2760  -13.8467 C   0  0  0  0  0  0  0  0  0  0  0  0
    7.1920    0.6314  -14.4246 C   0  0  0  0  0  0  0  0  0  0  0  0
    8.3948    1.3331  -14.6435 C   0  0  0  0  0  0  0  0  0  0  0  0
    9.5891    0.5542  -15.1706 C   0  0  0  0  0  0  0  0  0  0  0  0
    8.4755    2.7146  -14.3143 C   0  0  0  0  0  0  0  0  0  0  0  0
    7.3394    3.3725  -13.7629 C   0  0  0  0  0  0  0  0  0  0  0  0
    7.4155    4.8673  -13.4404 C   0  0  0  0  0  0  0  0  0  0  0  0
    8.2153    5.2060  -12.1677 C   0  0  0  0  0  0  0  0  0  0  0  0
    9.6607    4.6665  -12.1020 C   0  0  0  0  0  0  0  0  0  0  0  0
   10.2647    4.3689  -13.4523 C   0  0  0  0  0  0  0  0  0  0  0  0
   11.4128    4.8472  -14.0203 C   0  0  0  0  0  0  0  0  0  0  0  0
   11.5043    4.2676  -15.2639 N   0  0  0  0  0  0  0  0  0  0  0  0
   10.4770    3.4390  -15.5320 N   0  0  0  0  0  0  0  0  0  0  0  0
    9.7311    3.4767  -14.4333 C   0  0  0  0  0  0  0  0  0  0  0  0
    5.2523    3.7106  -11.8750 H   0  0  0  0  0  0  0  0  0  0  0  0
    4.1655    2.5493  -12.6469 H   0  0  0  0  0  0  0  0  0  0  0  0
    4.5297    4.0730  -13.4503 H   0  0  0  0  0  0  0  0  0  0  0  0
    5.1837    0.7107  -13.6613 H   0  0  0  0  0  0  0  0  0  0  0  0
    7.1256   -0.4207  -14.6669 H   0  0  0  0  0  0  0  0  0  0  0  0
   10.4720    0.7460  -14.5597 H   0  0  0  0  0  0  0  0  0  0  0  0
    9.8059    0.8431  -16.1982 H   0  0  0  0  0  0  0  0  0  0  0  0
    9.4047   -0.5205  -15.1576 H   0  0  0  0  0  0  0  0  0  0  0  0
    7.8720    5.3718  -14.2896 H   0  0  0  0  0  0  0  0  0  0  0  0
    6.4240    5.3106  -13.3635 H   0  0  0  0  0  0  0  0  0  0  0  0
    8.2510    6.2933  -12.0938 H   0  0  0  0  0  0  0  0  0  0  0  0
    7.6737    4.8765  -11.2820 H   0  0  0  0  0  0  0  0  0  0  0  0
   10.2612    5.3867  -11.5486 H   0  0  0  0  0  0  0  0  0  0  0  0
    9.6682    3.7597  -11.4959 H   0  0  0  0  0  0  0  0  0  0  0  0
   12.1557    5.5412  -13.6531 H   0  0  0  0  0  0  0  0  0  0  0  0
   12.2428    4.4364  -15.9330 H   0  0  0  0  0  0  0  0  0  0  0  0
  2  1  1  0
  3  2  1  0
  4  3  2  0
  5  4  1  0
  6  5  1  0
  7  5  2  0
  8  2  2  0
  8  7  1  0
  9  8  1  0
 10  9  1  0
 11 10  1  0
 12 11  1  0
 13 12  2  0
 14 13  1  0
 15 14  1  0
 16  7  1  0
 16 12  1  0
 16 15  2  0
 17  1  1  0
 18  1  1  0
 19  1  1  0
 20  3  1  0
 21  4  1  0
 22  6  1  0
 23  6  1  0
 24  6  1  0
 25  9  1  0
 26  9  1  0
 27 10  1  0
 28 10  1  0
 29 11  1  0
 30 11  1  0
 31 13  1  0
 32 14  1  0
M  END
>  <b_m_subgroup_collapsed>  (1409) 
0

>  <r_i_docking_score>  (1409) 
-5.8336769920986598

>  <s_m_subgroup_title>  (1409) 
glide-dock_SP_D22_pv

>  <s_m_subgroupid>  (1409) 
glide-dock_SP_D22_pv

>  <Molecule ChEMBL ID>  (1409) 
CHEMBL317988

>  <Standard Type>  (1409) 
Ki

>  <Standard Value>  (1409) 
10000.0

>  <label>  (1409) 
0

$$$$
CHEMBL1257264
     RDKit          3D

 61 65  0  0  1  0  0  0  0  0999 V2000
    6.7587   -0.1491  -20.6918 O   0  0  0  0  0  0  0  0  0  0  0  0
    5.7699   -0.4983  -20.0506 C   0  0  0  0  0  0  0  0  0  0  0  0
    4.5787   -0.9070  -20.5188 N   0  0  0  0  0  0  0  0  0  0  0  0
    3.6060   -1.2233  -19.4626 C   0  0  0  0  0  0  0  0  0  0  0  0
    4.3921   -0.9471  -18.2158 C   0  0  0  0  0  0  0  0  0  0  0  0
    3.9922   -1.0277  -16.8765 C   0  0  0  0  0  0  0  0  0  0  0  0
    4.9363   -0.6615  -15.8940 C   0  0  0  0  0  0  0  0  0  0  0  0
    4.4339   -0.6285  -14.2465 Cl  0  0  0  0  0  0  0  0  0  0  0  0
    6.2671   -0.2986  -16.2447 C   0  0  0  0  0  0  0  0  0  0  0  0
    7.1500   -0.0771  -15.2096 O   0  0  0  0  0  0  0  0  0  0  0  0
    8.5451   -0.0050  -15.4925 C   0  0  0  0  0  0  0  0  0  0  0  0
    8.9608    1.4614  -15.6469 C   0  0  0  0  0  0  0  0  0  0  0  0
    8.6844    2.2285  -14.3493 C   0  0  0  0  0  0  0  0  0  0  0  0
    9.1664    3.6820  -14.3790 C   0  0  0  0  0  0  0  0  0  0  0  0
    8.8042    4.3939  -13.1293 N   0  0  0  0  0  0  0  0  0  0  0  0
    9.6880    4.0413  -11.9937 C   0  0  0  0  0  0  0  0  0  0  0  0
    9.1911    4.6848  -10.6931 C   0  0  0  0  0  0  0  0  0  0  0  0
    9.0559    6.1211  -10.8644 N   0  0  0  0  0  0  0  0  0  0  0  0
   10.0846    6.9111  -10.3274 C   0  0  0  0  0  0  0  0  0  0  0  0
   11.0700    7.4571  -11.1782 C   0  0  0  0  0  0  0  0  0  0  0  0
   12.1464    8.1848  -10.6472 C   0  0  0  0  0  0  0  0  0  0  0  0
   12.2344    8.4056   -9.2636 C   0  0  0  0  0  0  0  0  0  0  0  0
   11.2498    7.8950   -8.4026 C   0  0  0  0  0  0  0  0  0  0  0  0
   11.3449    8.1443   -7.0196 C   0  0  0  0  0  0  0  0  0  0  0  0
   10.3988    7.5983   -6.1383 C   0  0  0  0  0  0  0  0  0  0  0  0
    9.3365    6.8326   -6.6474 C   0  0  0  0  0  0  0  0  0  0  0  0
    9.2170    6.6095   -8.0288 C   0  0  0  0  0  0  0  0  0  0  0  0
   10.1763    7.1299   -8.9266 C   0  0  0  0  0  0  0  0  0  0  0  0
    8.3174    6.5898  -12.0307 C   0  0  0  0  0  0  0  0  0  0  0  0
    8.7599    5.8604  -13.3142 C   0  0  0  0  0  0  0  0  0  0  0  0
    6.6279   -0.2031  -17.6174 C   0  0  0  0  0  0  0  0  0  0  0  0
    5.6569   -0.5292  -18.5747 C   0  0  0  0  0  0  0  0  0  0  0  0
    4.3399   -0.9636  -21.5015 H   0  0  0  0  0  0  0  0  0  0  0  0
    3.2869   -2.2650  -19.5060 H   0  0  0  0  0  0  0  0  0  0  0  0
    2.7448   -0.5610  -19.5152 H   0  0  0  0  0  0  0  0  0  0  0  0
    2.9878   -1.3246  -16.6093 H   0  0  0  0  0  0  0  0  0  0  0  0
    9.0779   -0.4353  -14.6473 H   0  0  0  0  0  0  0  0  0  0  0  0
    8.8493   -0.6182  -16.3416 H   0  0  0  0  0  0  0  0  0  0  0  0
   10.0237    1.5107  -15.8848 H   0  0  0  0  0  0  0  0  0  0  0  0
    8.4299    1.9211  -16.4798 H   0  0  0  0  0  0  0  0  0  0  0  0
    7.6144    2.2058  -14.1368 H   0  0  0  0  0  0  0  0  0  0  0  0
    9.1686    1.6960  -13.5334 H   0  0  0  0  0  0  0  0  0  0  0  0
   10.2456    3.7297  -14.5421 H   0  0  0  0  0  0  0  0  0  0  0  0
    8.7093    4.1823  -15.2318 H   0  0  0  0  0  0  0  0  0  0  0  0
    9.7295    2.9723  -11.8479 H   0  0  0  0  0  0  0  0  0  0  0  0
   10.6983    4.3637  -12.2456 H   0  0  0  0  0  0  0  0  0  0  0  0
    8.2169    4.2801  -10.4142 H   0  0  0  0  0  0  0  0  0  0  0  0
    9.8723    4.4488   -9.8737 H   0  0  0  0  0  0  0  0  0  0  0  0
   11.0315    7.3044  -12.2440 H   0  0  0  0  0  0  0  0  0  0  0  0
   12.9049    8.5876  -11.3028 H   0  0  0  0  0  0  0  0  0  0  0  0
   13.0635    8.9721   -8.8666 H   0  0  0  0  0  0  0  0  0  0  0  0
   12.1533    8.7416   -6.6263 H   0  0  0  0  0  0  0  0  0  0  0  0
   10.4861    7.7680   -5.0752 H   0  0  0  0  0  0  0  0  0  0  0  0
    8.6055    6.4028   -5.9821 H   0  0  0  0  0  0  0  0  0  0  0  0
    8.3695    6.0408   -8.3841 H   0  0  0  0  0  0  0  0  0  0  0  0
    7.2580    6.4066  -11.8477 H   0  0  0  0  0  0  0  0  0  0  0  0
    8.4212    7.6700  -12.1431 H   0  0  0  0  0  0  0  0  0  0  0  0
    9.7602    6.1722  -13.6089 H   0  0  0  0  0  0  0  0  0  0  0  0
    8.0891    6.1226  -14.1296 H   0  0  0  0  0  0  0  0  0  0  0  0
    7.6077    0.1050  -17.9493 H   0  0  0  0  0  0  0  0  0  0  0  0
    7.8680    4.1121  -12.8750 H   0  0  0  0  0  0  0  0  0  0  0  0
  2  1  2  0
  3  2  1  0
  4  3  1  0
  5  4  1  0
  6  5  1  0
  7  6  2  0
  8  7  1  0
  9  7  1  0
 10  9  1  0
 11 10  1  0
 12 11  1  0
 13 12  1  0
 14 13  1  0
 15 14  1  0
 16 15  1  0
 17 16  1  0
 18 17  1  0
 19 18  1  0
 20 19  2  0
 21 20  1  0
 22 21  2  0
 23 22  1  0
 24 23  2  0
 25 24  1  0
 26 25  2  0
 27 26  1  0
 28 19  1  0
 28 23  1  0
 28 27  2  0
 29 18  1  0
 30 15  1  0
 30 29  1  0
 31  9  2  0
 32  2  1  0
 32  5  2  0
 32 31  1  0
 33  3  1  0
 34  4  1  0
 35  4  1  0
 36  6  1  0
 37 11  1  0
 38 11  1  0
 39 12  1  0
 40 12  1  0
 41 13  1  0
 42 13  1  0
 43 14  1  0
 44 14  1  0
 45 16  1  0
 46 16  1  0
 47 17  1  0
 48 17  1  0
 49 20  1  0
 50 21  1  0
 51 22  1  0
 52 24  1  0
 53 25  1  0
 54 26  1  0
 55 27  1  0
 56 29  1  0
 57 29  1  0
 58 30  1  0
 59 30  1  0
 60 31  1  0
 61 15  1  0
M  CHG  1  15   1
M  END
>  <b_m_subgroup_collapsed>  (1410) 
0

>  <r_i_docking_score>  (1410) 
-5.8324775801523696

>  <s_m_subgroup_title>  (1410) 
glide-dock_SP_D22_pv

>  <s_m_subgroupid>  (1410) 
glide-dock_SP_D22_pv

>  <Molecule ChEMBL ID>  (1410) 
CHEMBL1257264

>  <Standard Type>  (1410) 
Ki

>  <Standard Value>  (1410) 
9.31

>  <label>  (1410) 
1

$$$$
CHEMBL201788
     RDKit          3D

 62 65  0  0  1  0  0  0  0  0999 V2000
    9.6919    1.3714  -21.3952 C   0  0  0  0  0  0  0  0  0  0  0  0
    8.5221    1.2638  -20.5985 O   0  0  0  0  0  0  0  0  0  0  0  0
    8.6548    1.2817  -19.2255 C   0  0  0  0  0  0  0  0  0  0  0  0
    9.8913    1.4356  -18.5546 C   0  0  0  0  0  0  0  0  0  0  0  0
    9.9696    1.4706  -17.1469 C   0  0  0  0  0  0  0  0  0  0  0  0
    8.7798    1.3305  -16.3833 C   0  0  0  0  0  0  0  0  0  0  0  0
    7.5510    1.1576  -17.0575 C   0  0  0  0  0  0  0  0  0  0  0  0
    7.4741    1.1392  -18.4703 C   0  0  0  0  0  0  0  0  0  0  0  0
    6.2970    0.9936  -19.1728 O   0  0  0  0  0  0  0  0  0  0  0  0
    5.0769    0.8836  -18.4535 C   0  0  0  0  0  0  0  0  0  0  0  0
    8.7499    1.3299  -14.8551 C   0  0  0  0  0  0  0  0  0  0  0  0
    8.2021    2.6193  -14.2465 C   0  0  0  0  0  0  0  0  0  0  0  0
    6.7987    2.7293  -14.1167 C   0  0  0  0  0  0  0  0  0  0  0  0
    6.2068    3.8431  -13.4942 C   0  0  0  0  0  0  0  0  0  0  0  0
    7.0163    4.8797  -13.0074 C   0  0  0  0  0  0  0  0  0  0  0  0
    8.4125    4.7916  -13.1348 C   0  0  0  0  0  0  0  0  0  0  0  0
    9.0238    3.6689  -13.7398 C   0  0  0  0  0  0  0  0  0  0  0  0
   10.5481    3.6288  -13.7331 C   0  0  0  0  0  0  0  0  0  0  0  0
   11.1999    4.5500  -14.7780 C   0  0  0  0  0  0  0  0  0  0  0  0
   10.9115    4.1379  -16.1807 N   0  0  1  0  0  0  0  0  0  0  0  0
   10.7904    5.3113  -17.0912 C   0  0  0  0  0  0  0  0  0  0  0  0
    9.9966    4.9975  -18.3776 C   0  0  0  0  0  0  0  0  0  0  0  0
    9.8357    6.2017  -19.2939 C   0  0  0  0  0  0  0  0  0  0  0  0
    8.5567    6.5682  -19.7649 C   0  0  0  0  0  0  0  0  0  0  0  0
    8.4074    7.6574  -20.6467 C   0  0  0  0  0  0  0  0  0  0  0  0
    9.5343    8.3968  -21.0475 C   0  0  0  0  0  0  0  0  0  0  0  0
   10.8123    8.0396  -20.5806 C   0  0  0  0  0  0  0  0  0  0  0  0
   10.9635    6.9404  -19.7139 C   0  0  0  0  0  0  0  0  0  0  0  0
   11.8673    3.1114  -16.6954 C   0  0  0  0  0  0  0  0  0  0  0  0
   11.3505    1.6728  -16.5297 C   0  0  0  0  0  0  0  0  0  0  0  0
    9.4131    1.3136  -22.4478 H   0  0  0  0  0  0  0  0  0  0  0  0
   10.3887    0.5575  -21.1949 H   0  0  0  0  0  0  0  0  0  0  0  0
   10.1942    2.3285  -21.2412 H   0  0  0  0  0  0  0  0  0  0  0  0
   10.8085    1.5410  -19.1161 H   0  0  0  0  0  0  0  0  0  0  0  0
    6.6603    1.0336  -16.4636 H   0  0  0  0  0  0  0  0  0  0  0  0
    4.2520    0.7791  -19.1578 H   0  0  0  0  0  0  0  0  0  0  0  0
    4.8891    1.7730  -17.8560 H   0  0  0  0  0  0  0  0  0  0  0  0
    5.0704    0.0055  -17.8066 H   0  0  0  0  0  0  0  0  0  0  0  0
    8.0792    0.5247  -14.5552 H   0  0  0  0  0  0  0  0  0  0  0  0
    9.6825    1.0236  -14.3977 H   0  0  0  0  0  0  0  0  0  0  0  0
    6.1572    1.9343  -14.4648 H   0  0  0  0  0  0  0  0  0  0  0  0
    5.1341    3.9004  -13.3899 H   0  0  0  0  0  0  0  0  0  0  0  0
    6.5691    5.7340  -12.5153 H   0  0  0  0  0  0  0  0  0  0  0  0
    9.0203    5.5902  -12.7311 H   0  0  0  0  0  0  0  0  0  0  0  0
   10.8623    3.9750  -12.7475 H   0  0  0  0  0  0  0  0  0  0  0  0
   10.9385    2.6189  -13.7936 H   0  0  0  0  0  0  0  0  0  0  0  0
   10.8355    5.5607  -14.5899 H   0  0  0  0  0  0  0  0  0  0  0  0
   12.2765    4.6048  -14.6144 H   0  0  0  0  0  0  0  0  0  0  0  0
   10.2647    6.1193  -16.5868 H   0  0  0  0  0  0  0  0  0  0  0  0
   11.7868    5.6882  -17.3169 H   0  0  0  0  0  0  0  0  0  0  0  0
   10.4813    4.2213  -18.9648 H   0  0  0  0  0  0  0  0  0  0  0  0
    9.0120    4.6089  -18.1130 H   0  0  0  0  0  0  0  0  0  0  0  0
    7.6857    6.0080  -19.4609 H   0  0  0  0  0  0  0  0  0  0  0  0
    7.4253    7.9272  -21.0095 H   0  0  0  0  0  0  0  0  0  0  0  0
    9.4212    9.2353  -21.7194 H   0  0  0  0  0  0  0  0  0  0  0  0
   11.6805    8.6021  -20.8946 H   0  0  0  0  0  0  0  0  0  0  0  0
   11.9551    6.6692  -19.3813 H   0  0  0  0  0  0  0  0  0  0  0  0
   12.0577    3.2722  -17.7561 H   0  0  0  0  0  0  0  0  0  0  0  0
   12.8465    3.2130  -16.2260 H   0  0  0  0  0  0  0  0  0  0  0  0
   11.4032    1.3589  -15.4957 H   0  0  0  0  0  0  0  0  0  0  0  0
   12.0418    1.0015  -17.0402 H   0  0  0  0  0  0  0  0  0  0  0  0
    9.9959    3.7092  -16.1660 H   0  0  0  0  0  0  0  0  0  0  0  0
  2  1  1  0
  3  2  1  0
  4  3  2  0
  5  4  1  0
  6  5  2  0
  7  6  1  0
  8  3  1  0
  8  7  2  0
  9  8  1  0
 10  9  1  0
 11  6  1  0
 12 11  1  0
 13 12  2  0
 14 13  1  0
 15 14  2  0
 16 15  1  0
 17 12  1  0
 17 16  2  0
 18 17  1  0
 19 18  1  0
 20 19  1  0
 21 20  1  0
 22 21  1  0
 23 22  1  0
 24 23  2  0
 25 24  1  0
 26 25  2  0
 27 26  1  0
 28 23  1  0
 28 27  2  0
 29 20  1  0
 30  5  1  0
 30 29  1  0
 31  1  1  0
 32  1  1  0
 33  1  1  0
 34  4  1  0
 35  7  1  0
 36 10  1  0
 37 10  1  0
 38 10  1  0
 39 11  1  0
 40 11  1  0
 41 13  1  0
 42 14  1  0
 43 15  1  0
 44 16  1  0
 45 18  1  0
 46 18  1  0
 47 19  1  0
 48 19  1  0
 49 21  1  0
 50 21  1  0
 51 22  1  0
 52 22  1  0
 53 24  1  0
 54 25  1  0
 55 26  1  0
 56 27  1  0
 57 28  1  0
 58 29  1  0
 59 29  1  0
 60 30  1  0
 61 30  1  0
 20 62  1  1
M  CHG  1  20   1
M  END
>  <b_m_subgroup_collapsed>  (1411) 
0

>  <r_i_docking_score>  (1411) 
-5.8324583700015999

>  <s_m_subgroup_title>  (1411) 
glide-dock_SP_D22_pv

>  <s_m_subgroupid>  (1411) 
glide-dock_SP_D22_pv

>  <Molecule ChEMBL ID>  (1411) 
CHEMBL201788

>  <Standard Type>  (1411) 
Ki

>  <Standard Value>  (1411) 
10000.0

>  <label>  (1411) 
0

$$$$
CHEMBL609151
     RDKit          3D

 37 40  0  0  1  0  0  0  0  0999 V2000
   10.8687    1.0571  -15.3210 C   0  0  0  0  0  0  0  0  0  0  0  0
   10.2077    2.0624  -16.1504 N   0  0  0  0  0  0  0  0  0  0  0  0
    9.3219    1.4187  -17.1289 C   0  0  0  0  0  0  0  0  0  0  0  0
    8.1602    0.6230  -16.4701 C   0  0  2  0  0  0  0  0  0  0  0  0
    7.1037    0.2252  -17.5092 C   0  0  0  0  0  0  0  0  0  0  0  0
    6.6332   -1.0225  -17.4458 N   0  0  0  0  0  0  0  0  0  0  0  0
    6.6822    1.0409  -18.3283 O   0  0  0  0  0  0  0  0  0  0  0  0
    7.5530    1.4070  -15.3292 C   0  0  0  0  0  0  0  0  0  0  0  0
    8.1122    2.5282  -14.8382 C   0  0  0  0  0  0  0  0  0  0  0  0
    7.4484    3.3773  -13.8469 C   0  0  0  0  0  0  0  0  0  0  0  0
    6.0929    3.2733  -13.4682 C   0  0  0  0  0  0  0  0  0  0  0  0
    5.5227    4.2297  -12.6164 C   0  0  0  0  0  0  0  0  0  0  0  0
    6.2978    5.2923  -12.1327 C   0  0  0  0  0  0  0  0  0  0  0  0
    7.6351    5.3734  -12.4471 C   0  0  0  0  0  0  0  0  0  0  0  0
    8.5864    6.2855  -12.0905 N   0  0  0  0  0  0  0  0  0  0  0  0
    9.7742    5.9424  -12.7083 C   0  0  0  0  0  0  0  0  0  0  0  0
   11.3746    6.9693  -12.6455 Br  0  0  0  0  0  0  0  0  0  0  0  0
    9.5496    4.8078  -13.4374 C   0  0  0  0  0  0  0  0  0  0  0  0
    8.1980    4.4276  -13.2902 C   0  0  0  0  0  0  0  0  0  0  0  0
   10.3104    3.8447  -14.3242 C   0  0  0  0  0  0  0  0  0  0  0  0
    9.4502    3.0616  -15.3752 C   0  0  1  0  0  0  0  0  0  0  0  0
   11.6843    1.5194  -14.7672 H   0  0  0  0  0  0  0  0  0  0  0  0
   11.3019    0.2717  -15.9402 H   0  0  0  0  0  0  0  0  0  0  0  0
   10.1912    0.5953  -14.6028 H   0  0  0  0  0  0  0  0  0  0  0  0
    8.9265    2.1989  -17.7838 H   0  0  0  0  0  0  0  0  0  0  0  0
    9.9092    0.7578  -17.7675 H   0  0  0  0  0  0  0  0  0  0  0  0
    8.5640   -0.2911  -16.0355 H   0  0  0  0  0  0  0  0  0  0  0  0
    6.9954   -1.6696  -16.7499 H   0  0  0  0  0  0  0  0  0  0  0  0
    5.8915   -1.3094  -18.0667 H   0  0  0  0  0  0  0  0  0  0  0  0
    6.6060    1.0407  -14.9631 H   0  0  0  0  0  0  0  0  0  0  0  0
    5.4641    2.4867  -13.8526 H   0  0  0  0  0  0  0  0  0  0  0  0
    4.4862    4.1690  -12.3436 H   0  0  0  0  0  0  0  0  0  0  0  0
    5.8585    6.0359  -11.4825 H   0  0  0  0  0  0  0  0  0  0  0  0
    8.4158    7.0824  -11.4883 H   0  0  0  0  0  0  0  0  0  0  0  0
   11.1020    4.3836  -14.8449 H   0  0  0  0  0  0  0  0  0  0  0  0
   10.8146    3.1450  -13.6592 H   0  0  0  0  0  0  0  0  0  0  0  0
    9.1472    3.8250  -16.0957 H   0  0  0  0  0  0  0  0  0  0  0  0
  2  1  1  0
  3  2  1  0
  4  3  1  0
  5  4  1  0
  6  5  1  0
  7  5  2  0
  8  4  1  0
  9  8  2  0
 10  9  1  0
 11 10  1  0
 12 11  2  0
 13 12  1  0
 14 13  2  0
 15 14  1  0
 16 15  1  0
 17 16  1  0
 18 16  2  0
 19 10  2  0
 19 14  1  0
 19 18  1  0
 20 18  1  0
 21  2  1  0
 21  9  1  0
 21 20  1  0
 22  1  1  0
 23  1  1  0
 24  1  1  0
 25  3  1  0
 26  3  1  0
  4 27  1  1
 28  6  1  0
 29  6  1  0
 30  8  1  0
 31 11  1  0
 32 12  1  0
 33 13  1  0
 34 15  1  0
 35 20  1  0
 36 20  1  0
 21 37  1  6
M  END
>  <b_m_subgroup_collapsed>  (1412) 
0

>  <r_i_docking_score>  (1412) 
-5.8290914029990404

>  <s_m_subgroup_title>  (1412) 
glide-dock_SP_D22_pv

>  <s_m_subgroupid>  (1412) 
glide-dock_SP_D22_pv

>  <Molecule ChEMBL ID>  (1412) 
CHEMBL609151

>  <Standard Type>  (1412) 
Ki

>  <Standard Value>  (1412) 
2.0

>  <label>  (1412) 
1

$$$$
CHEMBL553082
     RDKit          3D

 44 47  0  0  1  0  0  0  0  0999 V2000
   12.5393    9.0994   -1.2645 C   0  0  0  0  0  0  0  0  0  0  0  0
   12.2368    8.8624   -2.6964 C   0  0  0  0  0  0  0  0  0  0  0  0
   11.6859    9.7718   -3.6328 C   0  0  0  0  0  0  0  0  0  0  0  0
   11.6565    9.0590   -4.7925 C   0  0  0  0  0  0  0  0  0  0  0  0
   11.2493    9.4351   -6.1836 C   0  0  0  0  0  0  0  0  0  0  0  0
   10.5474    8.3830   -6.9136 N   0  0  0  0  0  0  0  0  0  0  0  0
   11.4670    7.3513   -7.4093 C   0  0  0  0  0  0  0  0  0  0  0  0
   10.6439    6.2063   -7.9936 C   0  0  0  0  0  0  0  0  0  0  0  0
    9.8237    6.6939   -9.1957 C   0  0  0  0  0  0  0  0  0  0  0  0
    8.9812    7.8915   -8.7409 C   0  0  0  0  0  0  0  0  0  0  0  0
    9.8547    8.9584   -8.0675 C   0  0  0  0  0  0  0  0  0  0  0  0
   10.6113    7.1345  -10.3027 O   0  0  0  0  0  0  0  0  0  0  0  0
   10.0867    6.5701  -11.4363 C   0  0  0  0  0  0  0  0  0  0  0  0
    9.1047    5.6787  -11.2504 C   0  0  0  0  0  0  0  0  0  0  0  0
    8.4784    4.8250  -12.2732 C   0  0  0  0  0  0  0  0  0  0  0  0
    9.2603    4.2768  -13.3115 C   0  0  0  0  0  0  0  0  0  0  0  0
    8.6647    3.4513  -14.2854 C   0  0  0  0  0  0  0  0  0  0  0  0
    7.2800    3.1961  -14.2451 C   0  0  0  0  0  0  0  0  0  0  0  0
    6.4905    3.7662  -13.2241 C   0  0  0  0  0  0  0  0  0  0  0  0
    7.0907    4.5722  -12.2354 C   0  0  0  0  0  0  0  0  0  0  0  0
    8.9996    5.5696   -9.8077 C   0  0  0  0  0  0  0  0  0  0  0  0
    8.4860    4.6627   -9.1572 O   0  0  0  0  0  0  0  0  0  0  0  0
   12.0857    7.7925   -4.5560 O   0  0  0  0  0  0  0  0  0  0  0  0
   12.4807    7.6802   -3.2227 N   0  0  0  0  0  0  0  0  0  0  0  0
   12.4856   10.1633   -1.0380 H   0  0  0  0  0  0  0  0  0  0  0  0
   11.8181    8.5728   -0.6466 H   0  0  0  0  0  0  0  0  0  0  0  0
   13.5395    8.7540   -1.0069 H   0  0  0  0  0  0  0  0  0  0  0  0
   11.3727   10.7892   -3.4732 H   0  0  0  0  0  0  0  0  0  0  0  0
   12.1221    9.7641   -6.7509 H   0  0  0  0  0  0  0  0  0  0  0  0
   10.5934   10.3029   -6.1058 H   0  0  0  0  0  0  0  0  0  0  0  0
   12.0854    6.9284   -6.6271 H   0  0  0  0  0  0  0  0  0  0  0  0
   12.1500    7.7616   -8.1551 H   0  0  0  0  0  0  0  0  0  0  0  0
    9.9746    5.8236   -7.2204 H   0  0  0  0  0  0  0  0  0  0  0  0
   11.2856    5.3729   -8.2473 H   0  0  0  0  0  0  0  0  0  0  0  0
    8.4861    8.3447   -9.5969 H   0  0  0  0  0  0  0  0  0  0  0  0
    8.2148    7.5651   -8.0376 H   0  0  0  0  0  0  0  0  0  0  0  0
    9.2060    9.7720   -7.7521 H   0  0  0  0  0  0  0  0  0  0  0  0
   10.5715    9.3719   -8.7790 H   0  0  0  0  0  0  0  0  0  0  0  0
   10.5463    6.8870  -12.3592 H   0  0  0  0  0  0  0  0  0  0  0  0
   10.3230    4.4653  -13.3546 H   0  0  0  0  0  0  0  0  0  0  0  0
    9.2692    3.0147  -15.0652 H   0  0  0  0  0  0  0  0  0  0  0  0
    6.8219    2.5653  -14.9934 H   0  0  0  0  0  0  0  0  0  0  0  0
    5.4283    3.5775  -13.1932 H   0  0  0  0  0  0  0  0  0  0  0  0
    6.4837    4.9994  -11.4480 H   0  0  0  0  0  0  0  0  0  0  0  0
  2  1  1  0
  3  2  1  0
  4  3  2  0
  5  4  1  0
  6  5  1  0
  7  6  1  0
  8  7  1  0
  9  8  1  0
 10  9  1  0
 11  6  1  0
 11 10  1  0
 12  9  1  0
 13 12  1  0
 14 13  2  0
 15 14  1  0
 16 15  2  0
 17 16  1  0
 18 17  2  0
 19 18  1  0
 20 15  1  0
 20 19  2  0
 21  9  1  0
 21 14  1  0
 22 21  2  0
 23  4  1  0
 24  2  2  0
 24 23  1  0
 25  1  1  0
 26  1  1  0
 27  1  1  0
 28  3  1  0
 29  5  1  0
 30  5  1  0
 31  7  1  0
 32  7  1  0
 33  8  1  0
 34  8  1  0
 35 10  1  0
 36 10  1  0
 37 11  1  0
 38 11  1  0
 39 13  1  0
 40 16  1  0
 41 17  1  0
 42 18  1  0
 43 19  1  0
 44 20  1  0
M  END
>  <b_m_subgroup_collapsed>  (1413) 
0

>  <r_i_docking_score>  (1413) 
-5.8259845021791499

>  <s_m_subgroup_title>  (1413) 
glide-dock_SP_D22_pv

>  <s_m_subgroupid>  (1413) 
glide-dock_SP_D22_pv

>  <Molecule ChEMBL ID>  (1413) 
CHEMBL553082

>  <Standard Type>  (1413) 
Ki

>  <Standard Value>  (1413) 
32000.0

>  <label>  (1413) 
0

$$$$
CHEMBL433012
     RDKit          3D

 36 39  0  0  1  0  0  0  0  0999 V2000
    7.8392    0.7456  -14.8892 Cl  0  0  0  0  0  0  0  0  0  0  0  0
    7.9529    2.3375  -14.2482 C   0  0  0  0  0  0  0  0  0  0  0  0
    6.4874    3.1264  -13.7756 S   0  0  0  0  0  0  0  0  0  0  0  0
    7.4068    4.5065  -13.2533 C   0  0  0  0  0  0  0  0  0  0  0  0
    6.4671    5.8072  -12.6468 Cl  0  0  0  0  0  0  0  0  0  0  0  0
    8.7691    4.3858  -13.4565 C   0  0  0  0  0  0  0  0  0  0  0  0
    9.0729    3.1016  -14.0352 C   0  0  0  0  0  0  0  0  0  0  0  0
   10.4734    2.6297  -14.3388 C   0  0  0  0  0  0  0  0  0  0  0  0
   11.1942    3.3851  -15.4711 C   0  0  0  0  0  0  0  0  0  0  0  0
   11.1259    4.9276  -15.4470 C   0  0  0  0  0  0  0  0  0  0  0  0
   10.9075    5.5478  -14.0887 C   0  0  0  0  0  0  0  0  0  0  0  0
   11.6860    6.5463  -13.4458 C   0  0  0  0  0  0  0  0  0  0  0  0
   11.1295    6.9720  -12.3277 N   0  0  0  0  0  0  0  0  0  0  0  0
    9.9992    6.2378  -12.1681 N   0  0  0  0  0  0  0  0  0  0  0  0
    9.0915    6.5340  -11.0549 C   0  0  0  0  0  0  0  0  0  0  0  0
    9.7079    6.9628   -9.7216 C   0  0  0  0  0  0  0  0  0  0  0  0
   10.5358    8.1055   -9.6155 C   0  0  0  0  0  0  0  0  0  0  0  0
   11.0413    8.5113   -8.3659 C   0  0  0  0  0  0  0  0  0  0  0  0
   10.6917    7.8048   -7.2016 C   0  0  0  0  0  0  0  0  0  0  0  0
    9.8356    6.6923   -7.2909 C   0  0  0  0  0  0  0  0  0  0  0  0
    9.3493    6.2689   -8.5441 C   0  0  0  0  0  0  0  0  0  0  0  0
    9.8492    5.3577  -13.2413 C   0  0  0  0  0  0  0  0  0  0  0  0
   11.0829    2.7251  -13.4467 H   0  0  0  0  0  0  0  0  0  0  0  0
   10.4852    1.5634  -14.5643 H   0  0  0  0  0  0  0  0  0  0  0  0
   12.2415    3.0833  -15.4452 H   0  0  0  0  0  0  0  0  0  0  0  0
   10.8203    3.0393  -16.4353 H   0  0  0  0  0  0  0  0  0  0  0  0
   12.0238    5.3285  -15.9185 H   0  0  0  0  0  0  0  0  0  0  0  0
   10.3104    5.2341  -16.1028 H   0  0  0  0  0  0  0  0  0  0  0  0
   12.6042    7.0070  -13.7805 H   0  0  0  0  0  0  0  0  0  0  0  0
    8.4304    7.3358  -11.3816 H   0  0  0  0  0  0  0  0  0  0  0  0
    8.4771    5.6535  -10.8723 H   0  0  0  0  0  0  0  0  0  0  0  0
   10.7850    8.6862  -10.4908 H   0  0  0  0  0  0  0  0  0  0  0  0
   11.6869    9.3730   -8.3020 H   0  0  0  0  0  0  0  0  0  0  0  0
   11.0656    8.1235   -6.2399 H   0  0  0  0  0  0  0  0  0  0  0  0
    9.5435    6.1728   -6.3917 H   0  0  0  0  0  0  0  0  0  0  0  0
    8.6757    5.4251   -8.5923 H   0  0  0  0  0  0  0  0  0  0  0  0
  2  1  1  0
  3  2  1  0
  4  3  1  0
  5  4  1  0
  6  4  2  0
  7  2  2  0
  7  6  1  0
  8  7  1  0
  9  8  1  0
 10  9  1  0
 11 10  1  0
 12 11  1  0
 13 12  2  0
 14 13  1  0
 15 14  1  0
 16 15  1  0
 17 16  2  0
 18 17  1  0
 19 18  2  0
 20 19  1  0
 21 16  1  0
 21 20  2  0
 22  6  1  0
 22 11  2  0
 22 14  1  0
 23  8  1  0
 24  8  1  0
 25  9  1  0
 26  9  1  0
 27 10  1  0
 28 10  1  0
 29 12  1  0
 30 15  1  0
 31 15  1  0
 32 17  1  0
 33 18  1  0
 34 19  1  0
 35 20  1  0
 36 21  1  0
M  END
>  <b_m_subgroup_collapsed>  (1414) 
0

>  <r_i_docking_score>  (1414) 
-5.8232997230569801

>  <s_m_subgroup_title>  (1414) 
glide-dock_SP_D22_pv

>  <s_m_subgroupid>  (1414) 
glide-dock_SP_D22_pv

>  <Molecule ChEMBL ID>  (1414) 
CHEMBL433012

>  <Standard Type>  (1414) 
Ki

>  <Standard Value>  (1414) 
10000.0

>  <label>  (1414) 
0

$$$$
CHEMBL544118
     RDKit          3D

 39 41  0  0  1  0  0  0  0  0999 V2000
    9.2608    6.1200  -10.5417 C   0  0  0  0  0  0  0  0  0  0  0  0
    8.7315    5.6939  -11.8600 N   0  0  2  0  0  0  0  0  0  0  0  0
    7.5653    4.7933  -11.6960 C   0  0  0  0  0  0  0  0  0  0  0  0
    6.8090    4.4820  -12.9928 C   0  0  0  0  0  0  0  0  0  0  0  0
    7.4557    3.3467  -13.7808 C   0  0  0  0  0  0  0  0  0  0  0  0
    6.7968    2.0861  -13.8486 C   0  0  0  0  0  0  0  0  0  0  0  0
    5.2845    1.7947  -13.0476 Cl  0  0  0  0  0  0  0  0  0  0  0  0
    7.4243    1.0017  -14.4914 C   0  0  0  0  0  0  0  0  0  0  0  0
    6.8395   -0.2269  -14.5823 O   0  0  0  0  0  0  0  0  0  0  0  0
    8.7190    1.1384  -15.0041 C   0  0  0  0  0  0  0  0  0  0  0  0
    9.3117    0.0399  -15.5726 O   0  0  0  0  0  0  0  0  0  0  0  0
    9.4081    2.3663  -14.9010 C   0  0  0  0  0  0  0  0  0  0  0  0
   11.0581    2.3531  -15.4367 Cl  0  0  0  0  0  0  0  0  0  0  0  0
    8.7623    3.5127  -14.3295 C   0  0  0  0  0  0  0  0  0  0  0  0
    9.4260    4.9095  -14.2178 C   0  0  2  0  0  0  0  0  0  0  0  0
   10.5131    5.2339  -15.2543 C   0  0  0  0  0  0  0  0  0  0  0  0
   10.1437    5.3716  -16.6128 C   0  0  0  0  0  0  0  0  0  0  0  0
   11.1040    5.6987  -17.5892 C   0  0  0  0  0  0  0  0  0  0  0  0
   12.4484    5.8890  -17.2220 C   0  0  0  0  0  0  0  0  0  0  0  0
   12.8365    5.7391  -15.8766 C   0  0  0  0  0  0  0  0  0  0  0  0
   11.8767    5.4120  -14.8993 C   0  0  0  0  0  0  0  0  0  0  0  0
    9.8338    5.2463  -12.7578 C   0  0  0  0  0  0  0  0  0  0  0  0
    9.6729    5.2698   -9.9940 H   0  0  0  0  0  0  0  0  0  0  0  0
    8.4829    6.5719   -9.9280 H   0  0  0  0  0  0  0  0  0  0  0  0
   10.0503    6.8651  -10.6538 H   0  0  0  0  0  0  0  0  0  0  0  0
    7.8373    3.8773  -11.1749 H   0  0  0  0  0  0  0  0  0  0  0  0
    6.8735    5.3259  -11.0469 H   0  0  0  0  0  0  0  0  0  0  0  0
    5.7785    4.2531  -12.7318 H   0  0  0  0  0  0  0  0  0  0  0  0
    6.7150    5.3714  -13.6027 H   0  0  0  0  0  0  0  0  0  0  0  0
    7.4695   -0.7837  -15.0348 H   0  0  0  0  0  0  0  0  0  0  0  0
    8.6658    5.6366  -14.4986 H   0  0  0  0  0  0  0  0  0  0  0  0
    9.1170    5.2324  -16.9142 H   0  0  0  0  0  0  0  0  0  0  0  0
   10.8072    5.8022  -18.6229 H   0  0  0  0  0  0  0  0  0  0  0  0
   13.1838    6.1385  -17.9736 H   0  0  0  0  0  0  0  0  0  0  0  0
   13.8722    5.8694  -15.5971 H   0  0  0  0  0  0  0  0  0  0  0  0
   12.2183    5.2835  -13.8836 H   0  0  0  0  0  0  0  0  0  0  0  0
   10.5079    6.1022  -12.7769 H   0  0  0  0  0  0  0  0  0  0  0  0
   10.3870    4.4162  -12.3135 H   0  0  0  0  0  0  0  0  0  0  0  0
    8.3508    6.5339  -12.2743 H   0  0  0  0  0  0  0  0  0  0  0  0
  2  1  1  0
  3  2  1  0
  4  3  1  0
  5  4  1  0
  6  5  1  0
  7  6  1  0
  8  6  2  0
  9  8  1  0
 10  8  1  0
 11 10  1  0
 12 10  2  0
 13 12  1  0
 14  5  2  0
 14 12  1  0
 15 14  1  0
 16 15  1  0
 17 16  2  0
 18 17  1  0
 19 18  2  0
 20 19  1  0
 21 16  1  0
 21 20  2  0
 22  2  1  0
 22 15  1  0
 23  1  1  0
 24  1  1  0
 25  1  1  0
 26  3  1  0
 27  3  1  0
 28  4  1  0
 29  4  1  0
 30  9  1  0
 15 31  1  6
 32 17  1  0
 33 18  1  0
 34 19  1  0
 35 20  1  0
 36 21  1  0
 37 22  1  0
 38 22  1  0
  2 39  1  6
M  CHG  2   2   1  11  -1
M  END
>  <b_m_subgroup_collapsed>  (1415) 
0

>  <r_i_docking_score>  (1415) 
-5.8206166209804397

>  <s_m_subgroup_title>  (1415) 
glide-dock_SP_D22_pv

>  <s_m_subgroupid>  (1415) 
glide-dock_SP_D22_pv

>  <Molecule ChEMBL ID>  (1415) 
CHEMBL544118

>  <Standard Type>  (1415) 
Ki

>  <Standard Value>  (1415) 
810000.0

>  <label>  (1415) 
0

$$$$
CHEMBL2159477
     RDKit          3D

 61 64  0  0  1  0  0  0  0  0999 V2000
    9.1850    4.8510  -10.6447 C   0  0  0  0  0  0  0  0  0  0  0  0
    8.8902    6.3538  -10.5583 C   0  0  0  0  0  0  0  0  0  0  0  0
    8.2895    6.9278  -11.8521 C   0  0  0  0  0  0  0  0  0  0  0  0
   10.1096    7.1242  -10.0635 C   0  0  0  0  0  0  0  0  0  0  0  0
   10.1168    7.5092   -8.7043 C   0  0  0  0  0  0  0  0  0  0  0  0
   11.2199    8.1782   -8.1545 C   0  0  0  0  0  0  0  0  0  0  0  0
   12.3113    8.4927   -8.9759 C   0  0  0  0  0  0  0  0  0  0  0  0
   12.2980    8.1577  -10.3428 C   0  0  0  0  0  0  0  0  0  0  0  0
   11.2158    7.4312  -10.9044 C   0  0  0  0  0  0  0  0  0  0  0  0
   11.1803    6.9753  -12.2130 O   0  0  0  0  0  0  0  0  0  0  0  0
   12.2841    7.1313  -13.1053 C   0  0  0  0  0  0  0  0  0  0  0  0
   12.4850    5.8074  -13.8600 C   0  0  0  0  0  0  0  0  0  0  0  0
   11.3010    5.4561  -14.6863 N   0  0  1  0  0  0  0  0  0  0  0  0
   11.4877    5.5514  -16.1590 C   0  0  0  0  0  0  0  0  0  0  0  0
   11.0130    4.2194  -16.7521 C   0  0  0  0  0  0  0  0  0  0  0  0
   10.0462    3.6937  -15.6985 C   0  0  1  0  0  0  0  0  0  0  0  0
    9.8773    2.2386  -15.7635 N   0  0  0  0  0  0  0  0  0  0  0  0
    8.6232    1.5275  -16.7151 S   0  0  0  0  0  0  0  0  0  0  0  0
    9.2005    0.3006  -17.2854 O   0  0  0  0  0  0  0  0  0  0  0  0
    8.0838    2.5691  -17.6044 O   0  0  0  0  0  0  0  0  0  0  0  0
    7.3190    1.0410  -15.5595 C   0  0  0  0  0  0  0  0  0  0  0  0
    6.7188   -0.2124  -15.8018 C   0  0  0  0  0  0  0  0  0  0  0  0
    5.6658   -0.6759  -14.9954 C   0  0  0  0  0  0  0  0  0  0  0  0
    5.1988    0.1189  -13.9385 C   0  0  0  0  0  0  0  0  0  0  0  0
    5.7892    1.3716  -13.6898 C   0  0  0  0  0  0  0  0  0  0  0  0
    5.2855    2.1729  -12.6463 C   0  0  0  0  0  0  0  0  0  0  0  0
    5.8192    3.4537  -12.4432 C   0  0  0  0  0  0  0  0  0  0  0  0
    6.8632    3.8616  -13.2824 C   0  0  0  0  0  0  0  0  0  0  0  0
    7.3783    3.0867  -14.2509 N   0  0  0  0  0  0  0  0  0  0  0  0
    6.8615    1.8614  -14.4924 C   0  0  0  0  0  0  0  0  0  0  0  0
   10.7006    4.1350  -14.3924 C   0  0  0  0  0  0  0  0  0  0  0  0
    9.5147    4.4657   -9.6792 H   0  0  0  0  0  0  0  0  0  0  0  0
    8.2943    4.2919  -10.9272 H   0  0  0  0  0  0  0  0  0  0  0  0
    9.9689    4.6347  -11.3677 H   0  0  0  0  0  0  0  0  0  0  0  0
    8.1153    6.4641   -9.7977 H   0  0  0  0  0  0  0  0  0  0  0  0
    8.2338    8.0164  -11.8157 H   0  0  0  0  0  0  0  0  0  0  0  0
    8.8462    6.6440  -12.7423 H   0  0  0  0  0  0  0  0  0  0  0  0
    7.2674    6.5731  -11.9741 H   0  0  0  0  0  0  0  0  0  0  0  0
    9.2753    7.2739   -8.0668 H   0  0  0  0  0  0  0  0  0  0  0  0
   11.2272    8.4488   -7.1086 H   0  0  0  0  0  0  0  0  0  0  0  0
   13.1705    8.9942   -8.5580 H   0  0  0  0  0  0  0  0  0  0  0  0
   13.1580    8.4633  -10.9154 H   0  0  0  0  0  0  0  0  0  0  0  0
   13.2269    7.3718  -12.6249 H   0  0  0  0  0  0  0  0  0  0  0  0
   12.0718    7.9371  -13.8085 H   0  0  0  0  0  0  0  0  0  0  0  0
   12.7198    5.0210  -13.1398 H   0  0  0  0  0  0  0  0  0  0  0  0
   13.3657    5.8895  -14.4948 H   0  0  0  0  0  0  0  0  0  0  0  0
   12.5105    5.7714  -16.4687 H   0  0  0  0  0  0  0  0  0  0  0  0
   10.8612    6.3647  -16.5258 H   0  0  0  0  0  0  0  0  0  0  0  0
   11.8631    3.5433  -16.8581 H   0  0  0  0  0  0  0  0  0  0  0  0
   10.5499    4.3321  -17.7338 H   0  0  0  0  0  0  0  0  0  0  0  0
    9.0874    4.1982  -15.8173 H   0  0  0  0  0  0  0  0  0  0  0  0
   10.7286    1.6795  -15.7180 H   0  0  0  0  0  0  0  0  0  0  0  0
    7.0591   -0.8318  -16.6191 H   0  0  0  0  0  0  0  0  0  0  0  0
    5.2136   -1.6371  -15.1983 H   0  0  0  0  0  0  0  0  0  0  0  0
    4.3684   -0.2242  -13.3418 H   0  0  0  0  0  0  0  0  0  0  0  0
    4.4860    1.8236  -12.0161 H   0  0  0  0  0  0  0  0  0  0  0  0
    5.4511    4.1012  -11.6586 H   0  0  0  0  0  0  0  0  0  0  0  0
    7.3145    4.8316  -13.1837 H   0  0  0  0  0  0  0  0  0  0  0  0
    9.9836    4.1904  -13.5750 H   0  0  0  0  0  0  0  0  0  0  0  0
   11.4790    3.4214  -14.1133 H   0  0  0  0  0  0  0  0  0  0  0  0
   10.5852    6.1307  -14.4534 H   0  0  0  0  0  0  0  0  0  0  0  0
  2  1  1  0
  3  2  1  0
  4  2  1  0
  5  4  2  0
  6  5  1  0
  7  6  2  0
  8  7  1  0
  9  4  1  0
  9  8  2  0
 10  9  1  0
 11 10  1  0
 12 11  1  0
 13 12  1  0
 14 13  1  0
 15 14  1  0
 16 15  1  0
 17 16  1  0
 18 17  1  0
 19 18  2  0
 20 18  2  0
 21 18  1  0
 22 21  1  0
 23 22  2  0
 24 23  1  0
 25 24  2  0
 26 25  1  0
 27 26  2  0
 28 27  1  0
 29 28  2  0
 30 21  2  0
 30 25  1  0
 30 29  1  0
 31 13  1  0
 31 16  1  0
 32  1  1  0
 33  1  1  0
 34  1  1  0
 35  2  1  0
 36  3  1  0
 37  3  1  0
 38  3  1  0
 39  5  1  0
 40  6  1  0
 41  7  1  0
 42  8  1  0
 43 11  1  0
 44 11  1  0
 45 12  1  0
 46 12  1  0
 47 14  1  0
 48 14  1  0
 49 15  1  0
 50 15  1  0
 16 51  1  6
 52 17  1  0
 53 22  1  0
 54 23  1  0
 55 24  1  0
 56 26  1  0
 57 27  1  0
 58 28  1  0
 59 31  1  0
 60 31  1  0
 13 61  1  1
M  CHG  1  13   1
M  END
>  <b_m_subgroup_collapsed>  (1416) 
0

>  <r_i_docking_score>  (1416) 
-5.81774836037917

>  <s_m_subgroup_title>  (1416) 
glide-dock_SP_D22_pv

>  <s_m_subgroupid>  (1416) 
glide-dock_SP_D22_pv

>  <Molecule ChEMBL ID>  (1416) 
CHEMBL2159477

>  <Standard Type>  (1416) 
Ki

>  <Standard Value>  (1416) 
10.0

>  <label>  (1416) 
1

$$$$
CHEMBL378358
     RDKit          3D

 46 49  0  0  1  0  0  0  0  0999 V2000
    9.4520    4.2750  -18.2752 C   0  0  0  0  0  0  0  0  0  0  0  0
   10.3643    3.6772  -17.2695 N   0  0  1  0  0  0  0  0  0  0  0  0
    9.7447    2.5143  -16.5718 C   0  0  0  0  0  0  0  0  0  0  0  0
   10.1717    2.3705  -15.0989 C   0  0  0  0  0  0  0  0  0  0  0  0
    9.7882    3.5542  -14.2557 C   0  0  0  0  0  0  0  0  0  0  0  0
   10.6136    4.5489  -13.7809 C   0  0  0  0  0  0  0  0  0  0  0  0
    9.8535    5.4461  -13.0505 N   0  0  0  0  0  0  0  0  0  0  0  0
    8.5321    5.0596  -13.0135 C   0  0  0  0  0  0  0  0  0  0  0  0
    7.3960    5.6249  -12.4106 C   0  0  0  0  0  0  0  0  0  0  0  0
    6.1550    4.9772  -12.5297 C   0  0  0  0  0  0  0  0  0  0  0  0
    6.0581    3.7715  -13.2490 C   0  0  0  0  0  0  0  0  0  0  0  0
    7.2039    3.2160  -13.8549 C   0  0  0  0  0  0  0  0  0  0  0  0
    8.4680    3.8484  -13.7599 C   0  0  0  0  0  0  0  0  0  0  0  0
   12.0882    4.7432  -13.9297 C   0  0  0  0  0  0  0  0  0  0  0  0
   12.4460    5.5902  -15.1238 C   0  0  0  0  0  0  0  0  0  0  0  0
   12.5070    7.0122  -15.1389 C   0  0  0  0  0  0  0  0  0  0  0  0
   12.8852    7.4104  -16.3868 C   0  0  0  0  0  0  0  0  0  0  0  0
   13.0603    6.2804  -17.1606 N   0  0  0  0  0  0  0  0  0  0  0  0
   13.4701    6.3038  -18.5519 C   0  0  0  0  0  0  0  0  0  0  0  0
   12.7822    5.1596  -16.3826 C   0  0  0  0  0  0  0  0  0  0  0  0
   12.8573    3.7596  -16.9203 C   0  0  0  0  0  0  0  0  0  0  0  0
   11.7021    3.3950  -17.8615 C   0  0  0  0  0  0  0  0  0  0  0  0
    9.2755    3.5822  -19.0997 H   0  0  0  0  0  0  0  0  0  0  0  0
    9.8758    5.1931  -18.6856 H   0  0  0  0  0  0  0  0  0  0  0  0
    8.4864    4.5379  -17.8469 H   0  0  0  0  0  0  0  0  0  0  0  0
    8.6592    2.6200  -16.5826 H   0  0  0  0  0  0  0  0  0  0  0  0
    9.9460    1.5910  -17.1166 H   0  0  0  0  0  0  0  0  0  0  0  0
    9.6885    1.4808  -14.6905 H   0  0  0  0  0  0  0  0  0  0  0  0
   11.2357    2.1589  -15.0207 H   0  0  0  0  0  0  0  0  0  0  0  0
   10.2365    6.2672  -12.6032 H   0  0  0  0  0  0  0  0  0  0  0  0
    7.4653    6.5455  -11.8457 H   0  0  0  0  0  0  0  0  0  0  0  0
    5.2865    5.4029  -12.0488 H   0  0  0  0  0  0  0  0  0  0  0  0
    5.1046    3.2690  -13.3295 H   0  0  0  0  0  0  0  0  0  0  0  0
    7.1144    2.2886  -14.4006 H   0  0  0  0  0  0  0  0  0  0  0  0
   12.4893    5.2382  -13.0470 H   0  0  0  0  0  0  0  0  0  0  0  0
   12.5950    3.7813  -13.9821 H   0  0  0  0  0  0  0  0  0  0  0  0
   12.3030    7.6798  -14.3141 H   0  0  0  0  0  0  0  0  0  0  0  0
   13.0421    8.3999  -16.7949 H   0  0  0  0  0  0  0  0  0  0  0  0
   14.1934    5.5125  -18.7511 H   0  0  0  0  0  0  0  0  0  0  0  0
   13.9402    7.2594  -18.7872 H   0  0  0  0  0  0  0  0  0  0  0  0
   12.6012    6.1760  -19.1955 H   0  0  0  0  0  0  0  0  0  0  0  0
   13.8067    3.6146  -17.4360 H   0  0  0  0  0  0  0  0  0  0  0  0
   12.8870    3.0484  -16.0999 H   0  0  0  0  0  0  0  0  0  0  0  0
   11.7828    2.3526  -18.1768 H   0  0  0  0  0  0  0  0  0  0  0  0
   11.8285    3.9788  -18.7746 H   0  0  0  0  0  0  0  0  0  0  0  0
   10.5051    4.3972  -16.5705 H   0  0  0  0  0  0  0  0  0  0  0  0
  2  1  1  0
  3  2  1  0
  4  3  1  0
  5  4  1  0
  6  5  2  0
  7  6  1  0
  8  7  1  0
  9  8  2  0
 10  9  1  0
 11 10  2  0
 12 11  1  0
 13  5  1  0
 13  8  1  0
 13 12  2  0
 14  6  1  0
 15 14  1  0
 16 15  1  0
 17 16  2  0
 18 17  1  0
 19 18  1  0
 20 15  2  0
 20 18  1  0
 21 20  1  0
 22  2  1  0
 22 21  1  0
 23  1  1  0
 24  1  1  0
 25  1  1  0
 26  3  1  0
 27  3  1  0
 28  4  1  0
 29  4  1  0
 30  7  1  0
 31  9  1  0
 32 10  1  0
 33 11  1  0
 34 12  1  0
 35 14  1  0
 36 14  1  0
 37 16  1  0
 38 17  1  0
 39 19  1  0
 40 19  1  0
 41 19  1  0
 42 21  1  0
 43 21  1  0
 44 22  1  0
 45 22  1  0
  2 46  1  1
M  CHG  1   2   1
M  END
>  <b_m_subgroup_collapsed>  (1417) 
0

>  <r_i_docking_score>  (1417) 
-5.8160891691821304

>  <s_m_subgroup_title>  (1417) 
glide-dock_SP_D22_pv

>  <s_m_subgroupid>  (1417) 
glide-dock_SP_D22_pv

>  <Molecule ChEMBL ID>  (1417) 
CHEMBL378358

>  <Standard Type>  (1417) 
Ki

>  <Standard Value>  (1417) 
10000.0

>  <label>  (1417) 
0

$$$$
CHEMBL28437
     RDKit          3D

 50 51  0  0  1  0  0  0  0  0999 V2000
    9.2785    4.5141   -9.2055 C   0  0  0  0  0  0  0  0  0  0  0  0
    9.3809    6.0291   -9.3926 C   0  0  0  0  0  0  0  0  0  0  0  0
    9.4330    6.4969  -10.8578 C   0  0  0  0  0  0  0  0  0  0  0  0
    8.0860    6.5723  -11.5056 N   0  0  0  0  0  0  0  0  0  0  0  0
    7.8448    7.6951  -12.4609 C   0  0  0  0  0  0  0  0  0  0  0  0
    8.5421    9.0382  -12.1797 C   0  0  0  0  0  0  0  0  0  0  0  0
    8.0860    9.6389  -10.8501 C   0  0  0  0  0  0  0  0  0  0  0  0
    7.5711    5.2620  -12.0118 C   0  0  1  0  0  0  0  0  0  0  0  0
    6.0713    5.2895  -12.3574 C   0  0  0  0  0  0  0  0  0  0  0  0
    5.5326    3.8925  -12.7009 C   0  0  0  0  0  0  0  0  0  0  0  0
    6.5063    2.9953  -13.4567 C   0  0  0  0  0  0  0  0  0  0  0  0
    6.0674    1.7140  -13.8469 C   0  0  0  0  0  0  0  0  0  0  0  0
    6.9496    0.8071  -14.4603 C   0  0  0  0  0  0  0  0  0  0  0  0
    8.2967    1.1599  -14.6476 C   0  0  0  0  0  0  0  0  0  0  0  0
    8.7619    2.4288  -14.2469 C   0  0  0  0  0  0  0  0  0  0  0  0
   10.1081    2.6911  -14.2910 O   0  0  0  0  0  0  0  0  0  0  0  0
   10.7550    3.4319  -15.6647 S   0  0  0  0  0  0  0  0  0  0  0  0
    9.6860    4.2122  -16.3079 O   0  0  0  0  0  0  0  0  0  0  0  0
   12.0043    4.0850  -15.2437 O   0  0  0  0  0  0  0  0  0  0  0  0
   11.1539    1.9371  -16.6788 C   0  0  0  0  0  0  0  0  0  0  0  0
   10.1766    1.7282  -17.5599 F   0  0  0  0  0  0  0  0  0  0  0  0
   12.3057    2.1456  -17.3152 F   0  0  0  0  0  0  0  0  0  0  0  0
   11.2860    0.8802  -15.8789 F   0  0  0  0  0  0  0  0  0  0  0  0
    7.8609    3.3643  -13.6753 C   0  0  0  0  0  0  0  0  0  0  0  0
    8.3806    4.7047  -13.2023 C   0  0  0  0  0  0  0  0  0  0  0  0
    9.6860    4.2246   -8.2469 H   0  0  0  0  0  0  0  0  0  0  0  0
    8.2443    4.1723   -9.2087 H   0  0  0  0  0  0  0  0  0  0  0  0
    9.8406    3.9727   -9.9667 H   0  0  0  0  0  0  0  0  0  0  0  0
   10.3098    6.3465   -8.9166 H   0  0  0  0  0  0  0  0  0  0  0  0
    8.5833    6.5376   -8.8475 H   0  0  0  0  0  0  0  0  0  0  0  0
   10.1382    5.9040  -11.4340 H   0  0  0  0  0  0  0  0  0  0  0  0
    9.9024    7.4718  -10.7975 H   0  0  0  0  0  0  0  0  0  0  0  0
    8.0860    7.3635  -13.4469 H   0  0  0  0  0  0  0  0  0  0  0  0
    6.7730    7.8906  -12.4985 H   0  0  0  0  0  0  0  0  0  0  0  0
    9.6262    8.9606  -12.2351 H   0  0  0  0  0  0  0  0  0  0  0  0
    8.2829    9.7322  -12.9794 H   0  0  0  0  0  0  0  0  0  0  0  0
    8.4860   10.6071  -10.6469 H   0  0  0  0  0  0  0  0  0  0  0  0
    7.0081    9.7723  -10.8699 H   0  0  0  0  0  0  0  0  0  0  0  0
    8.3688    9.0198   -9.9990 H   0  0  0  0  0  0  0  0  0  0  0  0
    7.6581    4.5419  -11.2067 H   0  0  0  0  0  0  0  0  0  0  0  0
    5.8987    5.9283  -13.2202 H   0  0  0  0  0  0  0  0  0  0  0  0
    5.4914    5.7195  -11.5387 H   0  0  0  0  0  0  0  0  0  0  0  0
    4.6017    3.9787  -13.2622 H   0  0  0  0  0  0  0  0  0  0  0  0
    5.2860    3.3784  -11.7710 H   0  0  0  0  0  0  0  0  0  0  0  0
    5.0437    1.4175  -13.6696 H   0  0  0  0  0  0  0  0  0  0  0  0
    6.6031   -0.1735  -14.7540 H   0  0  0  0  0  0  0  0  0  0  0  0
    8.9769    0.4325  -15.0638 H   0  0  0  0  0  0  0  0  0  0  0  0
    9.4275    4.5923  -12.9319 H   0  0  0  0  0  0  0  0  0  0  0  0
    8.3504    5.3636  -14.0681 H   0  0  0  0  0  0  0  0  0  0  0  0
    7.4506    6.8673  -10.7522 H   0  0  0  0  0  0  0  0  0  0  0  0
  2  1  1  0
  3  2  1  0
  4  3  1  0
  5  4  1  0
  6  5  1  0
  7  6  1  0
  8  4  1  0
  9  8  1  0
 10  9  1  0
 11 10  1  0
 12 11  2  0
 13 12  1  0
 14 13  2  0
 15 14  1  0
 16 15  1  0
 17 16  1  0
 18 17  2  0
 19 17  2  0
 20 17  1  0
 21 20  1  0
 22 20  1  0
 23 20  1  0
 24 11  1  0
 24 15  2  0
 25  8  1  0
 25 24  1  0
 26  1  1  0
 27  1  1  0
 28  1  1  0
 29  2  1  0
 30  2  1  0
 31  3  1  0
 32  3  1  0
 33  5  1  0
 34  5  1  0
 35  6  1  0
 36  6  1  0
 37  7  1  0
 38  7  1  0
 39  7  1  0
  8 40  1  1
 41  9  1  0
 42  9  1  0
 43 10  1  0
 44 10  1  0
 45 12  1  0
 46 13  1  0
 47 14  1  0
 48 25  1  0
 49 25  1  0
 50  4  1  0
M  CHG  1   4   1
M  END
>  <b_m_subgroup_collapsed>  (1418) 
0

>  <r_i_docking_score>  (1418) 
-5.80689365902475

>  <s_m_subgroup_title>  (1418) 
glide-dock_SP_D22_pv

>  <s_m_subgroupid>  (1418) 
glide-dock_SP_D22_pv

>  <Molecule ChEMBL ID>  (1418) 
CHEMBL28437

>  <Standard Type>  (1418) 
Ki

>  <Standard Value>  (1418) 
62.0

>  <label>  (1418) 
1

$$$$
CHEMBL300647
     RDKit          3D

 47 50  0  0  1  0  0  0  0  0999 V2000
   13.6710    4.1774  -19.2677 C   0  0  0  0  0  0  0  0  0  0  0  0
   12.4229    3.7025  -18.6254 N   0  0  0  0  0  0  0  0  0  0  0  0
   12.5283    2.2789  -18.2149 C   0  0  0  0  0  0  0  0  0  0  0  0
   11.9287    4.6319  -17.5656 C   0  0  2  0  0  0  0  0  0  0  0  0
   12.7017    4.4898  -16.2609 C   0  0  0  0  0  0  0  0  0  0  0  0
   12.1243    4.4017  -15.0499 C   0  0  0  0  0  0  0  0  0  0  0  0
   10.6103    4.4634  -14.7750 C   0  0  1  0  0  0  0  0  0  0  0  0
    9.9749    5.1416  -16.0198 C   0  0  0  0  0  0  0  0  0  0  0  0
   10.4038    4.5052  -17.3542 C   0  0  0  0  0  0  0  0  0  0  0  0
   10.0502    3.0143  -14.6697 C   0  0  0  0  0  0  0  0  0  0  0  0
   10.8843    1.9047  -14.9945 C   0  0  0  0  0  0  0  0  0  0  0  0
   10.3804    0.5991  -15.1231 C   0  0  0  0  0  0  0  0  0  0  0  0
    9.0162    0.3608  -14.9343 C   0  0  0  0  0  0  0  0  0  0  0  0
    8.1775    1.4189  -14.5750 C   0  0  0  0  0  0  0  0  0  0  0  0
    8.6730    2.7332  -14.4298 C   0  0  0  0  0  0  0  0  0  0  0  0
    7.6652    3.6958  -13.9922 C   0  0  0  0  0  0  0  0  0  0  0  0
    7.8236    4.8645  -13.3660 C   0  0  0  0  0  0  0  0  0  0  0  0
    9.0487    5.5427  -12.9528 C   0  0  0  0  0  0  0  0  0  0  0  0
    8.8596    6.4473  -11.8832 C   0  0  0  0  0  0  0  0  0  0  0  0
    9.9099    7.2281  -11.3866 C   0  0  0  0  0  0  0  0  0  0  0  0
   11.1727    7.1218  -11.9767 C   0  0  0  0  0  0  0  0  0  0  0  0
   12.4859    8.0633  -11.3624 Cl  0  0  0  0  0  0  0  0  0  0  0  0
   11.3735    6.2276  -13.0471 C   0  0  0  0  0  0  0  0  0  0  0  0
   10.3391    5.3743  -13.5387 C   0  0  0  0  0  0  0  0  0  0  0  0
   14.5089    4.1671  -18.5683 H   0  0  0  0  0  0  0  0  0  0  0  0
   13.9340    3.5417  -20.1146 H   0  0  0  0  0  0  0  0  0  0  0  0
   13.5567    5.1955  -19.6442 H   0  0  0  0  0  0  0  0  0  0  0  0
   13.2857    2.1361  -17.4437 H   0  0  0  0  0  0  0  0  0  0  0  0
   11.5817    1.8950  -17.8397 H   0  0  0  0  0  0  0  0  0  0  0  0
   12.8077    1.6578  -19.0679 H   0  0  0  0  0  0  0  0  0  0  0  0
   12.1098    5.6561  -17.9000 H   0  0  0  0  0  0  0  0  0  0  0  0
   13.7793    4.4391  -16.3276 H   0  0  0  0  0  0  0  0  0  0  0  0
   12.7649    4.2438  -14.1944 H   0  0  0  0  0  0  0  0  0  0  0  0
    8.8867    5.1801  -15.9546 H   0  0  0  0  0  0  0  0  0  0  0  0
   10.3214    6.1721  -16.0463 H   0  0  0  0  0  0  0  0  0  0  0  0
    9.8777    4.9905  -18.1764 H   0  0  0  0  0  0  0  0  0  0  0  0
   10.0798    3.4651  -17.3711 H   0  0  0  0  0  0  0  0  0  0  0  0
   11.9351    2.0090  -15.2037 H   0  0  0  0  0  0  0  0  0  0  0  0
   11.0383   -0.2126  -15.3930 H   0  0  0  0  0  0  0  0  0  0  0  0
    8.6074   -0.6281  -15.0529 H   0  0  0  0  0  0  0  0  0  0  0  0
    7.1319    1.2077  -14.3977 H   0  0  0  0  0  0  0  0  0  0  0  0
    6.6442    3.4215  -14.2141 H   0  0  0  0  0  0  0  0  0  0  0  0
    6.9118    5.4037  -13.1479 H   0  0  0  0  0  0  0  0  0  0  0  0
    7.8807    6.5704  -11.4409 H   0  0  0  0  0  0  0  0  0  0  0  0
    9.7415    7.9085  -10.5654 H   0  0  0  0  0  0  0  0  0  0  0  0
   12.3690    6.2300  -13.4649 H   0  0  0  0  0  0  0  0  0  0  0  0
   11.7238    3.7324  -19.3545 H   0  0  0  0  0  0  0  0  0  0  0  0
  2  1  1  0
  3  2  1  0
  4  2  1  0
  5  4  1  0
  6  5  2  0
  7  6  1  0
  7  8  1  6
  9  4  1  0
  9  8  1  0
 10  7  1  0
 11 10  2  0
 12 11  1  0
 13 12  2  0
 14 13  1  0
 15 10  1  0
 15 14  2  0
 16 15  1  0
 17 16  2  0
 18 17  1  0
 19 18  1  0
 20 19  2  0
 21 20  1  0
 22 21  1  0
 23 21  2  0
 24  7  1  0
 24 18  2  0
 24 23  1  0
 25  1  1  0
 26  1  1  0
 27  1  1  0
 28  3  1  0
 29  3  1  0
 30  3  1  0
  4 31  1  6
 32  5  1  0
 33  6  1  0
 34  8  1  0
 35  8  1  0
 36  9  1  0
 37  9  1  0
 38 11  1  0
 39 12  1  0
 40 13  1  0
 41 14  1  0
 42 16  1  0
 43 17  1  0
 44 19  1  0
 45 20  1  0
 46 23  1  0
 47  2  1  0
M  CHG  1   2   1
M  END
>  <b_m_subgroup_collapsed>  (1419) 
0

>  <r_i_docking_score>  (1419) 
-5.8064247816708603

>  <s_m_subgroup_title>  (1419) 
glide-dock_SP_D22_pv

>  <s_m_subgroupid>  (1419) 
glide-dock_SP_D22_pv

>  <Molecule ChEMBL ID>  (1419) 
CHEMBL300647

>  <Standard Type>  (1419) 
Ki

>  <Standard Value>  (1419) 
0.66

>  <label>  (1419) 
1

$$$$
CHEMBL4462820
     RDKit          3D

 29 31  0  0  1  0  0  0  0  0999 V2000
   11.4288    6.6300   -4.0846 C   0  0  0  0  0  0  0  0  0  0  0  0
   10.6192    6.6584   -5.3923 C   0  0  0  0  0  0  0  0  0  0  0  0
   10.9083    7.8094   -6.2297 N   0  0  0  0  0  0  0  0  0  0  0  0
   11.4743    8.9576   -5.8260 C   0  0  0  0  0  0  0  0  0  0  0  0
   11.6847    9.8342   -6.7855 N   0  0  0  0  0  0  0  0  0  0  0  0
   11.1744    9.2147   -7.9218 C   0  0  0  0  0  0  0  0  0  0  0  0
   10.6497    7.9858   -7.5972 C   0  0  0  0  0  0  0  0  0  0  0  0
    9.9370    7.0234   -8.4459 C   0  0  0  0  0  0  0  0  0  0  0  0
    8.9310    6.1754   -8.0459 C   0  0  0  0  0  0  0  0  0  0  0  0
    8.4861    5.4252   -9.1141 N   0  0  0  0  0  0  0  0  0  0  0  0
    9.1523    5.7784  -10.2614 C   0  0  0  0  0  0  0  0  0  0  0  0
    9.0345    5.3142  -11.5831 C   0  0  0  0  0  0  0  0  0  0  0  0
    9.8817    5.8311  -12.5764 C   0  0  0  0  0  0  0  0  0  0  0  0
   10.8328    6.8121  -12.2413 C   0  0  0  0  0  0  0  0  0  0  0  0
   12.0861    7.3722  -13.5624 Br  0  0  0  0  0  0  0  0  0  0  0  0
   10.9160    7.3036  -10.9142 C   0  0  0  0  0  0  0  0  0  0  0  0
   11.8649    8.2231  -10.6220 F   0  0  0  0  0  0  0  0  0  0  0  0
   10.0843    6.7916   -9.8769 C   0  0  0  0  0  0  0  0  0  0  0  0
   11.1683    5.7725   -3.4738 H   0  0  0  0  0  0  0  0  0  0  0  0
   12.4861    6.5659   -4.3040 H   0  0  0  0  0  0  0  0  0  0  0  0
   11.2860    7.5120   -3.4624 H   0  0  0  0  0  0  0  0  0  0  0  0
    9.5536    6.6354   -5.1781 H   0  0  0  0  0  0  0  0  0  0  0  0
   10.8558    5.7723   -5.9761 H   0  0  0  0  0  0  0  0  0  0  0  0
   11.7766    9.1629   -4.8107 H   0  0  0  0  0  0  0  0  0  0  0  0
   11.1799    9.7273   -8.8724 H   0  0  0  0  0  0  0  0  0  0  0  0
    8.4571    6.0646   -7.0820 H   0  0  0  0  0  0  0  0  0  0  0  0
    7.7001    4.7896   -9.0564 H   0  0  0  0  0  0  0  0  0  0  0  0
    8.3093    4.5517  -11.8261 H   0  0  0  0  0  0  0  0  0  0  0  0
    9.8240    5.4566  -13.5879 H   0  0  0  0  0  0  0  0  0  0  0  0
  2  1  1  0
  3  2  1  0
  4  3  1  0
  5  4  2  0
  6  5  1  0
  7  3  1  0
  7  6  2  0
  8  7  1  0
  9  8  2  0
 10  9  1  0
 11 10  1  0
 12 11  2  0
 13 12  1  0
 14 13  2  0
 15 14  1  0
 16 14  1  0
 17 16  1  0
 18  8  1  0
 18 11  1  0
 18 16  2  0
 19  1  1  0
 20  1  1  0
 21  1  1  0
 22  2  1  0
 23  2  1  0
 24  4  1  0
 25  6  1  0
 26  9  1  0
 27 10  1  0
 28 12  1  0
 29 13  1  0
M  END
>  <b_m_subgroup_collapsed>  (1420) 
0

>  <r_i_docking_score>  (1420) 
-5.8013246373634697

>  <s_m_subgroup_title>  (1420) 
glide-dock_SP_D22_pv

>  <s_m_subgroupid>  (1420) 
glide-dock_SP_D22_pv

>  <Molecule ChEMBL ID>  (1420) 
CHEMBL4462820

>  <Standard Type>  (1420) 
Ki

>  <Standard Value>  (1420) 
10000.0

>  <label>  (1420) 
0

$$$$
CHEMBL4592085
     RDKit          3D

 47 50  0  0  1  0  0  0  0  0999 V2000
    5.0778    1.6364  -13.2648 C   0  0  0  0  0  0  0  0  0  0  0  0
    4.9709    3.0367  -13.0467 O   0  0  0  0  0  0  0  0  0  0  0  0
    6.1402    3.7600  -13.0071 C   0  0  0  0  0  0  0  0  0  0  0  0
    6.1434    4.9411  -12.2473 C   0  0  0  0  0  0  0  0  0  0  0  0
    7.3141    5.6966  -12.1152 C   0  0  0  0  0  0  0  0  0  0  0  0
    8.5057    5.2612  -12.7101 C   0  0  0  0  0  0  0  0  0  0  0  0
    8.5452    4.0813  -13.5023 C   0  0  0  0  0  0  0  0  0  0  0  0
    7.3309    3.3707  -13.6675 C   0  0  0  0  0  0  0  0  0  0  0  0
    9.8945    3.8985  -13.9603 C   0  0  0  0  0  0  0  0  0  0  0  0
   10.3005    2.7775  -14.8042 C   0  0  0  0  0  0  0  0  0  0  0  0
    9.8492    1.4719  -14.8042 C   0  0  0  0  0  0  0  0  0  0  0  0
   10.4828    0.8448  -15.8604 N   0  0  0  0  0  0  0  0  0  0  0  0
   11.2791    1.7541  -16.4276 C   0  0  0  0  0  0  0  0  0  0  0  0
   12.0852    1.4975  -17.5630 N   0  0  0  0  0  0  0  0  0  0  0  0
   12.0854    0.3969  -18.3371 C   0  0  0  0  0  0  0  0  0  0  0  0
   13.0921    0.3894  -19.4810 C   0  0  0  0  0  0  0  0  0  0  0  0
   11.3443   -0.5733  -18.1763 O   0  0  0  0  0  0  0  0  0  0  0  0
   11.2433    2.9375  -15.8280 N   0  0  0  0  0  0  0  0  0  0  0  0
   10.6194    4.9457  -13.4467 C   0  0  0  0  0  0  0  0  0  0  0  0
    9.7962    5.7614  -12.6756 N   0  0  0  0  0  0  0  0  0  0  0  0
   10.3012    7.2117  -11.8738 S   0  0  0  0  0  0  0  0  0  0  0  0
    9.3129    8.2354  -12.2464 O   0  0  0  0  0  0  0  0  0  0  0  0
   11.7201    7.3722  -12.2313 O   0  0  0  0  0  0  0  0  0  0  0  0
   10.2008    6.9489  -10.1031 C   0  0  0  0  0  0  0  0  0  0  0  0
   10.8529    7.8812   -9.2693 C   0  0  0  0  0  0  0  0  0  0  0  0
   10.7613    7.7574   -7.8692 C   0  0  0  0  0  0  0  0  0  0  0  0
   10.0103    6.7067   -7.3065 C   0  0  0  0  0  0  0  0  0  0  0  0
    9.3667    5.7726   -8.1432 C   0  0  0  0  0  0  0  0  0  0  0  0
    9.4714    5.8814   -9.5404 C   0  0  0  0  0  0  0  0  0  0  0  0
    4.0857    1.1922  -13.2065 H   0  0  0  0  0  0  0  0  0  0  0  0
    5.4761    1.3882  -14.2468 H   0  0  0  0  0  0  0  0  0  0  0  0
    5.6976    1.1672  -12.4998 H   0  0  0  0  0  0  0  0  0  0  0  0
    5.2627    5.2581  -11.7147 H   0  0  0  0  0  0  0  0  0  0  0  0
    7.3076    6.5723  -11.4906 H   0  0  0  0  0  0  0  0  0  0  0  0
    7.3471    2.4851  -14.2802 H   0  0  0  0  0  0  0  0  0  0  0  0
    9.1405    0.9629  -14.1677 H   0  0  0  0  0  0  0  0  0  0  0  0
   14.1048    0.5124  -19.0974 H   0  0  0  0  0  0  0  0  0  0  0  0
   13.0477   -0.5542  -20.0262 H   0  0  0  0  0  0  0  0  0  0  0  0
   12.7213    2.2379  -17.8155 H   0  0  0  0  0  0  0  0  0  0  0  0
   11.6682    5.1742  -13.5712 H   0  0  0  0  0  0  0  0  0  0  0  0
   11.4117    8.6973   -9.7056 H   0  0  0  0  0  0  0  0  0  0  0  0
   11.2550    8.4740   -7.2283 H   0  0  0  0  0  0  0  0  0  0  0  0
    9.9234    6.6154   -6.2333 H   0  0  0  0  0  0  0  0  0  0  0  0
    8.7829    4.9718   -7.7183 H   0  0  0  0  0  0  0  0  0  0  0  0
    8.9746    5.1464  -10.1503 H   0  0  0  0  0  0  0  0  0  0  0  0
   12.8829    1.1977  -20.1813 H   0  0  0  0  0  0  0  0  0  0  0  0
   10.3586   -0.1085  -16.1768 H   0  0  0  0  0  0  0  0  0  0  0  0
  2  1  1  0
  3  2  1  0
  4  3  2  0
  5  4  1  0
  6  5  2  0
  7  6  1  0
  8  3  1  0
  8  7  2  0
  9  7  1  0
 10  9  1  0
 11 10  2  0
 12 11  1  0
 13 12  1  0
 14 13  1  0
 15 14  1  0
 16 15  1  0
 17 15  2  0
 18 10  1  0
 18 13  2  0
 19  9  2  0
 20  6  1  0
 20 19  1  0
 21 20  1  0
 22 21  2  0
 23 21  2  0
 24 21  1  0
 25 24  2  0
 26 25  1  0
 27 26  2  0
 28 27  1  0
 29 24  1  0
 29 28  2  0
 30  1  1  0
 31  1  1  0
 32  1  1  0
 33  4  1  0
 34  5  1  0
 35  8  1  0
 36 11  1  0
 37 16  1  0
 38 16  1  0
 39 14  1  0
 40 19  1  0
 41 25  1  0
 42 26  1  0
 43 27  1  0
 44 28  1  0
 45 29  1  0
 46 16  1  0
 47 12  1  0
M  END
>  <b_m_subgroup_collapsed>  (1421) 
0

>  <r_i_docking_score>  (1421) 
-5.7990262542327997

>  <s_m_subgroup_title>  (1421) 
glide-dock_SP_D22_pv

>  <s_m_subgroupid>  (1421) 
glide-dock_SP_D22_pv

>  <Molecule ChEMBL ID>  (1421) 
CHEMBL4592085

>  <Standard Type>  (1421) 
Ki

>  <Standard Value>  (1421) 
10000.0

>  <label>  (1421) 
0

$$$$
CHEMBL493369
     RDKit          3D

 46 47  0  0  1  0  0  0  0  0999 V2000
    8.8860    8.4500   -7.8223 C   0  0  0  0  0  0  0  0  0  0  0  0
   10.3204    8.4274   -8.1139 N   0  0  0  0  0  0  0  0  0  0  0  0
   10.5511    7.5211   -9.2438 C   0  0  0  0  0  0  0  0  0  0  0  0
    9.9604    8.0151  -10.5787 C   0  0  0  0  0  0  0  0  0  0  0  0
   10.1823    6.9929  -11.6758 C   0  0  0  0  0  0  0  0  0  0  0  0
    9.2196    5.9905  -11.9084 C   0  0  0  0  0  0  0  0  0  0  0  0
    9.4349    5.0235  -12.9088 C   0  0  0  0  0  0  0  0  0  0  0  0
   10.6040    5.0462  -13.6976 C   0  0  0  0  0  0  0  0  0  0  0  0
   10.7313    4.0644  -14.6579 O   0  0  0  0  0  0  0  0  0  0  0  0
   11.5918    4.2192  -15.7001 C   0  0  0  0  0  0  0  0  0  0  0  0
   12.8859    4.1723  -15.3012 F   0  0  0  0  0  0  0  0  0  0  0  0
   11.4134    3.2102  -16.5864 F   0  0  0  0  0  0  0  0  0  0  0  0
   11.3669    5.3772  -16.3699 F   0  0  0  0  0  0  0  0  0  0  0  0
   11.5711    6.0538  -13.4538 C   0  0  0  0  0  0  0  0  0  0  0  0
   11.3590    7.0175  -12.4499 C   0  0  0  0  0  0  0  0  0  0  0  0
   11.0600    7.9019   -6.9659 C   0  0  0  0  0  0  0  0  0  0  0  0
   11.0932    8.8907   -5.7779 C   0  0  0  0  0  0  0  0  0  0  0  0
   11.9188    8.4119   -4.6395 N   0  0  0  0  0  0  0  0  0  0  0  0
   11.8411    9.2711   -3.4384 C   0  0  0  0  0  0  0  0  0  0  0  0
   12.2714    8.3928   -2.2622 C   0  0  0  0  0  0  0  0  0  0  0  0
   12.0854    6.9437   -2.7299 C   0  0  0  0  0  0  0  0  0  0  0  0
   11.6414    7.0263   -4.1929 C   0  0  0  0  0  0  0  0  0  0  0  0
    8.6412    8.9730   -6.9023 H   0  0  0  0  0  0  0  0  0  0  0  0
    8.3428    8.9708   -8.6087 H   0  0  0  0  0  0  0  0  0  0  0  0
    8.4846    7.4401   -7.7366 H   0  0  0  0  0  0  0  0  0  0  0  0
   10.1519    6.5323   -9.0087 H   0  0  0  0  0  0  0  0  0  0  0  0
   11.6254    7.3921   -9.3850 H   0  0  0  0  0  0  0  0  0  0  0  0
   10.4086    8.9687  -10.8631 H   0  0  0  0  0  0  0  0  0  0  0  0
    8.8863    8.1874  -10.5098 H   0  0  0  0  0  0  0  0  0  0  0  0
    8.3138    5.9605  -11.3179 H   0  0  0  0  0  0  0  0  0  0  0  0
    8.6913    4.2580  -13.0757 H   0  0  0  0  0  0  0  0  0  0  0  0
   12.4877    6.1104  -14.0205 H   0  0  0  0  0  0  0  0  0  0  0  0
   12.1109    7.7716  -12.2705 H   0  0  0  0  0  0  0  0  0  0  0  0
   10.6321    6.9421   -6.6718 H   0  0  0  0  0  0  0  0  0  0  0  0
   12.0862    7.7058   -7.2737 H   0  0  0  0  0  0  0  0  0  0  0  0
   11.4869    9.8531   -6.1092 H   0  0  0  0  0  0  0  0  0  0  0  0
   10.0862    9.0794   -5.4160 H   0  0  0  0  0  0  0  0  0  0  0  0
   12.4518   10.1708   -3.5282 H   0  0  0  0  0  0  0  0  0  0  0  0
   10.8134    9.5961   -3.2840 H   0  0  0  0  0  0  0  0  0  0  0  0
   13.3156    8.5826   -2.0177 H   0  0  0  0  0  0  0  0  0  0  0  0
   11.6902    8.6126   -1.3667 H   0  0  0  0  0  0  0  0  0  0  0  0
   13.0212    6.3906   -2.6461 H   0  0  0  0  0  0  0  0  0  0  0  0
   11.3448    6.4154   -2.1274 H   0  0  0  0  0  0  0  0  0  0  0  0
   10.5775    6.7995   -4.2619 H   0  0  0  0  0  0  0  0  0  0  0  0
   12.1486    6.2930   -4.8188 H   0  0  0  0  0  0  0  0  0  0  0  0
   12.8844    8.4289   -4.9357 H   0  0  0  0  0  0  0  0  0  0  0  0
  2  1  1  0
  3  2  1  0
  4  3  1  0
  5  4  1  0
  6  5  1  0
  7  6  2  0
  8  7  1  0
  9  8  1  0
 10  9  1  0
 11 10  1  0
 12 10  1  0
 13 10  1  0
 14  8  2  0
 15  5  2  0
 15 14  1  0
 16  2  1  0
 17 16  1  0
 18 17  1  0
 19 18  1  0
 20 19  1  0
 21 20  1  0
 22 18  1  0
 22 21  1  0
 23  1  1  0
 24  1  1  0
 25  1  1  0
 26  3  1  0
 27  3  1  0
 28  4  1  0
 29  4  1  0
 30  6  1  0
 31  7  1  0
 32 14  1  0
 33 15  1  0
 34 16  1  0
 35 16  1  0
 36 17  1  0
 37 17  1  0
 38 19  1  0
 39 19  1  0
 40 20  1  0
 41 20  1  0
 42 21  1  0
 43 21  1  0
 44 22  1  0
 45 22  1  0
 46 18  1  0
M  CHG  1  18   1
M  END
>  <b_m_subgroup_collapsed>  (1422) 
0

>  <r_i_docking_score>  (1422) 
-5.7989009580696198

>  <s_m_subgroup_title>  (1422) 
glide-dock_SP_D22_pv

>  <s_m_subgroupid>  (1422) 
glide-dock_SP_D22_pv

>  <Molecule ChEMBL ID>  (1422) 
CHEMBL493369

>  <Standard Type>  (1422) 
Ki

>  <Standard Value>  (1422) 
10000.0

>  <label>  (1422) 
0

$$$$
CHEMBL76475
     RDKit          3D

 49 50  0  0  1  0  0  0  0  0999 V2000
    6.8942    1.8693  -14.5237 C   0  0  0  0  0  0  0  0  0  0  0  0
    6.3826    2.7867  -13.4346 C   0  0  0  0  0  0  0  0  0  0  0  0
    6.5657    4.1173  -13.4223 C   0  0  0  0  0  0  0  0  0  0  0  0
    6.1203    5.0569  -12.3132 C   0  0  0  0  0  0  0  0  0  0  0  0
    7.2701    5.7722  -11.6975 N   0  0  2  0  0  0  0  0  0  0  0  0
    7.8969    6.7725  -12.5982 C   0  0  0  0  0  0  0  0  0  0  0  0
    8.9524    7.5972  -11.8461 C   0  0  0  0  0  0  0  0  0  0  0  0
   10.0282    6.6812  -11.2435 C   0  0  1  0  0  0  0  0  0  0  0  0
   11.1305    7.4994  -10.5505 C   0  0  0  0  0  0  0  0  0  0  0  0
   10.7576    7.7847   -9.2145 O   0  0  0  0  0  0  0  0  0  0  0  0
   11.1582    9.0708   -8.7900 C   0  0  0  0  0  0  0  0  0  0  0  0
   11.3824    9.1423   -7.2951 C   0  0  0  0  0  0  0  0  0  0  0  0
   11.2824    8.1053   -6.4419 C   0  0  0  0  0  0  0  0  0  0  0  0
   11.5476    8.1551   -4.9950 C   0  0  0  0  0  0  0  0  0  0  0  0
   11.6859    6.9455   -4.2837 C   0  0  0  0  0  0  0  0  0  0  0  0
   12.0379    6.9437   -2.9205 C   0  0  0  0  0  0  0  0  0  0  0  0
   12.2404    8.1621   -2.2488 C   0  0  0  0  0  0  0  0  0  0  0  0
   12.0859    9.3729   -2.9424 C   0  0  0  0  0  0  0  0  0  0  0  0
   11.7424    9.3735   -4.3050 C   0  0  0  0  0  0  0  0  0  0  0  0
    9.3488    5.6479  -10.3194 C   0  0  0  0  0  0  0  0  0  0  0  0
    8.2591    4.8613  -11.0618 C   0  0  0  0  0  0  0  0  0  0  0  0
    6.0853    1.2730  -14.9398 H   0  0  0  0  0  0  0  0  0  0  0  0
    7.3556    2.4323  -15.3343 H   0  0  0  0  0  0  0  0  0  0  0  0
    7.6401    1.1851  -14.1161 H   0  0  0  0  0  0  0  0  0  0  0  0
    5.8599    2.3121  -12.6172 H   0  0  0  0  0  0  0  0  0  0  0  0
    7.0851    4.5732  -14.2473 H   0  0  0  0  0  0  0  0  0  0  0  0
    5.5872    4.4986  -11.5428 H   0  0  0  0  0  0  0  0  0  0  0  0
    5.4153    5.7806  -12.7231 H   0  0  0  0  0  0  0  0  0  0  0  0
    7.1304    7.4410  -12.9925 H   0  0  0  0  0  0  0  0  0  0  0  0
    8.3628    6.2732  -13.4470 H   0  0  0  0  0  0  0  0  0  0  0  0
    8.4862    8.1844  -11.0543 H   0  0  0  0  0  0  0  0  0  0  0  0
    9.4039    8.3172  -12.5274 H   0  0  0  0  0  0  0  0  0  0  0  0
   10.4944    6.1474  -12.0711 H   0  0  0  0  0  0  0  0  0  0  0  0
   11.3161    8.4042  -11.1294 H   0  0  0  0  0  0  0  0  0  0  0  0
   12.0792    6.9690  -10.5253 H   0  0  0  0  0  0  0  0  0  0  0  0
   10.3834    9.7720   -9.0875 H   0  0  0  0  0  0  0  0  0  0  0  0
   12.0892    9.3720   -9.2664 H   0  0  0  0  0  0  0  0  0  0  0  0
   11.6623   10.1195   -6.9340 H   0  0  0  0  0  0  0  0  0  0  0  0
   10.9932    7.1405   -6.8322 H   0  0  0  0  0  0  0  0  0  0  0  0
   11.5481    6.0024   -4.7935 H   0  0  0  0  0  0  0  0  0  0  0  0
   12.1516    6.0081   -2.3929 H   0  0  0  0  0  0  0  0  0  0  0  0
   12.5047    8.1733   -1.2025 H   0  0  0  0  0  0  0  0  0  0  0  0
   12.2199   10.3113   -2.4241 H   0  0  0  0  0  0  0  0  0  0  0  0
   11.6343   10.3221   -4.8054 H   0  0  0  0  0  0  0  0  0  0  0  0
   10.0853    4.9580   -9.9063 H   0  0  0  0  0  0  0  0  0  0  0  0
    8.8902    6.1498   -9.4651 H   0  0  0  0  0  0  0  0  0  0  0  0
    7.7427    4.1981  -10.3657 H   0  0  0  0  0  0  0  0  0  0  0  0
    8.7268    4.2278  -11.8159 H   0  0  0  0  0  0  0  0  0  0  0  0
    6.8824    6.3524  -10.9509 H   0  0  0  0  0  0  0  0  0  0  0  0
  2  1  1  0
  3  2  2  0
  4  3  1  0
  5  4  1  0
  6  5  1  0
  7  6  1  0
  8  7  1  0
  9  8  1  0
 10  9  1  0
 11 10  1  0
 12 11  1  0
 13 12  2  0
 14 13  1  0
 15 14  2  0
 16 15  1  0
 17 16  2  0
 18 17  1  0
 19 14  1  0
 19 18  2  0
 20  8  1  0
 21  5  1  0
 21 20  1  0
 22  1  1  0
 23  1  1  0
 24  1  1  0
 25  2  1  0
 26  3  1  0
 27  4  1  0
 28  4  1  0
 29  6  1  0
 30  6  1  0
 31  7  1  0
 32  7  1  0
  8 33  1  6
 34  9  1  0
 35  9  1  0
 36 11  1  0
 37 11  1  0
 38 12  1  0
 39 13  1  0
 40 15  1  0
 41 16  1  0
 42 17  1  0
 43 18  1  0
 44 19  1  0
 45 20  1  0
 46 20  1  0
 47 21  1  0
 48 21  1  0
  5 49  1  1
M  CHG  1   5   1
M  END
>  <b_m_subgroup_collapsed>  (1423) 
0

>  <r_i_docking_score>  (1423) 
-5.7976169554294996

>  <s_m_subgroup_title>  (1423) 
glide-dock_SP_D22_pv

>  <s_m_subgroupid>  (1423) 
glide-dock_SP_D22_pv

>  <Molecule ChEMBL ID>  (1423) 
CHEMBL76475

>  <Standard Type>  (1423) 
Ki

>  <Standard Value>  (1423) 
10000.0

>  <label>  (1423) 
0

$$$$
CHEMBL396561
     RDKit          3D

 49 52  0  0  1  0  0  0  0  0999 V2000
    5.5044    0.9723  -18.9699 C   0  0  0  0  0  0  0  0  0  0  0  0
    6.8435    1.3729  -19.2411 O   0  0  0  0  0  0  0  0  0  0  0  0
    7.7272    1.4338  -18.1855 C   0  0  0  0  0  0  0  0  0  0  0  0
    7.3702    1.1846  -16.8407 C   0  0  0  0  0  0  0  0  0  0  0  0
    8.3311    1.2951  -15.8222 C   0  0  0  0  0  0  0  0  0  0  0  0
    9.6649    1.6493  -16.1127 C   0  0  0  0  0  0  0  0  0  0  0  0
   10.0432    1.8830  -17.4629 C   0  0  0  0  0  0  0  0  0  0  0  0
    9.0628    1.7758  -18.4777 C   0  0  0  0  0  0  0  0  0  0  0  0
   11.4686    2.2303  -17.8842 C   0  0  0  0  0  0  0  0  0  0  0  0
   11.6336    3.6738  -18.3872 C   0  0  0  0  0  0  0  0  0  0  0  0
   11.1805    4.7021  -17.4085 N   0  0  2  0  0  0  0  0  0  0  0  0
   10.4544    5.7999  -18.0947 C   0  0  0  0  0  0  0  0  0  0  0  0
   12.2655    5.2286  -16.5317 C   0  0  0  0  0  0  0  0  0  0  0  0
   12.5505    4.3494  -15.3013 C   0  0  0  0  0  0  0  0  0  0  0  0
   11.3673    4.2037  -14.3901 C   0  0  0  0  0  0  0  0  0  0  0  0
   10.5594    3.0972  -14.2674 C   0  0  0  0  0  0  0  0  0  0  0  0
    9.5772    3.3736  -13.3326 N   0  0  0  0  0  0  0  0  0  0  0  0
    9.7267    4.6370  -12.8045 C   0  0  0  0  0  0  0  0  0  0  0  0
    8.9980    5.3450  -11.8326 C   0  0  0  0  0  0  0  0  0  0  0  0
    9.4205    6.6335  -11.4613 C   0  0  0  0  0  0  0  0  0  0  0  0
   10.5674    7.1891  -12.0583 C   0  0  0  0  0  0  0  0  0  0  0  0
   11.2820    6.4762  -13.0464 C   0  0  0  0  0  0  0  0  0  0  0  0
   10.8765    5.1798  -13.4487 C   0  0  0  0  0  0  0  0  0  0  0  0
   10.6268    1.7589  -14.9376 C   0  0  0  0  0  0  0  0  0  0  0  0
    4.9377    0.9432  -19.8989 H   0  0  0  0  0  0  0  0  0  0  0  0
    5.0044    1.6755  -18.3043 H   0  0  0  0  0  0  0  0  0  0  0  0
    5.4671   -0.0258  -18.5317 H   0  0  0  0  0  0  0  0  0  0  0  0
    6.3647    0.9087  -16.5628 H   0  0  0  0  0  0  0  0  0  0  0  0
    8.0345    1.1011  -14.8019 H   0  0  0  0  0  0  0  0  0  0  0  0
    9.3392    1.9509  -19.5081 H   0  0  0  0  0  0  0  0  0  0  0  0
   12.2101    2.0042  -17.1258 H   0  0  0  0  0  0  0  0  0  0  0  0
   11.7306    1.5575  -18.7038 H   0  0  0  0  0  0  0  0  0  0  0  0
   12.6662    3.8495  -18.6946 H   0  0  0  0  0  0  0  0  0  0  0  0
   11.0490    3.7581  -19.3037 H   0  0  0  0  0  0  0  0  0  0  0  0
   11.1024    6.3148  -18.8071 H   0  0  0  0  0  0  0  0  0  0  0  0
   10.0866    6.5374  -17.3846 H   0  0  0  0  0  0  0  0  0  0  0  0
    9.5891    5.4121  -18.6337 H   0  0  0  0  0  0  0  0  0  0  0  0
   13.1826    5.3822  -17.1044 H   0  0  0  0  0  0  0  0  0  0  0  0
   11.9872    6.2158  -16.1619 H   0  0  0  0  0  0  0  0  0  0  0  0
   12.9285    3.3756  -15.6049 H   0  0  0  0  0  0  0  0  0  0  0  0
   13.3665    4.8082  -14.7409 H   0  0  0  0  0  0  0  0  0  0  0  0
    8.8969    2.6902  -13.0330 H   0  0  0  0  0  0  0  0  0  0  0  0
    8.1284    4.9081  -11.3657 H   0  0  0  0  0  0  0  0  0  0  0  0
    8.8623    7.1830  -10.7144 H   0  0  0  0  0  0  0  0  0  0  0  0
   10.8925    8.1719  -11.7580 H   0  0  0  0  0  0  0  0  0  0  0  0
   12.1618    6.9186  -13.4904 H   0  0  0  0  0  0  0  0  0  0  0  0
   10.3577    0.9846  -14.2183 H   0  0  0  0  0  0  0  0  0  0  0  0
   11.6486    1.5090  -15.2069 H   0  0  0  0  0  0  0  0  0  0  0  0
   10.5051    4.2554  -16.8026 H   0  0  0  0  0  0  0  0  0  0  0  0
  2  1  1  0
  3  2  1  0
  4  3  1  0
  5  4  2  0
  6  5  1  0
  7  6  2  0
  8  3  2  0
  8  7  1  0
  9  7  1  0
 10  9  1  0
 11 10  1  0
 12 11  1  0
 13 11  1  0
 14 13  1  0
 15 14  1  0
 16 15  2  0
 17 16  1  0
 18 17  1  0
 19 18  2  0
 20 19  1  0
 21 20  2  0
 22 21  1  0
 23 15  1  0
 23 18  1  0
 23 22  2  0
 24  6  1  0
 24 16  1  0
 25  1  1  0
 26  1  1  0
 27  1  1  0
 28  4  1  0
 29  5  1  0
 30  8  1  0
 31  9  1  0
 32  9  1  0
 33 10  1  0
 34 10  1  0
 35 12  1  0
 36 12  1  0
 37 12  1  0
 38 13  1  0
 39 13  1  0
 40 14  1  0
 41 14  1  0
 42 17  1  0
 43 19  1  0
 44 20  1  0
 45 21  1  0
 46 22  1  0
 47 24  1  0
 48 24  1  0
 11 49  1  1
M  CHG  1  11   1
M  END
>  <b_m_subgroup_collapsed>  (1424) 
0

>  <r_i_docking_score>  (1424) 
-5.7907655510559604

>  <s_m_subgroup_title>  (1424) 
glide-dock_SP_D22_pv

>  <s_m_subgroupid>  (1424) 
glide-dock_SP_D22_pv

>  <Molecule ChEMBL ID>  (1424) 
CHEMBL396561

>  <Standard Type>  (1424) 
Ki

>  <Standard Value>  (1424) 
22.8

>  <label>  (1424) 
1

$$$$
CHEMBL4457754
     RDKit          3D

 41 44  0  0  1  0  0  0  0  0999 V2000
    5.9948    5.7796  -12.5515 C   0  0  0  0  0  0  0  0  0  0  0  0
    7.0965    4.7321  -12.7622 C   0  0  1  0  0  0  0  0  0  0  0  0
    6.5657    3.6183  -13.6861 C   0  0  0  0  0  0  0  0  0  0  0  0
    7.5632    2.6163  -14.0627 N   0  0  0  0  0  0  0  0  0  0  0  0
    6.9569    1.4738  -14.6152 C   0  0  0  0  0  0  0  0  0  0  0  0
    6.8863    1.3005  -16.0157 C   0  0  0  0  0  0  0  0  0  0  0  0
    6.2439    0.1717  -16.5616 C   0  0  0  0  0  0  0  0  0  0  0  0
    5.6675   -0.7898  -15.7100 C   0  0  0  0  0  0  0  0  0  0  0  0
    5.7432   -0.6301  -14.3141 C   0  0  0  0  0  0  0  0  0  0  0  0
    6.3830    0.4990  -13.7698 C   0  0  0  0  0  0  0  0  0  0  0  0
    8.8650    3.0745  -14.3682 C   0  0  0  0  0  0  0  0  0  0  0  0
    9.7868    2.1975  -14.9920 C   0  0  0  0  0  0  0  0  0  0  0  0
   11.0768    2.6295  -15.3471 C   0  0  0  0  0  0  0  0  0  0  0  0
   11.4725    3.9490  -15.0761 C   0  0  0  0  0  0  0  0  0  0  0  0
   10.5820    4.8239  -14.4305 C   0  0  0  0  0  0  0  0  0  0  0  0
    9.2910    4.3929  -14.0485 C   0  0  0  0  0  0  0  0  0  0  0  0
    8.3883    5.3708  -13.2999 C   0  0  2  0  0  0  0  0  0  0  0  0
    9.0435    5.9268  -12.0241 C   0  0  0  0  0  0  0  0  0  0  0  0
    8.6047    4.9745  -10.9105 C   0  0  0  0  0  0  0  0  0  0  0  0
    7.4743    4.1907  -11.4466 N   0  0  0  0  0  0  0  0  0  0  0  0
    5.4077    5.9540  -13.4484 H   0  0  0  0  0  0  0  0  0  0  0  0
    5.2922    5.4614  -11.7815 H   0  0  0  0  0  0  0  0  0  0  0  0
    6.3878    6.7485  -12.2470 H   0  0  0  0  0  0  0  0  0  0  0  0
    6.1760    4.0567  -14.6056 H   0  0  0  0  0  0  0  0  0  0  0  0
    5.7143    3.1321  -13.2058 H   0  0  0  0  0  0  0  0  0  0  0  0
    7.3165    2.0392  -16.6750 H   0  0  0  0  0  0  0  0  0  0  0  0
    6.1898    0.0427  -17.6328 H   0  0  0  0  0  0  0  0  0  0  0  0
    5.1797   -1.6597  -16.1265 H   0  0  0  0  0  0  0  0  0  0  0  0
    5.3160   -1.3842  -13.6730 H   0  0  0  0  0  0  0  0  0  0  0  0
    6.4437    0.6039  -12.6973 H   0  0  0  0  0  0  0  0  0  0  0  0
    9.5155    1.1758  -15.2129 H   0  0  0  0  0  0  0  0  0  0  0  0
   11.7619    1.9469  -15.8300 H   0  0  0  0  0  0  0  0  0  0  0  0
   12.4606    4.2860  -15.3546 H   0  0  0  0  0  0  0  0  0  0  0  0
   10.9046    5.8337  -14.2225 H   0  0  0  0  0  0  0  0  0  0  0  0
    8.1561    6.1708  -13.9986 H   0  0  0  0  0  0  0  0  0  0  0  0
   10.1248    6.0453  -12.0768 H   0  0  0  0  0  0  0  0  0  0  0  0
    8.6377    6.9180  -11.8108 H   0  0  0  0  0  0  0  0  0  0  0  0
    9.4130    4.2965  -10.6332 H   0  0  0  0  0  0  0  0  0  0  0  0
    8.3019    5.5229  -10.0170 H   0  0  0  0  0  0  0  0  0  0  0  0
    7.7938    3.2436  -11.5953 H   0  0  0  0  0  0  0  0  0  0  0  0
    6.6929    4.2005  -10.7988 H   0  0  0  0  0  0  0  0  0  0  0  0
  2  1  1  1
  3  2  1  0
  4  3  1  0
  5  4  1  0
  6  5  2  0
  7  6  1  0
  8  7  2  0
  9  8  1  0
 10  5  1  0
 10  9  2  0
 11  4  1  0
 12 11  2  0
 13 12  1  0
 14 13  2  0
 15 14  1  0
 16 11  1  0
 16 15  2  0
 17  2  1  0
 17 16  1  0
 18 17  1  0
 19 18  1  0
 20  2  1  0
 20 19  1  0
 21  1  1  0
 22  1  1  0
 23  1  1  0
 24  3  1  0
 25  3  1  0
 26  6  1  0
 27  7  1  0
 28  8  1  0
 29  9  1  0
 30 10  1  0
 31 12  1  0
 32 13  1  0
 33 14  1  0
 34 15  1  0
 17 35  1  6
 36 18  1  0
 37 18  1  0
 38 19  1  0
 39 19  1  0
 40 20  1  0
 41 20  1  0
M  CHG  1  20   1
M  END
>  <b_m_subgroup_collapsed>  (1425) 
0

>  <r_i_docking_score>  (1425) 
-5.7895988800114102

>  <s_m_subgroup_title>  (1425) 
glide-dock_SP_D22_pv

>  <s_m_subgroupid>  (1425) 
glide-dock_SP_D22_pv

>  <Molecule ChEMBL ID>  (1425) 
CHEMBL4457754

>  <Standard Type>  (1425) 
Ki

>  <Standard Value>  (1425) 
10000.0

>  <label>  (1425) 
0

$$$$
CHEMBL2165673
     RDKit          3D

 30 31  0  0  1  0  0  0  0  0999 V2000
   12.3417    8.2733   -2.5740 C   0  0  0  0  0  0  0  0  0  0  0  0
   11.6858    8.2493   -3.8936 N   0  0  0  0  0  0  0  0  0  0  0  0
   11.5166    6.8767   -4.4264 C   0  0  0  0  0  0  0  0  0  0  0  0
   10.7542    6.8700   -5.7555 C   0  0  0  0  0  0  0  0  0  0  0  0
   11.2857    7.8450   -6.7041 N   0  0  0  0  0  0  0  0  0  0  0  0
   11.1518    7.6767   -8.1080 C   0  0  0  0  0  0  0  0  0  0  0  0
   12.1328    8.2808   -8.9296 C   0  0  0  0  0  0  0  0  0  0  0  0
   12.0921    8.1729  -10.3303 C   0  0  0  0  0  0  0  0  0  0  0  0
   11.0677    7.4443  -10.9496 C   0  0  0  0  0  0  0  0  0  0  0  0
   10.0911    6.8104  -10.1655 C   0  0  0  0  0  0  0  0  0  0  0  0
    8.8884    5.8591  -10.9660 Cl  0  0  0  0  0  0  0  0  0  0  0  0
   10.1191    6.9257   -8.7545 C   0  0  0  0  0  0  0  0  0  0  0  0
    8.8571    6.1355   -7.8833 Cl  0  0  0  0  0  0  0  0  0  0  0  0
   11.4634    9.2006   -6.1860 C   0  0  0  0  0  0  0  0  0  0  0  0
   12.2709    9.1894   -4.8732 C   0  0  0  0  0  0  0  0  0  0  0  0
   13.3024    7.7768   -2.6456 H   0  0  0  0  0  0  0  0  0  0  0  0
   12.4904    9.2919   -2.2129 H   0  0  0  0  0  0  0  0  0  0  0  0
   11.7360    7.7394   -1.8417 H   0  0  0  0  0  0  0  0  0  0  0  0
   10.9892    6.2561   -3.7004 H   0  0  0  0  0  0  0  0  0  0  0  0
   12.4860    6.4192   -4.5744 H   0  0  0  0  0  0  0  0  0  0  0  0
    9.7032    7.0916   -5.5657 H   0  0  0  0  0  0  0  0  0  0  0  0
   10.8190    5.8683   -6.1788 H   0  0  0  0  0  0  0  0  0  0  0  0
   12.9535    8.8314   -8.4935 H   0  0  0  0  0  0  0  0  0  0  0  0
   12.8560    8.6473  -10.9295 H   0  0  0  0  0  0  0  0  0  0  0  0
   11.0410    7.3545  -12.0258 H   0  0  0  0  0  0  0  0  0  0  0  0
   11.9440    9.8647   -6.9028 H   0  0  0  0  0  0  0  0  0  0  0  0
   10.4737    9.6221   -6.0058 H   0  0  0  0  0  0  0  0  0  0  0  0
   12.2407   10.1723   -4.4273 H   0  0  0  0  0  0  0  0  0  0  0  0
   13.3239    8.9725   -5.0468 H   0  0  0  0  0  0  0  0  0  0  0  0
   10.7507    8.5943   -3.7408 H   0  0  0  0  0  0  0  0  0  0  0  0
  2  1  1  0
  3  2  1  0
  4  3  1  0
  5  4  1  0
  6  5  1  0
  7  6  2  0
  8  7  1  0
  9  8  2  0
 10  9  1  0
 11 10  1  0
 12  6  1  0
 12 10  2  0
 13 12  1  0
 14  5  1  0
 15  2  1  0
 15 14  1  0
 16  1  1  0
 17  1  1  0
 18  1  1  0
 19  3  1  0
 20  3  1  0
 21  4  1  0
 22  4  1  0
 23  7  1  0
 24  8  1  0
 25  9  1  0
 26 14  1  0
 27 14  1  0
 28 15  1  0
 29 15  1  0
 30  2  1  0
M  CHG  1   2   1
M  END
>  <b_m_subgroup_collapsed>  (1426) 
0

>  <r_i_docking_score>  (1426) 
-5.7890999943085104

>  <s_m_subgroup_title>  (1426) 
glide-dock_SP_D22_pv

>  <s_m_subgroupid>  (1426) 
glide-dock_SP_D22_pv

>  <Molecule ChEMBL ID>  (1426) 
CHEMBL2165673

>  <Standard Type>  (1426) 
Ki

>  <Standard Value>  (1426) 
45.9

>  <label>  (1426) 
1

$$$$
CHEMBL497340
     RDKit          3D

 49 50  0  0  1  0  0  0  0  0999 V2000
    8.7408    6.1721   -7.2804 C   0  0  0  0  0  0  0  0  0  0  0  0
    8.8860    7.5180   -8.0153 C   0  0  0  0  0  0  0  0  0  0  0  0
   10.2560    7.9095   -8.3802 N   0  0  0  0  0  0  0  0  0  0  0  0
   10.7251    7.1550   -9.5458 C   0  0  0  0  0  0  0  0  0  0  0  0
   10.1107    7.6634  -10.8669 C   0  0  0  0  0  0  0  0  0  0  0  0
   10.4859    6.7694  -12.0345 C   0  0  0  0  0  0  0  0  0  0  0  0
   11.6907    6.9724  -12.7380 C   0  0  0  0  0  0  0  0  0  0  0  0
   12.0450    6.1119  -13.7948 C   0  0  0  0  0  0  0  0  0  0  0  0
   11.2011    5.0423  -14.1484 C   0  0  0  0  0  0  0  0  0  0  0  0
    9.9880    4.8233  -13.4465 C   0  0  0  0  0  0  0  0  0  0  0  0
    9.1020    3.7976  -13.7110 O   0  0  0  0  0  0  0  0  0  0  0  0
    9.4034    2.8226  -14.6110 C   0  0  0  0  0  0  0  0  0  0  0  0
    9.5116    3.3137  -15.8709 F   0  0  0  0  0  0  0  0  0  0  0  0
   10.5451    2.1641  -14.2832 F   0  0  0  0  0  0  0  0  0  0  0  0
    8.4075    1.9040  -14.6320 F   0  0  0  0  0  0  0  0  0  0  0  0
    9.6422    5.7005  -12.3980 C   0  0  0  0  0  0  0  0  0  0  0  0
   11.2114    7.7874   -7.2789 C   0  0  0  0  0  0  0  0  0  0  0  0
   10.8056    8.5995   -6.0261 C   0  0  0  0  0  0  0  0  0  0  0  0
   11.6867    8.2969   -4.8772 N   0  0  0  0  0  0  0  0  0  0  0  0
   11.5562    9.2003   -3.7178 C   0  0  0  0  0  0  0  0  0  0  0  0
   12.2201    8.4588   -2.5513 C   0  0  0  0  0  0  0  0  0  0  0  0
   12.2532    6.9798   -2.9648 C   0  0  0  0  0  0  0  0  0  0  0  0
   11.5966    6.9195   -4.3449 C   0  0  0  0  0  0  0  0  0  0  0  0
    7.6889    5.9579   -7.0925 H   0  0  0  0  0  0  0  0  0  0  0  0
    9.1382    5.3379   -7.8561 H   0  0  0  0  0  0  0  0  0  0  0  0
    9.2281    6.1732   -6.3075 H   0  0  0  0  0  0  0  0  0  0  0  0
    8.4356    8.3059   -7.4124 H   0  0  0  0  0  0  0  0  0  0  0  0
    8.2722    7.4734   -8.9084 H   0  0  0  0  0  0  0  0  0  0  0  0
   10.5209    6.0923   -9.4142 H   0  0  0  0  0  0  0  0  0  0  0  0
   11.8091    7.2490   -9.6325 H   0  0  0  0  0  0  0  0  0  0  0  0
   10.4550    8.6788  -11.0605 H   0  0  0  0  0  0  0  0  0  0  0  0
    9.0236    7.7205  -10.8272 H   0  0  0  0  0  0  0  0  0  0  0  0
   12.3575    7.7746  -12.4621 H   0  0  0  0  0  0  0  0  0  0  0  0
   12.9740    6.2666  -14.3260 H   0  0  0  0  0  0  0  0  0  0  0  0
   11.5077    4.4004  -14.9595 H   0  0  0  0  0  0  0  0  0  0  0  0
    8.7225    5.5370  -11.8540 H   0  0  0  0  0  0  0  0  0  0  0  0
   11.3330    6.7311   -7.0422 H   0  0  0  0  0  0  0  0  0  0  0  0
   12.1868    8.1361   -7.6214 H   0  0  0  0  0  0  0  0  0  0  0  0
   10.8568    9.6654   -6.2547 H   0  0  0  0  0  0  0  0  0  0  0  0
    9.7795    8.3953   -5.7248 H   0  0  0  0  0  0  0  0  0  0  0  0
   12.0117   10.1722   -3.9072 H   0  0  0  0  0  0  0  0  0  0  0  0
   10.5026    9.3722   -3.4974 H   0  0  0  0  0  0  0  0  0  0  0  0
   13.2364    8.8251   -2.3981 H   0  0  0  0  0  0  0  0  0  0  0  0
   11.6860    8.6142   -1.6152 H   0  0  0  0  0  0  0  0  0  0  0  0
   13.2865    6.6402   -3.0403 H   0  0  0  0  0  0  0  0  0  0  0  0
   11.7438    6.3356   -2.2473 H   0  0  0  0  0  0  0  0  0  0  0  0
   10.5547    6.6076   -4.2540 H   0  0  0  0  0  0  0  0  0  0  0  0
   12.0868    6.1944   -4.9955 H   0  0  0  0  0  0  0  0  0  0  0  0
   12.6363    8.4178   -5.1985 H   0  0  0  0  0  0  0  0  0  0  0  0
  2  1  1  0
  3  2  1  0
  4  3  1  0
  5  4  1  0
  6  5  1  0
  7  6  2  0
  8  7  1  0
  9  8  2  0
 10  9  1  0
 11 10  1  0
 12 11  1  0
 13 12  1  0
 14 12  1  0
 15 12  1  0
 16  6  1  0
 16 10  2  0
 17  3  1  0
 18 17  1  0
 19 18  1  0
 20 19  1  0
 21 20  1  0
 22 21  1  0
 23 19  1  0
 23 22  1  0
 24  1  1  0
 25  1  1  0
 26  1  1  0
 27  2  1  0
 28  2  1  0
 29  4  1  0
 30  4  1  0
 31  5  1  0
 32  5  1  0
 33  7  1  0
 34  8  1  0
 35  9  1  0
 36 16  1  0
 37 17  1  0
 38 17  1  0
 39 18  1  0
 40 18  1  0
 41 20  1  0
 42 20  1  0
 43 21  1  0
 44 21  1  0
 45 22  1  0
 46 22  1  0
 47 23  1  0
 48 23  1  0
 49 19  1  0
M  CHG  1  19   1
M  END
>  <b_m_subgroup_collapsed>  (1427) 
0

>  <r_i_docking_score>  (1427) 
-5.7885344142477697

>  <s_m_subgroup_title>  (1427) 
glide-dock_SP_D22_pv

>  <s_m_subgroupid>  (1427) 
glide-dock_SP_D22_pv

>  <Molecule ChEMBL ID>  (1427) 
CHEMBL497340

>  <Standard Type>  (1427) 
Ki

>  <Standard Value>  (1427) 
10000.0

>  <label>  (1427) 
0

$$$$
CHEMBL5075726
     RDKit          3D

 76 80  0  0  1  0  0  0  0  0999 V2000
   15.8872   -0.4288  -19.9050 C   0  0  0  0  0  0  0  0  0  0  0  0
   14.7651    0.6011  -19.8101 C   0  0  0  0  0  0  0  0  0  0  0  0
   15.3452    1.8895  -19.8477 O   0  0  0  0  0  0  0  0  0  0  0  0
   14.5648    2.9762  -19.8503 C   0  0  0  0  0  0  0  0  0  0  0  0
   13.3388    2.9358  -19.7608 O   0  0  0  0  0  0  0  0  0  0  0  0
   15.4024    4.1858  -19.9896 C   0  0  0  0  0  0  0  0  0  0  0  0
   15.0225    5.4835  -19.8598 C   0  0  0  0  0  0  0  0  0  0  0  0
   13.6156    5.9511  -19.4768 C   0  0  2  0  0  0  0  0  0  0  0  0
   13.0287    6.9146  -20.5367 C   0  0  0  0  0  0  0  0  0  0  0  0
   13.9712    8.0348  -21.0192 C   0  0  0  0  0  0  0  0  0  0  0  0
   15.4395    7.5924  -21.1389 C   0  0  0  0  0  0  0  0  0  0  0  0
   15.9742    6.6909  -19.9884 C   0  0  2  0  0  0  0  0  0  0  0  0
   17.4461    6.3377  -20.3579 C   0  0  0  0  0  0  0  0  0  0  0  0
   18.5509    6.8072  -19.5982 C   0  0  0  0  0  0  0  0  0  0  0  0
   19.8728    6.4761  -19.9516 C   0  0  0  0  0  0  0  0  0  0  0  0
   20.1237    5.6502  -21.0601 C   0  0  0  0  0  0  0  0  0  0  0  0
   19.0521    5.1898  -21.8437 C   0  0  0  0  0  0  0  0  0  0  0  0
   19.2860    4.3698  -22.9114 O   0  0  0  0  0  0  0  0  0  0  0  0
   17.7336    5.5642  -21.5148 C   0  0  0  0  0  0  0  0  0  0  0  0
   15.9042    7.4326  -18.6097 C   0  0  0  0  0  0  0  0  0  0  0  0
   14.5012    7.6418  -17.9767 C   0  0  0  0  0  0  0  0  0  0  0  0
   13.6027    6.4887  -18.1076 N   0  0  0  0  0  0  0  0  0  0  0  0
   13.9758    5.4381  -17.1501 C   0  0  0  0  0  0  0  0  0  0  0  0
   13.4742    5.7216  -15.7231 C   0  0  0  0  0  0  0  0  0  0  0  0
   12.2211    4.9940  -15.4023 N   0  0  0  0  0  0  0  0  0  0  0  0
   11.9920    4.9175  -13.9328 C   0  0  0  0  0  0  0  0  0  0  0  0
   10.7235    4.1160  -13.5971 C   0  0  0  0  0  0  0  0  0  0  0  0
    9.6053    4.6435  -14.3567 N   0  0  0  0  0  0  0  0  0  0  0  0
    8.3343    4.5731  -13.7722 C   0  0  0  0  0  0  0  0  0  0  0  0
    7.9060    5.7018  -13.0467 C   0  0  0  0  0  0  0  0  0  0  0  0
    6.6637    5.6993  -12.3932 C   0  0  0  0  0  0  0  0  0  0  0  0
    5.8569    4.5523  -12.4269 C   0  0  0  0  0  0  0  0  0  0  0  0
    6.2764    3.4085  -13.1315 C   0  0  0  0  0  0  0  0  0  0  0  0
    5.2867    1.9912  -13.0472 Cl  0  0  0  0  0  0  0  0  0  0  0  0
    7.5065    3.4204  -13.8387 C   0  0  0  0  0  0  0  0  0  0  0  0
    8.0222    2.0086  -14.6985 Cl  0  0  0  0  0  0  0  0  0  0  0  0
    9.7518    4.7341  -15.7996 C   0  0  0  0  0  0  0  0  0  0  0  0
   11.0359    5.5142  -16.1425 C   0  0  0  0  0  0  0  0  0  0  0  0
   15.4611   -1.4277  -19.9329 H   0  0  0  0  0  0  0  0  0  0  0  0
   16.4774   -0.2933  -20.8129 H   0  0  0  0  0  0  0  0  0  0  0  0
   16.5604   -0.3659  -19.0488 H   0  0  0  0  0  0  0  0  0  0  0  0
   14.2006    0.4681  -18.8862 H   0  0  0  0  0  0  0  0  0  0  0  0
   14.0727    0.4777  -20.6439 H   0  0  0  0  0  0  0  0  0  0  0  0
   16.4324    3.9600  -20.1999 H   0  0  0  0  0  0  0  0  0  0  0  0
   12.9077    5.1322  -19.4534 H   0  0  0  0  0  0  0  0  0  0  0  0
   12.7693    6.3123  -21.4081 H   0  0  0  0  0  0  0  0  0  0  0  0
   12.0884    7.3410  -20.1868 H   0  0  0  0  0  0  0  0  0  0  0  0
   13.6273    8.3945  -21.9897 H   0  0  0  0  0  0  0  0  0  0  0  0
   13.8990    8.9101  -20.3783 H   0  0  0  0  0  0  0  0  0  0  0  0
   16.0702    8.4761  -21.2451 H   0  0  0  0  0  0  0  0  0  0  0  0
   15.5304    7.0565  -22.0838 H   0  0  0  0  0  0  0  0  0  0  0  0
   18.4256    7.4344  -18.7310 H   0  0  0  0  0  0  0  0  0  0  0  0
   20.7000    6.8357  -19.3572 H   0  0  0  0  0  0  0  0  0  0  0  0
   21.1389    5.3712  -21.3101 H   0  0  0  0  0  0  0  0  0  0  0  0
   20.2222    4.1724  -23.0468 H   0  0  0  0  0  0  0  0  0  0  0  0
   16.9290    5.2072  -22.1405 H   0  0  0  0  0  0  0  0  0  0  0  0
   16.4737    6.8576  -17.8796 H   0  0  0  0  0  0  0  0  0  0  0  0
   16.3951    8.4044  -18.6785 H   0  0  0  0  0  0  0  0  0  0  0  0
   14.0101    8.5126  -18.3999 H   0  0  0  0  0  0  0  0  0  0  0  0
   14.6157    7.9065  -16.9270 H   0  0  0  0  0  0  0  0  0  0  0  0
   13.5715    4.4761  -17.4688 H   0  0  0  0  0  0  0  0  0  0  0  0
   15.0578    5.3042  -17.1363 H   0  0  0  0  0  0  0  0  0  0  0  0
   14.2527    5.3734  -15.0480 H   0  0  0  0  0  0  0  0  0  0  0  0
   13.3571    6.7853  -15.5178 H   0  0  0  0  0  0  0  0  0  0  0  0
   12.8517    4.4609  -13.4406 H   0  0  0  0  0  0  0  0  0  0  0  0
   11.9025    5.9288  -13.5313 H   0  0  0  0  0  0  0  0  0  0  0  0
   10.8597    3.0620  -13.8453 H   0  0  0  0  0  0  0  0  0  0  0  0
   10.5121    4.1680  -12.5279 H   0  0  0  0  0  0  0  0  0  0  0  0
    8.5299    6.5816  -12.9940 H   0  0  0  0  0  0  0  0  0  0  0  0
    6.3338    6.5702  -11.8470 H   0  0  0  0  0  0  0  0  0  0  0  0
    4.9244    4.5533  -11.8828 H   0  0  0  0  0  0  0  0  0  0  0  0
    9.7929    3.7296  -16.2223 H   0  0  0  0  0  0  0  0  0  0  0  0
    8.8887    5.2349  -16.2370 H   0  0  0  0  0  0  0  0  0  0  0  0
   10.8973    6.5657  -15.8917 H   0  0  0  0  0  0  0  0  0  0  0  0
   11.2041    5.4664  -17.2182 H   0  0  0  0  0  0  0  0  0  0  0  0
   12.3481    4.0417  -15.7127 H   0  0  0  0  0  0  0  0  0  0  0  0
  2  1  1  0
  3  2  1  0
  4  3  1  0
  5  4  2  0
  6  4  1  0
  7  6  2  0
  8  7  1  0
  9  8  1  0
 10  9  1  0
 11 10  1  0
 12  7  1  0
 12 11  1  0
 12 13  1  6
 14 13  2  0
 15 14  1  0
 16 15  2  0
 17 16  1  0
 18 17  1  0
 19 13  1  0
 19 17  2  0
 20 12  1  0
 21 20  1  0
 22  8  1  0
 22 21  1  0
 23 22  1  0
 24 23  1  0
 25 24  1  0
 26 25  1  0
 27 26  1  0
 28 27  1  0
 29 28  1  0
 30 29  2  0
 31 30  1  0
 32 31  2  0
 33 32  1  0
 34 33  1  0
 35 29  1  0
 35 33  2  0
 36 35  1  0
 37 28  1  0
 38 25  1  0
 38 37  1  0
 39  1  1  0
 40  1  1  0
 41  1  1  0
 42  2  1  0
 43  2  1  0
 44  6  1  0
  8 45  1  1
 46  9  1  0
 47  9  1  0
 48 10  1  0
 49 10  1  0
 50 11  1  0
 51 11  1  0
 52 14  1  0
 53 15  1  0
 54 16  1  0
 55 18  1  0
 56 19  1  0
 57 20  1  0
 58 20  1  0
 59 21  1  0
 60 21  1  0
 61 23  1  0
 62 23  1  0
 63 24  1  0
 64 24  1  0
 65 26  1  0
 66 26  1  0
 67 27  1  0
 68 27  1  0
 69 30  1  0
 70 31  1  0
 71 32  1  0
 72 37  1  0
 73 37  1  0
 74 38  1  0
 75 38  1  0
 76 25  1  0
M  CHG  1  25   1
M  END
>  <b_m_subgroup_collapsed>  (1428) 
0

>  <r_i_docking_score>  (1428) 
-5.7880554099668204

>  <s_m_subgroup_title>  (1428) 
glide-dock_SP_D22_pv

>  <s_m_subgroupid>  (1428) 
glide-dock_SP_D22_pv

>  <Molecule ChEMBL ID>  (1428) 
CHEMBL5075726

>  <Standard Type>  (1428) 
Ki

>  <Standard Value>  (1428) 
51.6

>  <label>  (1428) 
1

$$$$
CHEMBL294951
     RDKit          3D

 43 46  0  0  1  0  0  0  0  0999 V2000
   12.5845    2.8039  -17.0325 C   0  0  0  0  0  0  0  0  0  0  0  0
   11.6628    1.7738  -16.5013 N   0  0  0  0  0  0  0  0  0  0  0  0
   10.8021    1.2007  -17.5698 C   0  0  0  0  0  0  0  0  0  0  0  0
    9.8353    0.1354  -17.0268 C   0  0  0  0  0  0  0  0  0  0  0  0
    9.0129    0.6997  -15.8765 C   0  0  0  0  0  0  0  0  0  0  0  0
    7.6550    0.7539  -15.8328 C   0  0  0  0  0  0  0  0  0  0  0  0
    6.7728    0.3955  -16.9714 C   0  0  0  0  0  0  0  0  0  0  0  0
    7.0108    1.0270  -18.2154 C   0  0  0  0  0  0  0  0  0  0  0  0
    6.1870    0.7921  -19.3307 C   0  0  0  0  0  0  0  0  0  0  0  0
    5.0912   -0.0759  -19.2151 C   0  0  0  0  0  0  0  0  0  0  0  0
    4.8291   -0.7036  -17.9864 C   0  0  0  0  0  0  0  0  0  0  0  0
    5.6450   -0.4783  -16.8544 C   0  0  0  0  0  0  0  0  0  0  0  0
    5.2025   -1.2215  -15.5835 C   0  0  0  0  0  0  0  0  0  0  0  0
    5.9139   -0.9391  -14.2500 C   0  0  0  0  0  0  0  0  0  0  0  0
    6.1169    0.5083  -13.9712 C   0  0  0  0  0  0  0  0  0  0  0  0
    5.2860    1.4088  -12.7356 S   0  0  0  0  0  0  0  0  0  0  0  0
    6.0860    2.8892  -13.2111 C   0  0  0  0  0  0  0  0  0  0  0  0
    6.9585    2.6781  -14.2485 C   0  0  0  0  0  0  0  0  0  0  0  0
    6.9448    1.3189  -14.6816 C   0  0  0  0  0  0  0  0  0  0  0  0
    9.9369    1.1916  -14.7708 C   0  0  0  0  0  0  0  0  0  0  0  0
   10.8956    2.2613  -15.3238 C   0  0  0  0  0  0  0  0  0  0  0  0
   12.0310    3.6352  -17.4721 H   0  0  0  0  0  0  0  0  0  0  0  0
   13.2227    3.2076  -16.2472 H   0  0  0  0  0  0  0  0  0  0  0  0
   13.2331    2.3815  -17.8011 H   0  0  0  0  0  0  0  0  0  0  0  0
   11.4313    0.7617  -18.3455 H   0  0  0  0  0  0  0  0  0  0  0  0
   10.2341    2.0035  -18.0426 H   0  0  0  0  0  0  0  0  0  0  0  0
   10.4048   -0.7141  -16.6464 H   0  0  0  0  0  0  0  0  0  0  0  0
    9.2213   -0.2723  -17.8273 H   0  0  0  0  0  0  0  0  0  0  0  0
    7.8351    1.7157  -18.3188 H   0  0  0  0  0  0  0  0  0  0  0  0
    6.3879    1.2831  -20.2718 H   0  0  0  0  0  0  0  0  0  0  0  0
    4.4495   -0.2589  -20.0653 H   0  0  0  0  0  0  0  0  0  0  0  0
    3.9769   -1.3652  -17.9108 H   0  0  0  0  0  0  0  0  0  0  0  0
    4.1477   -0.9803  -15.4437 H   0  0  0  0  0  0  0  0  0  0  0  0
    5.2367   -2.2938  -15.7824 H   0  0  0  0  0  0  0  0  0  0  0  0
    6.8860   -1.4276  -14.2470 H   0  0  0  0  0  0  0  0  0  0  0  0
    5.3607   -1.4153  -13.4478 H   0  0  0  0  0  0  0  0  0  0  0  0
    5.8756    3.8111  -12.6863 H   0  0  0  0  0  0  0  0  0  0  0  0
    7.5737    3.4364  -14.7068 H   0  0  0  0  0  0  0  0  0  0  0  0
    9.3980    1.5845  -13.9103 H   0  0  0  0  0  0  0  0  0  0  0  0
   10.5046    0.3402  -14.3927 H   0  0  0  0  0  0  0  0  0  0  0  0
   11.5881    2.5708  -14.5399 H   0  0  0  0  0  0  0  0  0  0  0  0
   10.3246    3.1475  -15.6071 H   0  0  0  0  0  0  0  0  0  0  0  0
   12.2456    1.0200  -16.1617 H   0  0  0  0  0  0  0  0  0  0  0  0
  2  1  1  0
  3  2  1  0
  4  3  1  0
  5  4  1  0
  6  5  2  0
  7  6  1  0
  8  7  2  0
  9  8  1  0
 10  9  2  0
 11 10  1  0
 12  7  1  0
 12 11  2  0
 13 12  1  0
 14 13  1  0
 15 14  1  0
 16 15  1  0
 17 16  1  0
 18 17  2  0
 19  6  1  0
 19 15  2  0
 19 18  1  0
 20  5  1  0
 21  2  1  0
 21 20  1  0
 22  1  1  0
 23  1  1  0
 24  1  1  0
 25  3  1  0
 26  3  1  0
 27  4  1  0
 28  4  1  0
 29  8  1  0
 30  9  1  0
 31 10  1  0
 32 11  1  0
 33 13  1  0
 34 13  1  0
 35 14  1  0
 36 14  1  0
 37 17  1  0
 38 18  1  0
 39 20  1  0
 40 20  1  0
 41 21  1  0
 42 21  1  0
 43  2  1  0
M  CHG  1   2   1
M  END
>  <b_m_subgroup_collapsed>  (1429) 
0

>  <r_i_docking_score>  (1429) 
-5.7879129985553703

>  <s_m_subgroup_title>  (1429) 
glide-dock_SP_D22_pv

>  <s_m_subgroupid>  (1429) 
glide-dock_SP_D22_pv

>  <Molecule ChEMBL ID>  (1429) 
CHEMBL294951

>  <Standard Type>  (1429) 
Ki

>  <Standard Value>  (1429) 
2.4

>  <label>  (1429) 
1

$$$$
CHEMBL380464
     RDKit          3D

 42 44  0  0  1  0  0  0  0  0999 V2000
   11.0234    5.5322  -17.3528 C   0  0  0  0  0  0  0  0  0  0  0  0
   11.1736    4.4277  -16.3729 N   0  0  1  0  0  0  0  0  0  0  0  0
   11.8068    3.2257  -16.9817 C   0  0  0  0  0  0  0  0  0  0  0  0
   11.1787    1.9152  -16.4885 C   0  0  0  0  0  0  0  0  0  0  0  0
    9.6884    1.8378  -16.7931 C   0  0  0  0  0  0  0  0  0  0  0  0
    9.3440    1.5610  -18.1369 C   0  0  0  0  0  0  0  0  0  0  0  0
    8.0049    1.3822  -18.5212 C   0  0  0  0  0  0  0  0  0  0  0  0
    6.9916    1.4738  -17.5553 C   0  0  0  0  0  0  0  0  0  0  0  0
    7.3220    1.7715  -16.2229 C   0  0  0  0  0  0  0  0  0  0  0  0
    8.6620    1.9845  -15.8124 C   0  0  0  0  0  0  0  0  0  0  0  0
    8.9335    2.2190  -14.3149 C   0  0  0  0  0  0  0  0  0  0  0  0
    8.7664    3.6479  -13.7439 C   0  0  0  0  0  0  0  0  0  0  0  0
    9.8845    4.5167  -13.5301 C   0  0  0  0  0  0  0  0  0  0  0  0
    9.7010    5.7684  -12.8990 C   0  0  0  0  0  0  0  0  0  0  0  0
    8.4346    6.1830  -12.4648 C   0  0  0  0  0  0  0  0  0  0  0  0
    7.3282    5.3501  -12.6582 C   0  0  0  0  0  0  0  0  0  0  0  0
    6.1030    5.7722  -12.2235 O   0  0  0  0  0  0  0  0  0  0  0  0
    7.4866    4.0906  -13.2829 C   0  0  0  0  0  0  0  0  0  0  0  0
    6.0837    3.0846  -13.3849 Cl  0  0  0  0  0  0  0  0  0  0  0  0
   11.3305    4.1717  -13.8707 C   0  0  0  0  0  0  0  0  0  0  0  0
   11.8498    4.8805  -15.1296 C   0  0  0  0  0  0  0  0  0  0  0  0
   11.9977    5.8839  -17.7001 H   0  0  0  0  0  0  0  0  0  0  0  0
   10.4881    6.3749  -16.9142 H   0  0  0  0  0  0  0  0  0  0  0  0
   10.4466    5.2068  -18.2217 H   0  0  0  0  0  0  0  0  0  0  0  0
   11.6931    3.2611  -18.0658 H   0  0  0  0  0  0  0  0  0  0  0  0
   12.8845    3.2188  -16.8126 H   0  0  0  0  0  0  0  0  0  0  0  0
   11.6617    1.0912  -17.0163 H   0  0  0  0  0  0  0  0  0  0  0  0
   11.4085    1.7141  -15.4497 H   0  0  0  0  0  0  0  0  0  0  0  0
   10.1174    1.4523  -18.8848 H   0  0  0  0  0  0  0  0  0  0  0  0
    7.7608    1.1496  -19.5463 H   0  0  0  0  0  0  0  0  0  0  0  0
    5.9607    1.3102  -17.8316 H   0  0  0  0  0  0  0  0  0  0  0  0
    6.5107    1.7934  -15.5175 H   0  0  0  0  0  0  0  0  0  0  0  0
    8.2282    1.5644  -13.8087 H   0  0  0  0  0  0  0  0  0  0  0  0
    9.8788    1.7839  -14.0053 H   0  0  0  0  0  0  0  0  0  0  0  0
   10.5421    6.4212  -12.7246 H   0  0  0  0  0  0  0  0  0  0  0  0
    8.3148    7.1377  -11.9722 H   0  0  0  0  0  0  0  0  0  0  0  0
    6.1472    6.4755  -11.5788 H   0  0  0  0  0  0  0  0  0  0  0  0
   11.9477    4.5258  -13.0464 H   0  0  0  0  0  0  0  0  0  0  0  0
   11.5236    3.1066  -13.8832 H   0  0  0  0  0  0  0  0  0  0  0  0
   12.9302    4.7552  -15.2165 H   0  0  0  0  0  0  0  0  0  0  0  0
   11.6998    5.9538  -14.9982 H   0  0  0  0  0  0  0  0  0  0  0  0
   10.2257    4.1665  -16.1223 H   0  0  0  0  0  0  0  0  0  0  0  0
  2  1  1  0
  3  2  1  0
  4  3  1  0
  5  4  1  0
  6  5  2  0
  7  6  1  0
  8  7  2  0
  9  8  1  0
 10  5  1  0
 10  9  2  0
 11 10  1  0
 12 11  1  0
 13 12  2  0
 14 13  1  0
 15 14  2  0
 16 15  1  0
 17 16  1  0
 18 12  1  0
 18 16  2  0
 19 18  1  0
 20 13  1  0
 21  2  1  0
 21 20  1  0
 22  1  1  0
 23  1  1  0
 24  1  1  0
 25  3  1  0
 26  3  1  0
 27  4  1  0
 28  4  1  0
 29  6  1  0
 30  7  1  0
 31  8  1  0
 32  9  1  0
 33 11  1  0
 34 11  1  0
 35 14  1  0
 36 15  1  0
 37 17  1  0
 38 20  1  0
 39 20  1  0
 40 21  1  0
 41 21  1  0
  2 42  1  1
M  CHG  1   2   1
M  END
>  <b_m_subgroup_collapsed>  (1430) 
0

>  <r_i_docking_score>  (1430) 
-5.7756215352742801

>  <s_m_subgroup_title>  (1430) 
glide-dock_SP_D22_pv

>  <s_m_subgroupid>  (1430) 
glide-dock_SP_D22_pv

>  <Molecule ChEMBL ID>  (1430) 
CHEMBL380464

>  <Standard Type>  (1430) 
Ki

>  <Standard Value>  (1430) 
0.13

>  <label>  (1430) 
1

$$$$
CHEMBL157138
     RDKit          3D

 51 54  0  0  1  0  0  0  0  0999 V2000
   12.8649    8.2874   -8.6633 C   0  0  0  0  0  0  0  0  0  0  0  0
   11.3530    8.3857   -8.4159 C   0  0  0  0  0  0  0  0  0  0  0  0
   10.6382    7.2223   -8.9647 N   0  0  0  0  0  0  0  0  0  0  0  0
   10.2324    6.2257   -7.9583 C   0  0  0  0  0  0  0  0  0  0  0  0
    8.7614    6.4112   -7.5570 C   0  0  0  0  0  0  0  0  0  0  0  0
   10.2948    7.1789  -10.2784 C   0  0  0  0  0  0  0  0  0  0  0  0
   10.4860    8.1218  -11.0469 O   0  0  0  0  0  0  0  0  0  0  0  0
    9.7775    6.0055  -10.6899 N   0  0  0  0  0  0  0  0  0  0  0  0
    9.1564    5.7637  -11.9876 C   0  0  1  0  0  0  0  0  0  0  0  0
    9.6974    4.5471  -12.7160 C   0  0  0  0  0  0  0  0  0  0  0  0
    8.8862    3.7655  -13.4563 C   0  0  0  0  0  0  0  0  0  0  0  0
    9.3171    2.6109  -14.2469 C   0  0  0  0  0  0  0  0  0  0  0  0
   10.6185    2.3673  -14.7348 C   0  0  0  0  0  0  0  0  0  0  0  0
   10.8860    1.2131  -15.4946 C   0  0  0  0  0  0  0  0  0  0  0  0
    9.8665    0.2727  -15.7277 C   0  0  0  0  0  0  0  0  0  0  0  0
    8.5906    0.5039  -15.2507 C   0  0  0  0  0  0  0  0  0  0  0  0
    7.4410   -0.2277  -15.3269 N   0  0  0  0  0  0  0  0  0  0  0  0
    6.3930    0.4348  -14.7097 C   0  0  0  0  0  0  0  0  0  0  0  0
    6.9406    1.6010  -14.2469 C   0  0  0  0  0  0  0  0  0  0  0  0
    8.3238    1.6598  -14.5448 C   0  0  0  0  0  0  0  0  0  0  0  0
    6.4655    2.8197  -13.4826 C   0  0  0  0  0  0  0  0  0  0  0  0
    7.3947    4.0670  -13.6165 C   0  0  1  0  0  0  0  0  0  0  0  0
    6.9671    5.3111  -12.9873 N   0  0  0  0  0  0  0  0  0  0  0  0
    5.5353    5.4594  -12.8307 C   0  0  0  0  0  0  0  0  0  0  0  0
    7.6540    5.6124  -11.7531 C   0  0  0  0  0  0  0  0  0  0  0  0
   13.3931    9.1159   -8.1941 H   0  0  0  0  0  0  0  0  0  0  0  0
   13.0966    8.3065   -9.7287 H   0  0  0  0  0  0  0  0  0  0  0  0
   13.2759    7.3724   -8.2469 H   0  0  0  0  0  0  0  0  0  0  0  0
   11.1645    8.4834   -7.3461 H   0  0  0  0  0  0  0  0  0  0  0  0
   10.9695    9.3102   -8.8520 H   0  0  0  0  0  0  0  0  0  0  0  0
   10.4032    5.2105   -8.3186 H   0  0  0  0  0  0  0  0  0  0  0  0
   10.8602    6.3092   -7.0701 H   0  0  0  0  0  0  0  0  0  0  0  0
    8.4938    5.7723   -6.7188 H   0  0  0  0  0  0  0  0  0  0  0  0
    8.0860    6.1724   -8.3797 H   0  0  0  0  0  0  0  0  0  0  0  0
    8.5576    7.4387   -7.2531 H   0  0  0  0  0  0  0  0  0  0  0  0
    9.6725    5.2810   -9.9965 H   0  0  0  0  0  0  0  0  0  0  0  0
    9.3263    6.6143  -12.6488 H   0  0  0  0  0  0  0  0  0  0  0  0
   10.7559    4.3485  -12.6469 H   0  0  0  0  0  0  0  0  0  0  0  0
   11.4128    3.0740  -14.5452 H   0  0  0  0  0  0  0  0  0  0  0  0
   11.8787    1.0419  -15.8832 H   0  0  0  0  0  0  0  0  0  0  0  0
   10.0776   -0.6251  -16.2889 H   0  0  0  0  0  0  0  0  0  0  0  0
    7.3900   -1.1718  -15.7058 H   0  0  0  0  0  0  0  0  0  0  0  0
    5.3926    0.0302  -14.6507 H   0  0  0  0  0  0  0  0  0  0  0  0
    5.4687    3.0639  -13.8469 H   0  0  0  0  0  0  0  0  0  0  0  0
    6.3244    2.5750  -12.4320 H   0  0  0  0  0  0  0  0  0  0  0  0
    7.3151    4.3400  -14.6469 H   0  0  0  0  0  0  0  0  0  0  0  0
    5.2934    6.4649  -12.4827 H   0  0  0  0  0  0  0  0  0  0  0  0
    5.1576    4.7479  -12.0947 H   0  0  0  0  0  0  0  0  0  0  0  0
    5.0187    5.3039  -13.7784 H   0  0  0  0  0  0  0  0  0  0  0  0
    7.4205    4.8740  -10.9843 H   0  0  0  0  0  0  0  0  0  0  0  0
    7.2860    6.5723  -11.4463 H   0  0  0  0  0  0  0  0  0  0  0  0
  2  1  1  0
  3  2  1  0
  4  3  1  0
  5  4  1  0
  6  3  1  0
  7  6  2  0
  8  6  1  0
  9  8  1  0
 10  9  1  0
 11 10  2  0
 12 11  1  0
 13 12  1  0
 14 13  2  0
 15 14  1  0
 16 15  2  0
 17 16  1  0
 18 17  1  0
 19 18  2  0
 20 12  2  0
 20 16  1  0
 20 19  1  0
 21 19  1  0
 22 11  1  0
 22 21  1  0
 23 22  1  0
 24 23  1  0
 25  9  1  0
 25 23  1  0
 26  1  1  0
 27  1  1  0
 28  1  1  0
 29  2  1  0
 30  2  1  0
 31  4  1  0
 32  4  1  0
 33  5  1  0
 34  5  1  0
 35  5  1  0
 36  8  1  0
  9 37  1  6
 38 10  1  0
 39 13  1  0
 40 14  1  0
 41 15  1  0
 42 17  1  0
 43 18  1  0
 44 21  1  0
 45 21  1  0
 22 46  1  6
 47 24  1  0
 48 24  1  0
 49 24  1  0
 50 25  1  0
 51 25  1  0
M  END
>  <b_m_subgroup_collapsed>  (1431) 
0

>  <r_i_docking_score>  (1431) 
-5.7748384570101301

>  <s_m_subgroup_title>  (1431) 
glide-dock_SP_D22_pv

>  <s_m_subgroupid>  (1431) 
glide-dock_SP_D22_pv

>  <Molecule ChEMBL ID>  (1431) 
CHEMBL157138

>  <Standard Type>  (1431) 
Ki

>  <Standard Value>  (1431) 
0.3

>  <label>  (1431) 
1

$$$$
CHEMBL230872
     RDKit          3D

 63 67  0  0  1  0  0  0  0  0999 V2000
    4.5017    0.9431  -20.8631 C   0  0  0  0  0  0  0  0  0  0  0  0
    5.3055    0.9709  -19.6960 O   0  0  0  0  0  0  0  0  0  0  0  0
    5.0735    0.0276  -18.7128 C   0  0  0  0  0  0  0  0  0  0  0  0
    3.9838   -0.8775  -18.7616 C   0  0  0  0  0  0  0  0  0  0  0  0
    3.7725   -1.8051  -17.7289 C   0  0  0  0  0  0  0  0  0  0  0  0
    4.6317   -1.8274  -16.6196 C   0  0  0  0  0  0  0  0  0  0  0  0
    5.7164   -0.9339  -16.5543 C   0  0  0  0  0  0  0  0  0  0  0  0
    5.9599   -0.0165  -17.6034 C   0  0  0  0  0  0  0  0  0  0  0  0
    7.0976    0.8199  -17.5507 N   0  0  0  0  0  0  0  0  0  0  0  0
    7.5206    1.5014  -16.3311 C   0  0  0  0  0  0  0  0  0  0  0  0
    9.0244    1.2602  -16.0605 C   0  0  0  0  0  0  0  0  0  0  0  0
    9.8142    1.6147  -17.2496 N   0  0  0  0  0  0  0  0  0  0  0  0
   11.2524    1.5152  -17.0142 C   0  0  0  0  0  0  0  0  0  0  0  0
   11.7927    2.7487  -16.2705 C   0  0  0  0  0  0  0  0  0  0  0  0
   11.4165    4.0830  -16.9463 C   0  0  0  0  0  0  0  0  0  0  0  0
   12.1248    5.1877  -16.3952 O   0  0  0  0  0  0  0  0  0  0  0  0
   11.7420    5.7029  -15.1730 C   0  0  0  0  0  0  0  0  0  0  0  0
   10.6754    5.2028  -14.3843 C   0  0  0  0  0  0  0  0  0  0  0  0
   10.3910    5.7718  -13.1305 C   0  0  0  0  0  0  0  0  0  0  0  0
   11.1592    6.8489  -12.6417 C   0  0  0  0  0  0  0  0  0  0  0  0
   10.9086    7.3723  -11.2977 C   0  0  0  0  0  0  0  0  0  0  0  0
    9.7393    7.4460  -10.5865 C   0  0  0  0  0  0  0  0  0  0  0  0
   10.0621    7.8995   -9.3206 N   0  0  0  0  0  0  0  0  0  0  0  0
    9.2909    8.1204   -8.2200 C   0  0  0  0  0  0  0  0  0  0  0  0
    9.8769    8.5720   -7.0614 C   0  0  0  0  0  0  0  0  0  0  0  0
   11.2702    8.8037   -7.0098 C   0  0  0  0  0  0  0  0  0  0  0  0
   12.0550    8.5730   -8.1165 C   0  0  0  0  0  0  0  0  0  0  0  0
   11.4589    8.1141   -9.3209 C   0  0  0  0  0  0  0  0  0  0  0  0
   11.9706    7.8081  -10.5102 N   0  0  0  0  0  0  0  0  0  0  0  0
   12.2045    7.3684  -13.4373 C   0  0  0  0  0  0  0  0  0  0  0  0
   12.4868    6.7967  -14.6900 C   0  0  0  0  0  0  0  0  0  0  0  0
    9.4254    0.7119  -18.3378 C   0  0  0  0  0  0  0  0  0  0  0  0
    7.9596    0.9751  -18.7165 C   0  0  0  0  0  0  0  0  0  0  0  0
    4.8599    1.7074  -21.5523 H   0  0  0  0  0  0  0  0  0  0  0  0
    4.5641   -0.0176  -21.3771 H   0  0  0  0  0  0  0  0  0  0  0  0
    3.4612    1.1618  -20.6292 H   0  0  0  0  0  0  0  0  0  0  0  0
    3.2859   -0.8807  -19.5836 H   0  0  0  0  0  0  0  0  0  0  0  0
    2.9488   -2.5001  -17.7864 H   0  0  0  0  0  0  0  0  0  0  0  0
    4.4679   -2.5472  -15.8301 H   0  0  0  0  0  0  0  0  0  0  0  0
    6.3869   -0.9943  -15.7103 H   0  0  0  0  0  0  0  0  0  0  0  0
    7.3389    2.5695  -16.4570 H   0  0  0  0  0  0  0  0  0  0  0  0
    6.9310    1.1873  -15.4720 H   0  0  0  0  0  0  0  0  0  0  0  0
    9.3339    1.8656  -15.2075 H   0  0  0  0  0  0  0  0  0  0  0  0
    9.1968    0.2167  -15.7902 H   0  0  0  0  0  0  0  0  0  0  0  0
   11.4962    0.5974  -16.4770 H   0  0  0  0  0  0  0  0  0  0  0  0
   11.7693    1.4592  -17.9732 H   0  0  0  0  0  0  0  0  0  0  0  0
   11.4664    2.7315  -15.2326 H   0  0  0  0  0  0  0  0  0  0  0  0
   12.8813    2.6736  -16.2416 H   0  0  0  0  0  0  0  0  0  0  0  0
   11.6857    4.0304  -18.0010 H   0  0  0  0  0  0  0  0  0  0  0  0
   10.3391    4.2593  -16.9253 H   0  0  0  0  0  0  0  0  0  0  0  0
   10.0670    4.3740  -14.7158 H   0  0  0  0  0  0  0  0  0  0  0  0
    9.5945    5.3620  -12.5257 H   0  0  0  0  0  0  0  0  0  0  0  0
    8.7094    7.2041  -10.8250 H   0  0  0  0  0  0  0  0  0  0  0  0
    8.2277    7.9165   -8.3094 H   0  0  0  0  0  0  0  0  0  0  0  0
    9.2538    8.7455   -6.1918 H   0  0  0  0  0  0  0  0  0  0  0  0
   11.7284    9.1601   -6.0931 H   0  0  0  0  0  0  0  0  0  0  0  0
   13.1247    8.7506   -8.0945 H   0  0  0  0  0  0  0  0  0  0  0  0
   12.8225    8.1724  -13.0711 H   0  0  0  0  0  0  0  0  0  0  0  0
   13.3042    7.1838  -15.2795 H   0  0  0  0  0  0  0  0  0  0  0  0
   10.0490    0.8892  -19.2158 H   0  0  0  0  0  0  0  0  0  0  0  0
    9.5706   -0.3300  -18.0430 H   0  0  0  0  0  0  0  0  0  0  0  0
    7.6747    0.2819  -19.5076 H   0  0  0  0  0  0  0  0  0  0  0  0
    7.8491    1.9831  -19.1123 H   0  0  0  0  0  0  0  0  0  0  0  0
  2  1  1  0
  3  2  1  0
  4  3  2  0
  5  4  1  0
  6  5  2  0
  7  6  1  0
  8  3  1  0
  8  7  2  0
  9  8  1  0
 10  9  1  0
 11 10  1  0
 12 11  1  0
 13 12  1  0
 14 13  1  0
 15 14  1  0
 16 15  1  0
 17 16  1  0
 18 17  1  0
 19 18  2  0
 20 19  1  0
 21 20  1  0
 22 21  2  0
 23 22  1  0
 24 23  1  0
 25 24  2  0
 26 25  1  0
 27 26  2  0
 28 23  1  0
 28 27  1  0
 29 21  1  0
 29 28  2  0
 30 20  2  0
 31 17  2  0
 31 30  1  0
 32 12  1  0
 33  9  1  0
 33 32  1  0
 34  1  1  0
 35  1  1  0
 36  1  1  0
 37  4  1  0
 38  5  1  0
 39  6  1  0
 40  7  1  0
 41 10  1  0
 42 10  1  0
 43 11  1  0
 44 11  1  0
 45 13  1  0
 46 13  1  0
 47 14  1  0
 48 14  1  0
 49 15  1  0
 50 15  1  0
 51 18  1  0
 52 19  1  0
 53 22  1  0
 54 24  1  0
 55 25  1  0
 56 26  1  0
 57 27  1  0
 58 30  1  0
 59 31  1  0
 60 32  1  0
 61 32  1  0
 62 33  1  0
 63 33  1  0
M  END
>  <b_m_subgroup_collapsed>  (1432) 
0

>  <r_i_docking_score>  (1432) 
-5.7733794965238499

>  <s_m_subgroup_title>  (1432) 
glide-dock_SP_D22_pv

>  <s_m_subgroupid>  (1432) 
glide-dock_SP_D22_pv

>  <Molecule ChEMBL ID>  (1432) 
CHEMBL230872

>  <Standard Type>  (1432) 
Ki

>  <Standard Value>  (1432) 
49.0

>  <label>  (1432) 
1

$$$$
CHEMBL596885
     RDKit          3D

 42 45  0  0  1  0  0  0  0  0999 V2000
    3.9203   -0.2284  -13.8514 C   0  0  0  0  0  0  0  0  0  0  0  0
    5.0934   -0.2680  -14.1897 C   0  0  0  0  0  0  0  0  0  0  0  0
    6.4975   -0.3001  -14.6283 C   0  0  0  0  0  0  0  0  0  0  0  0
    7.1235    0.9190  -14.2471 O   0  0  0  0  0  0  0  0  0  0  0  0
    8.3360    1.2771  -14.8028 C   0  0  0  0  0  0  0  0  0  0  0  0
    9.1050    0.3598  -15.5582 C   0  0  0  0  0  0  0  0  0  0  0  0
   10.3662    0.7054  -16.0651 C   0  0  0  0  0  0  0  0  0  0  0  0
   10.8850    1.9816  -15.8138 C   0  0  0  0  0  0  0  0  0  0  0  0
   10.1257    2.9112  -15.0775 C   0  0  0  0  0  0  0  0  0  0  0  0
    8.8381    2.5927  -14.5835 C   0  0  0  0  0  0  0  0  0  0  0  0
    8.0936    3.6513  -13.8465 C   0  0  0  0  0  0  0  0  0  0  0  0
    6.6778    3.6589  -13.7209 C   0  0  0  0  0  0  0  0  0  0  0  0
    5.9716    4.6266  -12.9921 C   0  0  0  0  0  0  0  0  0  0  0  0
    6.6595    5.6827  -12.3853 C   0  0  0  0  0  0  0  0  0  0  0  0
    8.0538    5.7829  -12.5182 C   0  0  0  0  0  0  0  0  0  0  0  0
    8.7424    4.7705  -13.2475 C   0  0  0  0  0  0  0  0  0  0  0  0
   10.2778    4.8234  -13.4169 C   0  0  1  0  0  0  0  0  0  0  0  0
   10.7143    4.2722  -14.7933 C   0  0  0  0  0  0  0  0  0  0  0  0
   10.8546    6.1733  -13.1863 N   0  0  2  0  0  0  0  0  0  0  0  0
   12.3269    6.2773  -13.3494 C   0  0  0  0  0  0  0  0  0  0  0  0
   10.3621    6.7752  -11.9312 C   0  0  0  0  0  0  0  0  0  0  0  0
    8.8566    6.9744  -12.0141 C   0  0  0  0  0  0  0  0  0  0  0  0
    2.8851   -0.1877  -13.5934 H   0  0  0  0  0  0  0  0  0  0  0  0
    6.9871   -1.1540  -14.1573 H   0  0  0  0  0  0  0  0  0  0  0  0
    6.4920   -0.4404  -15.7114 H   0  0  0  0  0  0  0  0  0  0  0  0
    8.7437   -0.6287  -15.7601 H   0  0  0  0  0  0  0  0  0  0  0  0
   10.9383   -0.0124  -16.6352 H   0  0  0  0  0  0  0  0  0  0  0  0
   11.8663    2.2384  -16.1841 H   0  0  0  0  0  0  0  0  0  0  0  0
    6.0748    2.9096  -14.2040 H   0  0  0  0  0  0  0  0  0  0  0  0
    4.8948    4.5690  -12.9225 H   0  0  0  0  0  0  0  0  0  0  0  0
    6.1092    6.4406  -11.8468 H   0  0  0  0  0  0  0  0  0  0  0  0
   10.6838    4.1654  -12.6480 H   0  0  0  0  0  0  0  0  0  0  0  0
   11.7990    4.1886  -14.8599 H   0  0  0  0  0  0  0  0  0  0  0  0
   10.3982    4.9476  -15.5906 H   0  0  0  0  0  0  0  0  0  0  0  0
   12.8573    5.4505  -12.8780 H   0  0  0  0  0  0  0  0  0  0  0  0
   12.7130    7.2085  -12.9361 H   0  0  0  0  0  0  0  0  0  0  0  0
   12.5951    6.2752  -14.4047 H   0  0  0  0  0  0  0  0  0  0  0  0
   10.6037    6.1723  -11.0627 H   0  0  0  0  0  0  0  0  0  0  0  0
   10.8294    7.7471  -11.7612 H   0  0  0  0  0  0  0  0  0  0  0  0
    8.6253    7.8296  -12.6471 H   0  0  0  0  0  0  0  0  0  0  0  0
    8.4861    7.2440  -11.0251 H   0  0  0  0  0  0  0  0  0  0  0  0
   10.4703    6.7554  -13.9181 H   0  0  0  0  0  0  0  0  0  0  0  0
  2  1  3  0
  3  2  1  0
  4  3  1  0
  5  4  1  0
  6  5  1  0
  7  6  2  0
  8  7  1  0
  9  8  2  0
 10  5  2  0
 10  9  1  0
 11 10  1  0
 12 11  1  0
 13 12  2  0
 14 13  1  0
 15 14  2  0
 16 11  2  0
 16 15  1  0
 17 16  1  0
 18  9  1  0
 18 17  1  0
 19 17  1  0
 20 19  1  0
 21 19  1  0
 22 15  1  0
 22 21  1  0
 23  1  1  0
 24  3  1  0
 25  3  1  0
 26  6  1  0
 27  7  1  0
 28  8  1  0
 29 12  1  0
 30 13  1  0
 31 14  1  0
 17 32  1  1
 33 18  1  0
 34 18  1  0
 35 20  1  0
 36 20  1  0
 37 20  1  0
 38 21  1  0
 39 21  1  0
 40 22  1  0
 41 22  1  0
 19 42  1  6
M  CHG  1  19   1
M  END
>  <b_m_subgroup_collapsed>  (1433) 
0

>  <r_i_docking_score>  (1433) 
-5.7732469804580004

>  <s_m_subgroup_title>  (1433) 
glide-dock_SP_D22_pv

>  <s_m_subgroupid>  (1433) 
glide-dock_SP_D22_pv

>  <Molecule ChEMBL ID>  (1433) 
CHEMBL596885

>  <Standard Type>  (1433) 
Ki

>  <Standard Value>  (1433) 
10000.0

>  <label>  (1433) 
0

$$$$
CHEMBL493
     RDKit          3D

 83 89  0  0  1  0  0  0  0  0999 V2000
    9.0116   -1.5800  -20.6488 C   0  0  0  0  0  0  0  0  0  0  0  0
    8.7347   -2.3751  -21.9388 C   0  0  0  0  0  0  0  0  0  0  0  0
    8.0650   -1.5200  -23.0249 C   0  0  0  0  0  0  0  0  0  0  0  0
    8.0565   -3.7535  -21.7406 C   0  0  0  0  0  0  0  0  0  0  0  0
    6.5589   -3.8517  -21.3281 C   0  0  1  0  0  0  0  0  0  0  0  0
    6.0506   -5.3058  -21.4494 C   0  0  0  0  0  0  0  0  0  0  0  0
    6.0923   -5.8671  -22.5434 O   0  0  0  0  0  0  0  0  0  0  0  0
    5.6059   -5.9345  -20.3429 N   0  0  0  0  0  0  0  0  0  0  0  0
    5.3003   -7.3613  -20.2517 C   0  0  0  0  0  0  0  0  0  0  0  0
    5.1180   -7.6608  -18.7509 C   0  0  0  0  0  0  0  0  0  0  0  0
    5.7626   -6.4767  -18.0267 C   0  0  0  0  0  0  0  0  0  0  0  0
    5.5035   -5.3429  -19.0195 C   0  0  1  0  0  0  0  0  0  0  0  0
    6.2947   -4.0315  -18.8028 C   0  0  2  0  0  0  0  0  0  0  0  0
    7.6141   -4.2501  -18.3538 O   0  0  0  0  0  0  0  0  0  0  0  0
    5.5802   -3.2729  -17.8751 O   0  0  0  0  0  0  0  0  0  0  0  0
    5.5592   -1.9267  -18.2503 C   0  0  2  0  0  0  0  0  0  0  0  0
    6.5675   -1.2587  -17.4508 N   0  0  0  0  0  0  0  0  0  0  0  0
    6.9499    0.0249  -17.5572 C   0  0  0  0  0  0  0  0  0  0  0  0
    6.4627    0.8348  -18.3464 O   0  0  0  0  0  0  0  0  0  0  0  0
    8.0462    0.4644  -16.5834 C   0  0  2  0  0  0  0  0  0  0  0  0
    7.5037    1.2897  -15.4345 C   0  0  0  0  0  0  0  0  0  0  0  0
    8.1056    2.4114  -15.0028 C   0  0  0  0  0  0  0  0  0  0  0  0
    7.5206    3.2973  -13.9859 C   0  0  0  0  0  0  0  0  0  0  0  0
    6.1907    3.2443  -13.5077 C   0  0  0  0  0  0  0  0  0  0  0  0
    5.7139    4.2116  -12.6078 C   0  0  0  0  0  0  0  0  0  0  0  0
    6.5658    5.2418  -12.1754 C   0  0  0  0  0  0  0  0  0  0  0  0
    7.8766    5.2896  -12.6033 C   0  0  0  0  0  0  0  0  0  0  0  0
    8.8914    6.1649  -12.3288 N   0  0  0  0  0  0  0  0  0  0  0  0
   10.0161    5.7725  -13.0325 C   0  0  0  0  0  0  0  0  0  0  0  0
   11.6859    6.6870  -13.0472 Br  0  0  0  0  0  0  0  0  0  0  0  0
    9.6917    4.6493  -13.7335 C   0  0  0  0  0  0  0  0  0  0  0  0
    8.3404    4.3240  -13.4878 C   0  0  0  0  0  0  0  0  0  0  0  0
   10.3676    3.6497  -14.6379 C   0  0  0  0  0  0  0  0  0  0  0  0
    9.4228    2.8998  -15.6290 C   0  0  1  0  0  0  0  0  0  0  0  0
   10.1178    1.8849  -16.4408 N   0  0  0  0  0  0  0  0  0  0  0  0
   10.8444    0.8887  -15.6586 C   0  0  0  0  0  0  0  0  0  0  0  0
    9.1659    1.2278  -17.3401 C   0  0  0  0  0  0  0  0  0  0  0  0
    4.1166   -1.3803  -17.9936 C   0  0  0  0  0  0  0  0  0  0  0  0
    3.8116   -1.2711  -16.4858 C   0  0  0  0  0  0  0  0  0  0  0  0
    3.0730   -2.2710  -18.6996 C   0  0  0  0  0  0  0  0  0  0  0  0
    5.8726   -2.0125  -19.7520 C   0  0  0  0  0  0  0  0  0  0  0  0
    5.6968   -1.0961  -20.5544 O   0  0  0  0  0  0  0  0  0  0  0  0
    6.2779   -3.2528  -20.0114 N   0  0  0  0  0  0  0  0  0  0  0  0
    8.2682   -0.8035  -20.4761 H   0  0  0  0  0  0  0  0  0  0  0  0
    9.0284   -2.2231  -19.7692 H   0  0  0  0  0  0  0  0  0  0  0  0
    9.9753   -1.0723  -20.7083 H   0  0  0  0  0  0  0  0  0  0  0  0
    9.7234   -2.6194  -22.3290 H   0  0  0  0  0  0  0  0  0  0  0  0
    7.0610   -1.2123  -22.7388 H   0  0  0  0  0  0  0  0  0  0  0  0
    8.6425   -0.6164  -23.2212 H   0  0  0  0  0  0  0  0  0  0  0  0
    7.9849   -2.0689  -23.9630 H   0  0  0  0  0  0  0  0  0  0  0  0
    8.6456   -4.3500  -21.0470 H   0  0  0  0  0  0  0  0  0  0  0  0
    8.1709   -4.2774  -22.6904 H   0  0  0  0  0  0  0  0  0  0  0  0
    5.9761   -3.2949  -22.0647 H   0  0  0  0  0  0  0  0  0  0  0  0
    4.4057   -7.6099  -20.8248 H   0  0  0  0  0  0  0  0  0  0  0  0
    6.1336   -7.9384  -20.6559 H   0  0  0  0  0  0  0  0  0  0  0  0
    4.0516   -7.6905  -18.5125 H   0  0  0  0  0  0  0  0  0  0  0  0
    5.5502   -8.6190  -18.4562 H   0  0  0  0  0  0  0  0  0  0  0  0
    5.3226   -6.2898  -17.0462 H   0  0  0  0  0  0  0  0  0  0  0  0
    6.8293   -6.6666  -17.9015 H   0  0  0  0  0  0  0  0  0  0  0  0
    4.4485   -5.0712  -18.9387 H   0  0  0  0  0  0  0  0  0  0  0  0
    7.5539   -4.6813  -17.5142 H   0  0  0  0  0  0  0  0  0  0  0  0
    7.0084   -1.8363  -16.7429 H   0  0  0  0  0  0  0  0  0  0  0  0
    8.4757   -0.4328  -16.1377 H   0  0  0  0  0  0  0  0  0  0  0  0
    6.5762    0.9497  -15.0011 H   0  0  0  0  0  0  0  0  0  0  0  0
    5.5117    2.4782  -13.8471 H   0  0  0  0  0  0  0  0  0  0  0  0
    4.6964    4.1714  -12.2547 H   0  0  0  0  0  0  0  0  0  0  0  0
    6.1991    5.9875  -11.4826 H   0  0  0  0  0  0  0  0  0  0  0  0
    8.8207    6.9680  -11.7186 H   0  0  0  0  0  0  0  0  0  0  0  0
   11.1612    4.1399  -15.2018 H   0  0  0  0  0  0  0  0  0  0  0  0
   10.8673    2.9335  -13.9867 H   0  0  0  0  0  0  0  0  0  0  0  0
    9.0993    3.6662  -16.3351 H   0  0  0  0  0  0  0  0  0  0  0  0
   11.2568    0.1156  -16.3053 H   0  0  0  0  0  0  0  0  0  0  0  0
   11.6857    1.3580  -15.1574 H   0  0  0  0  0  0  0  0  0  0  0  0
   10.2217    0.4153  -14.8995 H   0  0  0  0  0  0  0  0  0  0  0  0
    9.7027    0.5470  -18.0018 H   0  0  0  0  0  0  0  0  0  0  0  0
    8.7346    1.9951  -17.9849 H   0  0  0  0  0  0  0  0  0  0  0  0
    4.0549   -0.3807  -18.4257 H   0  0  0  0  0  0  0  0  0  0  0  0
    3.9429   -2.2283  -15.9817 H   0  0  0  0  0  0  0  0  0  0  0  0
    4.4495   -0.5399  -15.9913 H   0  0  0  0  0  0  0  0  0  0  0  0
    2.7824   -0.9575  -16.3197 H   0  0  0  0  0  0  0  0  0  0  0  0
    3.0098   -3.2596  -18.2469 H   0  0  0  0  0  0  0  0  0  0  0  0
    2.0859   -1.8278  -18.6469 H   0  0  0  0  0  0  0  0  0  0  0  0
    3.2857   -2.4088  -19.7596 H   0  0  0  0  0  0  0  0  0  0  0  0
  2  1  1  0
  3  2  1  0
  4  2  1  0
  5  4  1  0
  6  5  1  0
  7  6  2  0
  8  6  1  0
  9  8  1  0
 10  9  1  0
 11 10  1  0
 12  8  1  0
 12 11  1  0
 13 12  1  0
 13 14  1  1
 15 13  1  0
 16 15  1  0
 16 17  1  1
 18 17  1  0
 19 18  2  0
 20 18  1  0
 21 20  1  0
 22 21  2  0
 23 22  1  0
 24 23  1  0
 25 24  2  0
 26 25  1  0
 27 26  2  0
 28 27  1  0
 29 28  1  0
 30 29  1  0
 31 29  2  0
 32 23  2  0
 32 27  1  0
 32 31  1  0
 33 31  1  0
 34 22  1  0
 34 33  1  0
 35 34  1  0
 36 35  1  0
 37 20  1  0
 37 35  1  0
 38 16  1  0
 39 38  1  0
 40 38  1  0
 41 16  1  0
 42 41  2  0
 43  5  1  0
 43 13  1  0
 43 41  1  0
 44  1  1  0
 45  1  1  0
 46  1  1  0
 47  2  1  0
 48  3  1  0
 49  3  1  0
 50  3  1  0
 51  4  1  0
 52  4  1  0
  5 53  1  6
 54  9  1  0
 55  9  1  0
 56 10  1  0
 57 10  1  0
 58 11  1  0
 59 11  1  0
 12 60  1  1
 61 14  1  0
 62 17  1  0
 20 63  1  1
 64 21  1  0
 65 24  1  0
 66 25  1  0
 67 26  1  0
 68 28  1  0
 69 33  1  0
 70 33  1  0
 34 71  1  6
 72 36  1  0
 73 36  1  0
 74 36  1  0
 75 37  1  0
 76 37  1  0
 77 38  1  0
 78 39  1  0
 79 39  1  0
 80 39  1  0
 81 40  1  0
 82 40  1  0
 83 40  1  0
M  END
>  <b_m_subgroup_collapsed>  (1434) 
0

>  <r_i_docking_score>  (1434) 
-5.7676950437530996

>  <s_m_subgroup_title>  (1434) 
glide-dock_SP_D22_pv

>  <s_m_subgroupid>  (1434) 
glide-dock_SP_D22_pv

>  <Molecule ChEMBL ID>  (1434) 
CHEMBL493

>  <Standard Type>  (1434) 
Ki

>  <Standard Value>  (1434) 
0.527

>  <label>  (1434) 
1

$$$$
CHEMBL543109
     RDKit          3D

 37 40  0  0  1  0  0  0  0  0999 V2000
    9.8133    3.9209  -15.4136 O   0  0  0  0  0  0  0  0  0  0  0  0
   10.3689    4.7713  -14.7202 C   0  0  0  0  0  0  0  0  0  0  0  0
    9.9280    5.2897  -13.4527 C   0  0  0  0  0  0  0  0  0  0  0  0
   10.8503    6.1724  -13.0469 C   0  0  0  0  0  0  0  0  0  0  0  0
   10.8143    6.9732  -11.8079 C   0  0  0  0  0  0  0  0  0  0  0  0
    9.6758    6.9757  -10.9698 C   0  0  0  0  0  0  0  0  0  0  0  0
    9.6850    7.6997   -9.7609 C   0  0  0  0  0  0  0  0  0  0  0  0
   10.8305    8.4221   -9.3794 C   0  0  0  0  0  0  0  0  0  0  0  0
   11.9645    8.4232  -10.2111 C   0  0  0  0  0  0  0  0  0  0  0  0
   11.9559    7.7119  -11.4258 C   0  0  0  0  0  0  0  0  0  0  0  0
   11.8919    6.3152  -13.9283 O   0  0  0  0  0  0  0  0  0  0  0  0
   11.7029    5.4404  -15.0460 C   0  0  1  0  0  0  0  0  0  0  0  0
   12.8783    4.4270  -15.1034 C   0  0  0  0  0  0  0  0  0  0  0  0
   13.6380    4.5726  -16.3781 N   0  0  2  0  0  0  0  0  0  0  0  0
   14.2046    5.9465  -16.4787 C   0  0  0  0  0  0  0  0  0  0  0  0
   13.0583    6.9911  -16.4791 C   0  0  0  0  0  0  0  0  0  0  0  0
   11.6990    6.2611  -16.3674 C   0  0  1  0  0  0  0  0  0  0  0  0
   11.6058    5.3208  -17.5960 C   0  0  0  0  0  0  0  0  0  0  0  0
   12.7559    4.2821  -17.5407 C   0  0  0  0  0  0  0  0  0  0  0  0
    9.0134    4.9941  -12.9619 H   0  0  0  0  0  0  0  0  0  0  0  0
    8.7816    6.4294  -11.2329 H   0  0  0  0  0  0  0  0  0  0  0  0
    8.8072    7.6986   -9.1291 H   0  0  0  0  0  0  0  0  0  0  0  0
   10.8371    8.9764   -8.4522 H   0  0  0  0  0  0  0  0  0  0  0  0
   12.8446    8.9717   -9.9176 H   0  0  0  0  0  0  0  0  0  0  0  0
   12.8376    7.7199  -12.0503 H   0  0  0  0  0  0  0  0  0  0  0  0
   13.5525    4.5743  -14.2576 H   0  0  0  0  0  0  0  0  0  0  0  0
   12.5219    3.3983  -15.0236 H   0  0  0  0  0  0  0  0  0  0  0  0
   14.8822    6.1258  -15.6424 H   0  0  0  0  0  0  0  0  0  0  0  0
   14.8032    6.0331  -17.3862 H   0  0  0  0  0  0  0  0  0  0  0  0
   13.0928    7.5876  -17.3920 H   0  0  0  0  0  0  0  0  0  0  0  0
   13.1870    7.6944  -15.6554 H   0  0  0  0  0  0  0  0  0  0  0  0
   10.8851    6.9722  -16.3753 H   0  0  0  0  0  0  0  0  0  0  0  0
   11.6805    5.9049  -18.5132 H   0  0  0  0  0  0  0  0  0  0  0  0
   10.6391    4.8201  -17.6492 H   0  0  0  0  0  0  0  0  0  0  0  0
   13.3392    4.3049  -18.4627 H   0  0  0  0  0  0  0  0  0  0  0  0
   12.3549    3.2697  -17.4499 H   0  0  0  0  0  0  0  0  0  0  0  0
   14.4036    3.9060  -16.3592 H   0  0  0  0  0  0  0  0  0  0  0  0
  2  1  2  0
  3  2  1  0
  4  3  2  0
  5  4  1  0
  6  5  2  0
  7  6  1  0
  8  7  2  0
  9  8  1  0
 10  5  1  0
 10  9  2  0
 11  4  1  0
 12  2  1  0
 12 11  1  1
 13 12  1  0
 14 13  1  0
 15 14  1  0
 16 15  1  0
 17 12  1  0
 17 16  1  0
 18 17  1  0
 19 14  1  0
 19 18  1  0
 20  3  1  0
 21  6  1  0
 22  7  1  0
 23  8  1  0
 24  9  1  0
 25 10  1  0
 26 13  1  0
 27 13  1  0
 28 15  1  0
 29 15  1  0
 30 16  1  0
 31 16  1  0
 17 32  1  1
 33 18  1  0
 34 18  1  0
 35 19  1  0
 36 19  1  0
 14 37  1  1
M  CHG  1  14   1
M  END
>  <b_m_subgroup_collapsed>  (1435) 
0

>  <r_i_docking_score>  (1435) 
-5.7640259901040602

>  <s_m_subgroup_title>  (1435) 
glide-dock_SP_D22_pv

>  <s_m_subgroupid>  (1435) 
glide-dock_SP_D22_pv

>  <Molecule ChEMBL ID>  (1435) 
CHEMBL543109

>  <Standard Type>  (1435) 
Ki

>  <Standard Value>  (1435) 
10000.0

>  <label>  (1435) 
0

$$$$
CHEMBL1080046
     RDKit          3D

 61 64  0  0  1  0  0  0  0  0999 V2000
    3.8422   -1.0281  -17.7167 C   0  0  0  0  0  0  0  0  0  0  0  0
    4.9898   -0.6610  -16.7684 C   0  0  0  0  0  0  0  0  0  0  0  0
    4.7638   -1.2215  -15.3574 C   0  0  0  0  0  0  0  0  0  0  0  0
    5.9255   -0.9717  -14.3774 C   0  0  0  0  0  0  0  0  0  0  0  0
    6.1817    0.4908  -14.0690 C   0  0  0  0  0  0  0  0  0  0  0  0
    5.3232    1.1907  -13.1961 C   0  0  0  0  0  0  0  0  0  0  0  0
    5.5603    2.5453  -12.8926 C   0  0  0  0  0  0  0  0  0  0  0  0
    6.6842    3.1887  -13.4471 C   0  0  0  0  0  0  0  0  0  0  0  0
    7.0207    4.8963  -13.0469 S   0  0  0  0  0  0  0  0  0  0  0  0
    5.7350    5.6019  -12.9463 O   0  0  0  0  0  0  0  0  0  0  0  0
    8.0888    5.3591  -13.9455 O   0  0  0  0  0  0  0  0  0  0  0  0
    7.6860    4.8728  -11.4468 N   0  0  0  0  0  0  0  0  0  0  0  0
    8.6525    5.7108  -10.8759 C   0  0  0  0  0  0  0  0  0  0  0  0
    9.3642    6.6868  -11.6093 C   0  0  0  0  0  0  0  0  0  0  0  0
   10.3605    7.4607  -10.9986 C   0  0  0  0  0  0  0  0  0  0  0  0
   10.6495    7.3084   -9.6311 C   0  0  0  0  0  0  0  0  0  0  0  0
    9.9159    6.3671   -8.8741 C   0  0  0  0  0  0  0  0  0  0  0  0
    8.9320    5.5719   -9.5035 C   0  0  0  0  0  0  0  0  0  0  0  0
   10.1736    6.1724   -7.3942 C   0  0  0  0  0  0  0  0  0  0  0  0
   10.0264    7.4436   -6.5432 C   0  0  0  0  0  0  0  0  0  0  0  0
   11.2381    8.2659   -6.5978 N   0  0  0  0  0  0  0  0  0  0  0  0
   11.3004    9.2092   -5.4788 C   0  0  0  0  0  0  0  0  0  0  0  0
   11.6862    8.5817   -4.1650 C   0  0  0  0  0  0  0  0  0  0  0  0
   11.9283    7.2112   -3.8477 C   0  0  0  0  0  0  0  0  0  0  0  0
   12.2401    7.2253   -2.5207 C   0  0  0  0  0  0  0  0  0  0  0  0
   12.2006    8.5406   -2.1241 N   0  0  0  0  0  0  0  0  0  0  0  0
   11.8610    9.3752   -3.1223 N   0  0  0  0  0  0  0  0  0  0  0  0
   11.3004    9.0130   -7.8468 C   0  0  0  0  0  0  0  0  0  0  0  0
   11.7543    8.1507   -9.0251 C   0  0  0  0  0  0  0  0  0  0  0  0
    7.5503    2.4963  -14.3200 C   0  0  0  0  0  0  0  0  0  0  0  0
    7.2938    1.1493  -14.6354 C   0  0  0  0  0  0  0  0  0  0  0  0
    3.9921   -0.5937  -18.7064 H   0  0  0  0  0  0  0  0  0  0  0  0
    3.7602   -2.1086  -17.8370 H   0  0  0  0  0  0  0  0  0  0  0  0
    2.8859   -0.6671  -17.3400 H   0  0  0  0  0  0  0  0  0  0  0  0
    5.0934    0.4227  -16.7287 H   0  0  0  0  0  0  0  0  0  0  0  0
    5.9257   -1.0508  -17.1714 H   0  0  0  0  0  0  0  0  0  0  0  0
    4.6112   -2.2992  -15.4414 H   0  0  0  0  0  0  0  0  0  0  0  0
    3.8407   -0.8128  -14.9458 H   0  0  0  0  0  0  0  0  0  0  0  0
    6.8449   -1.4258  -14.7375 H   0  0  0  0  0  0  0  0  0  0  0  0
    5.7117   -1.4856  -13.4468 H   0  0  0  0  0  0  0  0  0  0  0  0
    4.4860    0.6787  -12.7544 H   0  0  0  0  0  0  0  0  0  0  0  0
    4.8921    3.0818  -12.2338 H   0  0  0  0  0  0  0  0  0  0  0  0
    7.0906    4.4303  -10.7583 H   0  0  0  0  0  0  0  0  0  0  0  0
    9.1732    6.8799  -12.6472 H   0  0  0  0  0  0  0  0  0  0  0  0
   10.9051    8.1727  -11.5967 H   0  0  0  0  0  0  0  0  0  0  0  0
    8.3817    4.8419   -8.9282 H   0  0  0  0  0  0  0  0  0  0  0  0
    9.4555    5.4345   -7.0468 H   0  0  0  0  0  0  0  0  0  0  0  0
   11.1621    5.7351   -7.2536 H   0  0  0  0  0  0  0  0  0  0  0  0
    9.1356    8.0099   -6.8233 H   0  0  0  0  0  0  0  0  0  0  0  0
    9.8593    7.1211   -5.5155 H   0  0  0  0  0  0  0  0  0  0  0  0
   12.0450    9.9780   -5.6899 H   0  0  0  0  0  0  0  0  0  0  0  0
   10.3507    9.7368   -5.3893 H   0  0  0  0  0  0  0  0  0  0  0  0
   11.8701    6.3483   -4.4964 H   0  0  0  0  0  0  0  0  0  0  0  0
   12.4877    6.4198   -1.8459 H   0  0  0  0  0  0  0  0  0  0  0  0
   12.3792    8.8832   -1.1911 H   0  0  0  0  0  0  0  0  0  0  0  0
   10.3646    9.5313   -8.0580 H   0  0  0  0  0  0  0  0  0  0  0  0
   12.0681    9.7723   -7.7272 H   0  0  0  0  0  0  0  0  0  0  0  0
   12.5812    7.5085   -8.7241 H   0  0  0  0  0  0  0  0  0  0  0  0
   12.1610    8.8122   -9.7930 H   0  0  0  0  0  0  0  0  0  0  0  0
    8.4131    2.9883  -14.7438 H   0  0  0  0  0  0  0  0  0  0  0  0
    7.9610    0.6150  -15.2980 H   0  0  0  0  0  0  0  0  0  0  0  0
  2  1  1  0
  3  2  1  0
  4  3  1  0
  5  4  1  0
  6  5  1  0
  7  6  2  0
  8  7  1  0
  9  8  1  0
 10  9  2  0
 11  9  2  0
 12  9  1  0
 13 12  1  0
 14 13  1  0
 15 14  2  0
 16 15  1  0
 17 16  2  0
 18 13  2  0
 18 17  1  0
 19 17  1  0
 20 19  1  0
 21 20  1  0
 22 21  1  0
 23 22  1  0
 24 23  1  0
 25 24  2  0
 26 25  1  0
 27 23  2  0
 27 26  1  0
 28 21  1  0
 29 16  1  0
 29 28  1  0
 30  8  2  0
 31  5  2  0
 31 30  1  0
 32  1  1  0
 33  1  1  0
 34  1  1  0
 35  2  1  0
 36  2  1  0
 37  3  1  0
 38  3  1  0
 39  4  1  0
 40  4  1  0
 41  6  1  0
 42  7  1  0
 43 12  1  0
 44 14  1  0
 45 15  1  0
 46 18  1  0
 47 19  1  0
 48 19  1  0
 49 20  1  0
 50 20  1  0
 51 22  1  0
 52 22  1  0
 53 24  1  0
 54 25  1  0
 55 26  1  0
 56 28  1  0
 57 28  1  0
 58 29  1  0
 59 29  1  0
 60 30  1  0
 61 31  1  0
M  END
>  <b_m_subgroup_collapsed>  (1436) 
0

>  <r_i_docking_score>  (1436) 
-5.7578824867234699

>  <s_m_subgroup_title>  (1436) 
glide-dock_SP_D22_pv

>  <s_m_subgroupid>  (1436) 
glide-dock_SP_D22_pv

>  <Molecule ChEMBL ID>  (1436) 
CHEMBL1080046

>  <Standard Type>  (1436) 
Ki

>  <Standard Value>  (1436) 
100.0

>  <label>  (1436) 
1

$$$$
CHEMBL310867
     RDKit          3D

 46 48  0  0  1  0  0  0  0  0999 V2000
    9.8798    6.1754   -7.3915 C   0  0  0  0  0  0  0  0  0  0  0  0
    8.8131    6.0442   -8.4857 C   0  0  0  0  0  0  0  0  0  0  0  0
    9.4187    5.7983   -9.8755 C   0  0  0  0  0  0  0  0  0  0  0  0
    8.4923    6.2225  -10.9641 N   0  0  0  0  0  0  0  0  0  0  0  0
    9.0780    7.2688  -11.8521 C   0  0  0  0  0  0  0  0  0  0  0  0
    9.0791    8.6959  -11.2693 C   0  0  0  0  0  0  0  0  0  0  0  0
   10.1014    8.9711  -10.1553 C   0  0  0  0  0  0  0  0  0  0  0  0
    7.9134    5.0562  -11.6960 C   0  0  1  0  0  0  0  0  0  0  0  0
    6.4968    5.3461  -12.2493 C   0  0  0  0  0  0  0  0  0  0  0  0
    5.8235    4.0763  -12.8161 C   0  0  0  0  0  0  0  0  0  0  0  0
    6.8045    3.2166  -13.5571 C   0  0  0  0  0  0  0  0  0  0  0  0
    6.4831    2.1383  -14.2499 N   0  0  0  0  0  0  0  0  0  0  0  0
    7.6925    1.6605  -14.7393 N   0  0  0  0  0  0  0  0  0  0  0  0
    7.9039    0.5730  -15.5300 C   0  0  0  0  0  0  0  0  0  0  0  0
    9.2141    0.2956  -15.9046 C   0  0  0  0  0  0  0  0  0  0  0  0
   10.3094    1.1173  -15.4749 C   0  0  0  0  0  0  0  0  0  0  0  0
   10.0888    2.2115  -14.6589 C   0  0  0  0  0  0  0  0  0  0  0  0
    8.7462    2.4162  -14.3391 C   0  0  0  0  0  0  0  0  0  0  0  0
    8.1999    3.3883  -13.5694 C   0  0  0  0  0  0  0  0  0  0  0  0
    8.8639    4.4803  -12.7898 C   0  0  0  0  0  0  0  0  0  0  0  0
    9.4260    6.1730   -6.4001 H   0  0  0  0  0  0  0  0  0  0  0  0
   10.6107    5.3726   -7.4471 H   0  0  0  0  0  0  0  0  0  0  0  0
   10.4320    7.1096   -7.4895 H   0  0  0  0  0  0  0  0  0  0  0  0
    8.2207    6.9578   -8.4883 H   0  0  0  0  0  0  0  0  0  0  0  0
    8.1207    5.2375   -8.2420 H   0  0  0  0  0  0  0  0  0  0  0  0
    9.6920    4.7451   -9.9663 H   0  0  0  0  0  0  0  0  0  0  0  0
   10.3705    6.3203   -9.9625 H   0  0  0  0  0  0  0  0  0  0  0  0
   10.0817    6.9849  -12.1731 H   0  0  0  0  0  0  0  0  0  0  0  0
    8.4765    7.3223  -12.7565 H   0  0  0  0  0  0  0  0  0  0  0  0
    9.2865    9.3723  -12.0982 H   0  0  0  0  0  0  0  0  0  0  0  0
    8.0867    8.9724  -10.9295 H   0  0  0  0  0  0  0  0  0  0  0  0
   10.0821   10.0106   -9.8467 H   0  0  0  0  0  0  0  0  0  0  0  0
    9.8766    8.4182   -9.2511 H   0  0  0  0  0  0  0  0  0  0  0  0
   11.1186    8.7326  -10.4686 H   0  0  0  0  0  0  0  0  0  0  0  0
    7.7513    4.2695  -10.9556 H   0  0  0  0  0  0  0  0  0  0  0  0
    5.8611    5.7746  -11.4724 H   0  0  0  0  0  0  0  0  0  0  0  0
    6.5636    6.0926  -13.0409 H   0  0  0  0  0  0  0  0  0  0  0  0
    4.9874    4.3507  -13.4585 H   0  0  0  0  0  0  0  0  0  0  0  0
    5.3997    3.5042  -11.9896 H   0  0  0  0  0  0  0  0  0  0  0  0
    7.0423   -0.0197  -15.8222 H   0  0  0  0  0  0  0  0  0  0  0  0
    9.4081   -0.5643  -16.5379 H   0  0  0  0  0  0  0  0  0  0  0  0
   11.3153    0.8781  -15.7963 H   0  0  0  0  0  0  0  0  0  0  0  0
   10.8709    2.8664  -14.2921 H   0  0  0  0  0  0  0  0  0  0  0  0
    9.7779    4.1082  -12.3249 H   0  0  0  0  0  0  0  0  0  0  0  0
    9.1711    5.2489  -13.4969 H   0  0  0  0  0  0  0  0  0  0  0  0
    7.7043    6.6921  -10.5142 H   0  0  0  0  0  0  0  0  0  0  0  0
  2  1  1  0
  3  2  1  0
  4  3  1  0
  5  4  1  0
  6  5  1  0
  7  6  1  0
  8  4  1  0
  9  8  1  0
 10  9  1  0
 11 10  1  0
 12 11  2  0
 13 12  1  0
 14 13  1  0
 15 14  2  0
 16 15  1  0
 17 16  2  0
 18 13  1  0
 18 17  1  0
 19 11  1  0
 19 18  2  0
 20  8  1  0
 20 19  1  0
 21  1  1  0
 22  1  1  0
 23  1  1  0
 24  2  1  0
 25  2  1  0
 26  3  1  0
 27  3  1  0
 28  5  1  0
 29  5  1  0
 30  6  1  0
 31  6  1  0
 32  7  1  0
 33  7  1  0
 34  7  1  0
  8 35  1  1
 36  9  1  0
 37  9  1  0
 38 10  1  0
 39 10  1  0
 40 14  1  0
 41 15  1  0
 42 16  1  0
 43 17  1  0
 44 20  1  0
 45 20  1  0
 46  4  1  0
M  CHG  1   4   1
M  END
>  <b_m_subgroup_collapsed>  (1437) 
0

>  <r_i_docking_score>  (1437) 
-5.7559984766085099

>  <s_m_subgroup_title>  (1437) 
glide-dock_SP_D22_pv

>  <s_m_subgroupid>  (1437) 
glide-dock_SP_D22_pv

>  <Molecule ChEMBL ID>  (1437) 
CHEMBL310867

>  <Standard Type>  (1437) 
Ki

>  <Standard Value>  (1437) 
35.0

>  <label>  (1437) 
1

$$$$
CHEMBL554220
     RDKit          3D

 41 42  0  0  1  0  0  0  0  0999 V2000
    8.7570    5.9574   -8.0456 C   0  0  0  0  0  0  0  0  0  0  0  0
    9.4156    5.0492   -9.0882 C   0  0  0  0  0  0  0  0  0  0  0  0
    9.1875    5.4964  -10.5422 C   0  0  0  0  0  0  0  0  0  0  0  0
    7.7714    5.3722  -10.9555 N   0  0  0  0  0  0  0  0  0  0  0  0
    7.4293    5.8639  -12.3102 C   0  0  2  0  0  0  0  0  0  0  0  0
    5.9197    5.6885  -12.5476 C   0  0  0  0  0  0  0  0  0  0  0  0
    5.4778    4.2197  -12.7244 C   0  0  0  0  0  0  0  0  0  0  0  0
    6.4744    3.3233  -13.4470 C   0  0  0  0  0  0  0  0  0  0  0  0
    6.0862    2.0059  -13.7770 C   0  0  0  0  0  0  0  0  0  0  0  0
    7.0126    1.1106  -14.3478 C   0  0  0  0  0  0  0  0  0  0  0  0
    8.3371    1.5233  -14.5952 C   0  0  0  0  0  0  0  0  0  0  0  0
    9.2568    0.6138  -15.0494 O   0  0  0  0  0  0  0  0  0  0  0  0
    9.5747    0.5588  -16.7101 S   0  0  0  0  0  0  0  0  0  0  0  0
   10.0821   -0.7901  -17.0116 O   0  0  0  0  0  0  0  0  0  0  0  0
    8.4049    1.1055  -17.4194 O   0  0  0  0  0  0  0  0  0  0  0  0
   10.9789    1.7596  -16.8038 C   0  0  0  0  0  0  0  0  0  0  0  0
   10.5203    2.9465  -17.1991 F   0  0  0  0  0  0  0  0  0  0  0  0
   11.5547    1.8637  -15.6072 F   0  0  0  0  0  0  0  0  0  0  0  0
   11.8756    1.3036  -17.6776 F   0  0  0  0  0  0  0  0  0  0  0  0
    8.7179    2.8481  -14.2946 C   0  0  0  0  0  0  0  0  0  0  0  0
    7.7935    3.7532  -13.7292 C   0  0  0  0  0  0  0  0  0  0  0  0
    8.2287    5.1800  -13.4419 C   0  0  0  0  0  0  0  0  0  0  0  0
    9.1549    5.7712   -7.0480 H   0  0  0  0  0  0  0  0  0  0  0  0
    8.9140    7.0135   -8.2685 H   0  0  0  0  0  0  0  0  0  0  0  0
    7.6866    5.7725   -8.0032 H   0  0  0  0  0  0  0  0  0  0  0  0
    9.0822    4.0215   -8.9447 H   0  0  0  0  0  0  0  0  0  0  0  0
   10.4877    5.0417   -8.8993 H   0  0  0  0  0  0  0  0  0  0  0  0
    9.8105    4.8718  -11.1820 H   0  0  0  0  0  0  0  0  0  0  0  0
    9.5193    6.5282  -10.6755 H   0  0  0  0  0  0  0  0  0  0  0  0
    7.2273    5.9493  -10.3175 H   0  0  0  0  0  0  0  0  0  0  0  0
    7.6607    6.9306  -12.3157 H   0  0  0  0  0  0  0  0  0  0  0  0
    5.3470    6.1610  -11.7472 H   0  0  0  0  0  0  0  0  0  0  0  0
    5.6469    6.2339  -13.4468 H   0  0  0  0  0  0  0  0  0  0  0  0
    4.5174    4.1723  -13.2405 H   0  0  0  0  0  0  0  0  0  0  0  0
    5.3134    3.7807  -11.7392 H   0  0  0  0  0  0  0  0  0  0  0  0
    5.0835    1.6664  -13.5612 H   0  0  0  0  0  0  0  0  0  0  0  0
    6.7159    0.0951  -14.5668 H   0  0  0  0  0  0  0  0  0  0  0  0
    9.7320    3.1685  -14.4784 H   0  0  0  0  0  0  0  0  0  0  0  0
    9.3021    5.2198  -13.2644 H   0  0  0  0  0  0  0  0  0  0  0  0
    8.0864    5.7371  -14.3656 H   0  0  0  0  0  0  0  0  0  0  0  0
    7.4651    4.4144  -10.8556 H   0  0  0  0  0  0  0  0  0  0  0  0
  2  1  1  0
  3  2  1  0
  4  3  1  0
  5  4  1  0
  6  5  1  0
  7  6  1  0
  8  7  1  0
  9  8  1  0
 10  9  2  0
 11 10  1  0
 12 11  1  0
 13 12  1  0
 14 13  2  0
 15 13  2  0
 16 13  1  0
 17 16  1  0
 18 16  1  0
 19 16  1  0
 20 11  2  0
 21  8  2  0
 21 20  1  0
 22  5  1  0
 22 21  1  0
 23  1  1  0
 24  1  1  0
 25  1  1  0
 26  2  1  0
 27  2  1  0
 28  3  1  0
 29  3  1  0
 30  4  1  0
  5 31  1  1
 32  6  1  0
 33  6  1  0
 34  7  1  0
 35  7  1  0
 36  9  1  0
 37 10  1  0
 38 20  1  0
 39 22  1  0
 40 22  1  0
 41  4  1  0
M  CHG  1   4   1
M  END
>  <b_m_subgroup_collapsed>  (1438) 
0

>  <r_i_docking_score>  (1438) 
-5.7546953276286299

>  <s_m_subgroup_title>  (1438) 
glide-dock_SP_D22_pv

>  <s_m_subgroupid>  (1438) 
glide-dock_SP_D22_pv

>  <Molecule ChEMBL ID>  (1438) 
CHEMBL554220

>  <Standard Type>  (1438) 
Ki

>  <Standard Value>  (1438) 
50.0

>  <label>  (1438) 
1

$$$$
CHEMBL407641
     RDKit          3D

 37 38  0  0  1  0  0  0  0  0999 V2000
   12.7981    4.8656  -14.5451 C   0  0  0  0  0  0  0  0  0  0  0  0
   11.6963    4.0229  -14.9820 N   0  0  0  0  0  0  0  0  0  0  0  0
   10.4613    3.9921  -14.3740 C   0  0  0  0  0  0  0  0  0  0  0  0
    9.6069    3.1094  -14.8695 N   0  0  0  0  0  0  0  0  0  0  0  0
    8.3891    3.0450  -14.2976 C   0  0  0  0  0  0  0  0  0  0  0  0
    7.2881    1.8694  -14.9255 Cl  0  0  0  0  0  0  0  0  0  0  0  0
    8.0214    3.8911  -13.2237 C   0  0  0  0  0  0  0  0  0  0  0  0
    6.3906    3.7726  -12.5136 S   0  0  0  0  0  0  0  0  0  0  0  0
    5.2382    4.5187  -13.6743 C   0  0  0  0  0  0  0  0  0  0  0  0
    9.0341    4.7772  -12.7532 C   0  0  0  0  0  0  0  0  0  0  0  0
    8.9218    5.6404  -11.6439 N   0  0  0  0  0  0  0  0  0  0  0  0
    8.1267    5.2851  -10.4765 C   0  0  0  0  0  0  0  0  0  0  0  0
    8.7160    5.9070   -9.2029 C   0  0  0  0  0  0  0  0  0  0  0  0
    8.8863    7.3651   -9.3885 N   0  0  0  0  0  0  0  0  0  0  0  0
    9.2533    8.0746   -8.1447 C   0  0  0  0  0  0  0  0  0  0  0  0
    9.7606    7.6891  -10.5412 C   0  0  0  0  0  0  0  0  0  0  0  0
    9.2148    7.0590  -11.8362 C   0  0  0  0  0  0  0  0  0  0  0  0
   10.2386    4.8227  -13.3604 N   0  0  0  0  0  0  0  0  0  0  0  0
   13.6422    4.7685  -15.2273 H   0  0  0  0  0  0  0  0  0  0  0  0
   12.4989    5.9137  -14.5205 H   0  0  0  0  0  0  0  0  0  0  0  0
   13.1248    4.5769  -13.5457 H   0  0  0  0  0  0  0  0  0  0  0  0
   11.8478    3.3658  -15.7328 H   0  0  0  0  0  0  0  0  0  0  0  0
    4.2253    4.1874  -13.4484 H   0  0  0  0  0  0  0  0  0  0  0  0
    5.2775    5.6052  -13.6137 H   0  0  0  0  0  0  0  0  0  0  0  0
    5.4813    4.1949  -14.6794 H   0  0  0  0  0  0  0  0  0  0  0  0
    7.1191    5.6658  -10.6452 H   0  0  0  0  0  0  0  0  0  0  0  0
    8.0667    4.2030  -10.3581 H   0  0  0  0  0  0  0  0  0  0  0  0
    8.0515    5.7136   -8.3599 H   0  0  0  0  0  0  0  0  0  0  0  0
    9.6771    5.4485   -8.9651 H   0  0  0  0  0  0  0  0  0  0  0  0
   10.2371    7.7647   -7.7906 H   0  0  0  0  0  0  0  0  0  0  0  0
    9.2668    9.1528   -8.3074 H   0  0  0  0  0  0  0  0  0  0  0  0
    8.5232    7.8709   -7.3597 H   0  0  0  0  0  0  0  0  0  0  0  0
    9.8316    8.7705  -10.6633 H   0  0  0  0  0  0  0  0  0  0  0  0
   10.7691    7.3222  -10.3437 H   0  0  0  0  0  0  0  0  0  0  0  0
    9.9322    7.2170  -12.6408 H   0  0  0  0  0  0  0  0  0  0  0  0
    8.2921    7.5604  -12.1332 H   0  0  0  0  0  0  0  0  0  0  0  0
    7.9465    7.6865   -9.6534 H   0  0  0  0  0  0  0  0  0  0  0  0
  2  1  1  0
  3  2  1  0
  4  3  2  0
  5  4  1  0
  6  5  1  0
  7  5  2  0
  8  7  1  0
  9  8  1  0
 10  7  1  0
 11 10  1  0
 12 11  1  0
 13 12  1  0
 14 13  1  0
 15 14  1  0
 16 14  1  0
 17 11  1  0
 17 16  1  0
 18  3  1  0
 18 10  2  0
 19  1  1  0
 20  1  1  0
 21  1  1  0
 22  2  1  0
 23  9  1  0
 24  9  1  0
 25  9  1  0
 26 12  1  0
 27 12  1  0
 28 13  1  0
 29 13  1  0
 30 15  1  0
 31 15  1  0
 32 15  1  0
 33 16  1  0
 34 16  1  0
 35 17  1  0
 36 17  1  0
 37 14  1  0
M  CHG  1  14   1
M  END
>  <b_m_subgroup_collapsed>  (1439) 
0

>  <r_i_docking_score>  (1439) 
-5.7539515824903704

>  <s_m_subgroup_title>  (1439) 
glide-dock_SP_D22_pv

>  <s_m_subgroupid>  (1439) 
glide-dock_SP_D22_pv

>  <Molecule ChEMBL ID>  (1439) 
CHEMBL407641

>  <Standard Type>  (1439) 
Ki

>  <Standard Value>  (1439) 
5.4

>  <label>  (1439) 
1

$$$$
CHEMBL18174
     RDKit          3D

 26 28  0  0  1  0  0  0  0  0999 V2000
    7.8283    5.0927  -12.1840 C   0  0  0  0  0  0  0  0  0  0  0  0
    8.5173    6.1725  -12.7471 C   0  0  0  0  0  0  0  0  0  0  0  0
    9.4594    6.8953  -11.9866 C   0  0  0  0  0  0  0  0  0  0  0  0
    9.7405    6.5497  -10.6427 C   0  0  0  0  0  0  0  0  0  0  0  0
    9.0353    5.4533  -10.0836 C   0  0  0  0  0  0  0  0  0  0  0  0
    8.0891    4.7438  -10.8538 C   0  0  0  0  0  0  0  0  0  0  0  0
    9.2410    5.0338   -8.6468 C   0  0  0  0  0  0  0  0  0  0  0  0
    8.8857    6.1721   -7.6849 C   0  0  0  0  0  0  0  0  0  0  0  0
   10.0839    7.0324   -7.2916 C   0  0  0  0  0  0  0  0  0  0  0  0
   10.8889    7.5388   -8.4574 C   0  0  0  0  0  0  0  0  0  0  0  0
   11.9839    8.3452   -8.3452 C   0  0  0  0  0  0  0  0  0  0  0  0
   12.4452    8.5722   -9.6133 N   0  0  0  0  0  0  0  0  0  0  0  0
   11.6953    7.9708  -10.5505 N   0  0  0  0  0  0  0  0  0  0  0  0
   10.7380    7.3345   -9.8758 C   0  0  0  0  0  0  0  0  0  0  0  0
    7.0920    4.5505  -12.7561 H   0  0  0  0  0  0  0  0  0  0  0  0
    8.3022    6.4527  -13.7649 H   0  0  0  0  0  0  0  0  0  0  0  0
    9.9640    7.7291  -12.4485 H   0  0  0  0  0  0  0  0  0  0  0  0
    7.5335    3.9291  -10.4194 H   0  0  0  0  0  0  0  0  0  0  0  0
    8.6088    4.1740   -8.4266 H   0  0  0  0  0  0  0  0  0  0  0  0
   10.2686    4.7003   -8.5132 H   0  0  0  0  0  0  0  0  0  0  0  0
    8.1068    6.7939   -8.1247 H   0  0  0  0  0  0  0  0  0  0  0  0
    8.4448    5.7740   -6.7712 H   0  0  0  0  0  0  0  0  0  0  0  0
    9.7253    7.8648   -6.6854 H   0  0  0  0  0  0  0  0  0  0  0  0
   10.7218    6.4450   -6.6302 H   0  0  0  0  0  0  0  0  0  0  0  0
   12.4667    8.7723   -7.4787 H   0  0  0  0  0  0  0  0  0  0  0  0
   13.2121    9.2050   -9.8476 H   0  0  0  0  0  0  0  0  0  0  0  0
  2  1  2  0
  3  2  1  0
  4  3  2  0
  5  4  1  0
  6  1  1  0
  6  5  2  0
  7  5  1  0
  8  7  1  0
  9  8  1  0
 10  9  1  0
 11 10  2  0
 12 11  1  0
 13 12  1  0
 14  4  1  0
 14 10  1  0
 14 13  2  0
 15  1  1  0
 16  2  1  0
 17  3  1  0
 18  6  1  0
 19  7  1  0
 20  7  1  0
 21  8  1  0
 22  8  1  0
 23  9  1  0
 24  9  1  0
 25 11  1  0
 26 12  1  0
M  END
>  <b_m_subgroup_collapsed>  (1440) 
0

>  <r_i_docking_score>  (1440) 
-5.7490418487735599

>  <s_m_subgroup_title>  (1440) 
glide-dock_SP_D22_pv

>  <s_m_subgroupid>  (1440) 
glide-dock_SP_D22_pv

>  <Molecule ChEMBL ID>  (1440) 
CHEMBL18174

>  <Standard Type>  (1440) 
Ki

>  <Standard Value>  (1440) 
10000.0

>  <label>  (1440) 
0

$$$$
CHEMBL392970
     RDKit          3D

 62 65  0  0  1  0  0  0  0  0999 V2000
   11.6034    6.5720   -4.7942 C   0  0  0  0  0  0  0  0  0  0  0  0
   10.3879    6.9726   -5.4121 O   0  0  0  0  0  0  0  0  0  0  0  0
   10.4724    7.2993   -6.7391 C   0  0  0  0  0  0  0  0  0  0  0  0
    9.6973    6.5446   -7.6361 C   0  0  0  0  0  0  0  0  0  0  0  0
    9.7688    6.7713   -9.0228 C   0  0  0  0  0  0  0  0  0  0  0  0
   10.6291    7.7791   -9.5169 C   0  0  0  0  0  0  0  0  0  0  0  0
   11.3698    8.5719   -8.6167 C   0  0  0  0  0  0  0  0  0  0  0  0
   11.2778    8.3605   -7.2273 C   0  0  0  0  0  0  0  0  0  0  0  0
   11.9583    9.2134   -6.3955 O   0  0  0  0  0  0  0  0  0  0  0  0
   11.1168    9.9682   -5.5363 C   0  0  0  0  0  0  0  0  0  0  0  0
   10.7505    8.0371  -11.0066 C   0  0  0  0  0  0  0  0  0  0  0  0
   10.1618    6.9711  -11.8337 N   0  0  0  0  0  0  0  0  0  0  0  0
   10.7336    6.4883  -12.9563 C   0  0  0  0  0  0  0  0  0  0  0  0
   11.9299    6.8946  -13.4297 N   0  0  0  0  0  0  0  0  0  0  0  0
   12.3313    6.4849  -14.7431 C   0  0  0  0  0  0  0  0  0  0  0  0
   12.8856    7.4385  -15.6100 C   0  0  0  0  0  0  0  0  0  0  0  0
   13.2545    7.0497  -16.9090 C   0  0  0  0  0  0  0  0  0  0  0  0
   13.0830    5.7177  -17.3542 C   0  0  0  0  0  0  0  0  0  0  0  0
   12.5495    4.7455  -16.4544 C   0  0  0  0  0  0  0  0  0  0  0  0
   12.1743    5.1493  -15.1535 C   0  0  0  0  0  0  0  0  0  0  0  0
   12.3344    3.2645  -16.7817 C   0  0  1  0  0  0  0  0  0  0  0  0
   10.9712    2.9994  -17.0982 O   0  0  0  0  0  0  0  0  0  0  0  0
   10.3692    1.8631  -16.6934 C   0  0  0  0  0  0  0  0  0  0  0  0
    8.9166    1.7855  -17.1388 C   0  0  0  0  0  0  0  0  0  0  0  0
   10.8855    0.9565  -16.0406 O   0  0  0  0  0  0  0  0  0  0  0  0
   13.2785    2.6646  -17.8440 C   0  0  0  0  0  0  0  0  0  0  0  0
   12.9000    2.9878  -19.2977 C   0  0  0  0  0  0  0  0  0  0  0  0
   12.5559    4.4618  -19.5367 C   0  0  0  0  0  0  0  0  0  0  0  0
   13.4904    5.4223  -18.7956 C   0  0  0  0  0  0  0  0  0  0  0  0
    8.8608    6.4433  -11.3979 C   0  0  0  0  0  0  0  0  0  0  0  0
    8.9278    5.9153   -9.9570 C   0  0  0  0  0  0  0  0  0  0  0  0
   11.3776    6.1720   -3.8060 H   0  0  0  0  0  0  0  0  0  0  0  0
   12.0855    5.7750   -5.3631 H   0  0  0  0  0  0  0  0  0  0  0  0
   12.2921    7.4021   -4.6476 H   0  0  0  0  0  0  0  0  0  0  0  0
    9.0509    5.7696   -7.2518 H   0  0  0  0  0  0  0  0  0  0  0  0
   11.9989    9.3675   -8.9919 H   0  0  0  0  0  0  0  0  0  0  0  0
   11.7103   10.5721   -4.8605 H   0  0  0  0  0  0  0  0  0  0  0  0
   10.4867   10.6402   -6.1176 H   0  0  0  0  0  0  0  0  0  0  0  0
   10.4859    9.3486   -4.9040 H   0  0  0  0  0  0  0  0  0  0  0  0
   11.8069    8.1747  -11.2381 H   0  0  0  0  0  0  0  0  0  0  0  0
   10.2419    8.9720  -11.2372 H   0  0  0  0  0  0  0  0  0  0  0  0
   10.1887    5.7301  -13.5047 H   0  0  0  0  0  0  0  0  0  0  0  0
   13.0182    8.4648  -15.2998 H   0  0  0  0  0  0  0  0  0  0  0  0
   13.6620    7.7976  -17.5759 H   0  0  0  0  0  0  0  0  0  0  0  0
   11.7658    4.4188  -14.4692 H   0  0  0  0  0  0  0  0  0  0  0  0
   12.5719    2.7499  -15.8512 H   0  0  0  0  0  0  0  0  0  0  0  0
    8.8496    1.8505  -18.2241 H   0  0  0  0  0  0  0  0  0  0  0  0
    8.4723    0.8422  -16.8192 H   0  0  0  0  0  0  0  0  0  0  0  0
    8.3459    2.6025  -16.7002 H   0  0  0  0  0  0  0  0  0  0  0  0
   14.3011    2.9778  -17.6352 H   0  0  0  0  0  0  0  0  0  0  0  0
   13.2854    1.5793  -17.7395 H   0  0  0  0  0  0  0  0  0  0  0  0
   13.7281    2.6971  -19.9425 H   0  0  0  0  0  0  0  0  0  0  0  0
   12.0525    2.3725  -19.6056 H   0  0  0  0  0  0  0  0  0  0  0  0
   12.6297    4.6470  -20.6091 H   0  0  0  0  0  0  0  0  0  0  0  0
   11.5178    4.6719  -19.2741 H   0  0  0  0  0  0  0  0  0  0  0  0
   13.4935    6.3652  -19.3457 H   0  0  0  0  0  0  0  0  0  0  0  0
   14.5198    5.0660  -18.8190 H   0  0  0  0  0  0  0  0  0  0  0  0
    8.1469    7.2654  -11.4466 H   0  0  0  0  0  0  0  0  0  0  0  0
    8.4984    5.6707  -12.0746 H   0  0  0  0  0  0  0  0  0  0  0  0
    9.3296    4.9018   -9.9543 H   0  0  0  0  0  0  0  0  0  0  0  0
    7.9179    5.8498   -9.5519 H   0  0  0  0  0  0  0  0  0  0  0  0
   12.3475    7.7133  -13.0125 H   0  0  0  0  0  0  0  0  0  0  0  0
  2  1  1  0
  3  2  1  0
  4  3  2  0
  5  4  1  0
  6  5  2  0
  7  6  1  0
  8  3  1  0
  8  7  2  0
  9  8  1  0
 10  9  1  0
 11  6  1  0
 12 11  1  0
 13 12  2  3
 14 13  1  0
 15 14  1  0
 16 15  1  0
 17 16  2  0
 18 17  1  0
 19 18  2  0
 20 15  2  0
 20 19  1  0
 21 19  1  0
 22 21  1  0
 23 22  1  0
 24 23  1  0
 25 23  2  0
 26 21  1  0
 27 26  1  0
 28 27  1  0
 29 18  1  0
 29 28  1  0
 30 12  1  0
 31  5  1  0
 31 30  1  0
 32  1  1  0
 33  1  1  0
 34  1  1  0
 35  4  1  0
 36  7  1  0
 37 10  1  0
 38 10  1  0
 39 10  1  0
 40 11  1  0
 41 11  1  0
 42 13  1  0
 43 16  1  0
 44 17  1  0
 45 20  1  0
 21 46  1  1
 47 24  1  0
 48 24  1  0
 49 24  1  0
 50 26  1  0
 51 26  1  0
 52 27  1  0
 53 27  1  0
 54 28  1  0
 55 28  1  0
 56 29  1  0
 57 29  1  0
 58 30  1  0
 59 30  1  0
 60 31  1  0
 61 31  1  0
 62 14  1  0
M  CHG  1  12   1
M  END
>  <b_m_subgroup_collapsed>  (1441) 
0

>  <r_i_docking_score>  (1441) 
-5.7432490156176303

>  <s_m_subgroup_title>  (1441) 
glide-dock_SP_D22_pv

>  <s_m_subgroupid>  (1441) 
glide-dock_SP_D22_pv

>  <Molecule ChEMBL ID>  (1441) 
CHEMBL392970

>  <Standard Type>  (1441) 
Ki

>  <Standard Value>  (1441) 
14000.0

>  <label>  (1441) 
0

$$$$
CHEMBL4164366
     RDKit          3D

 50 52  0  0  1  0  0  0  0  0999 V2000
    9.4360    1.9929  -17.2960 C   0  0  0  0  0  0  0  0  0  0  0  0
    9.5162    1.2352  -15.9587 C   0  0  0  0  0  0  0  0  0  0  0  0
   10.8010    1.6213  -15.2009 C   0  0  0  0  0  0  0  0  0  0  0  0
    9.6078   -0.2729  -16.2712 C   0  0  0  0  0  0  0  0  0  0  0  0
    8.3019    1.5501  -15.1198 C   0  0  0  0  0  0  0  0  0  0  0  0
    8.0563    2.7764  -14.6457 N   0  0  0  0  0  0  0  0  0  0  0  0
    6.8863    2.8585  -13.8811 C   0  0  0  0  0  0  0  0  0  0  0  0
    6.5056    4.1480  -13.2132 C   0  0  0  0  0  0  0  0  0  0  0  0
    7.5461    5.0957  -12.8153 N   0  0  0  0  0  0  0  0  0  0  0  0
    6.9434    6.3473  -12.3580 C   0  0  0  0  0  0  0  0  0  0  0  0
    8.0856    7.3532  -12.1373 C   0  0  0  0  0  0  0  0  0  0  0  0
    8.8864    6.8947  -10.9878 N   0  0  0  0  0  0  0  0  0  0  0  0
    9.8868    7.8873  -10.5240 C   0  0  0  0  0  0  0  0  0  0  0  0
   10.1338    7.8774   -9.0209 C   0  0  0  0  0  0  0  0  0  0  0  0
    9.5211    6.9554   -8.1396 C   0  0  0  0  0  0  0  0  0  0  0  0
    9.7997    7.0547   -6.7632 C   0  0  0  0  0  0  0  0  0  0  0  0
   10.6715    8.0628   -6.3150 C   0  0  0  0  0  0  0  0  0  0  0  0
   11.2333    8.9346   -7.2688 C   0  0  0  0  0  0  0  0  0  0  0  0
   10.9738    8.8462   -8.5878 N   0  0  0  0  0  0  0  0  0  0  0  0
    9.4459    5.5501  -11.2819 C   0  0  0  0  0  0  0  0  0  0  0  0
    8.3337    4.5623  -11.6981 C   0  0  0  0  0  0  0  0  0  0  0  0
    6.1891    1.6760  -13.8469 C   0  0  0  0  0  0  0  0  0  0  0  0
    7.0301    0.3999  -14.6858 S   0  0  0  0  0  0  0  0  0  0  0  0
    8.5407    1.7166  -17.8557 H   0  0  0  0  0  0  0  0  0  0  0  0
    9.4049    3.0726  -17.1392 H   0  0  0  0  0  0  0  0  0  0  0  0
   10.2980    1.7793  -17.9279 H   0  0  0  0  0  0  0  0  0  0  0  0
   10.8847    1.0872  -14.2533 H   0  0  0  0  0  0  0  0  0  0  0  0
   11.6885    1.3908  -15.7892 H   0  0  0  0  0  0  0  0  0  0  0  0
   10.8271    2.6890  -14.9793 H   0  0  0  0  0  0  0  0  0  0  0  0
    8.7362   -0.6274  -16.8255 H   0  0  0  0  0  0  0  0  0  0  0  0
   10.4855   -0.4998  -16.8779 H   0  0  0  0  0  0  0  0  0  0  0  0
    9.6851   -0.8659  -15.3583 H   0  0  0  0  0  0  0  0  0  0  0  0
    5.9002    3.9271  -12.3312 H   0  0  0  0  0  0  0  0  0  0  0  0
    5.8321    4.6739  -13.8905 H   0  0  0  0  0  0  0  0  0  0  0  0
    6.3651    6.1723  -11.4471 H   0  0  0  0  0  0  0  0  0  0  0  0
    6.2386    6.7475  -13.0840 H   0  0  0  0  0  0  0  0  0  0  0  0
    7.6858    8.3465  -11.9400 H   0  0  0  0  0  0  0  0  0  0  0  0
    8.6875    7.4288  -13.0356 H   0  0  0  0  0  0  0  0  0  0  0  0
    9.5448    8.8939  -10.7706 H   0  0  0  0  0  0  0  0  0  0  0  0
   10.8317    7.7523  -11.0534 H   0  0  0  0  0  0  0  0  0  0  0  0
    8.8340    6.1950   -8.4799 H   0  0  0  0  0  0  0  0  0  0  0  0
    9.3461    6.3749   -6.0577 H   0  0  0  0  0  0  0  0  0  0  0  0
   10.9073    8.1707   -5.2676 H   0  0  0  0  0  0  0  0  0  0  0  0
   11.9084    9.7227   -6.9618 H   0  0  0  0  0  0  0  0  0  0  0  0
   10.1824    5.6254  -12.0853 H   0  0  0  0  0  0  0  0  0  0  0  0
    9.9743    5.1635  -10.4098 H   0  0  0  0  0  0  0  0  0  0  0  0
    7.6884    4.3379  -10.8461 H   0  0  0  0  0  0  0  0  0  0  0  0
    8.8036    3.6258  -12.0038 H   0  0  0  0  0  0  0  0  0  0  0  0
    5.2526    1.4710  -13.3500 H   0  0  0  0  0  0  0  0  0  0  0  0
    8.1979    6.8225  -10.2471 H   0  0  0  0  0  0  0  0  0  0  0  0
  2  1  1  0
  3  2  1  0
  4  2  1  0
  5  2  1  0
  6  5  2  0
  7  6  1  0
  8  7  1  0
  9  8  1  0
 10  9  1  0
 11 10  1  0
 12 11  1  0
 13 12  1  0
 14 13  1  0
 15 14  2  0
 16 15  1  0
 17 16  2  0
 18 17  1  0
 19 14  1  0
 19 18  2  0
 20 12  1  0
 21  9  1  0
 21 20  1  0
 22  7  2  0
 23  5  1  0
 23 22  1  0
 24  1  1  0
 25  1  1  0
 26  1  1  0
 27  3  1  0
 28  3  1  0
 29  3  1  0
 30  4  1  0
 31  4  1  0
 32  4  1  0
 33  8  1  0
 34  8  1  0
 35 10  1  0
 36 10  1  0
 37 11  1  0
 38 11  1  0
 39 13  1  0
 40 13  1  0
 41 15  1  0
 42 16  1  0
 43 17  1  0
 44 18  1  0
 45 20  1  0
 46 20  1  0
 47 21  1  0
 48 21  1  0
 49 22  1  0
 50 12  1  0
M  CHG  1  12   1
M  END
>  <b_m_subgroup_collapsed>  (1442) 
0

>  <r_i_docking_score>  (1442) 
-5.7426437193784903

>  <s_m_subgroup_title>  (1442) 
glide-dock_SP_D22_pv

>  <s_m_subgroupid>  (1442) 
glide-dock_SP_D22_pv

>  <Molecule ChEMBL ID>  (1442) 
CHEMBL4164366

>  <Standard Type>  (1442) 
Ki

>  <Standard Value>  (1442) 
10000.0

>  <label>  (1442) 
0

$$$$
CHEMBL596271
     RDKit          3D

 45 48  0  0  1  0  0  0  0  0999 V2000
   11.2925    2.8609  -15.4513 C   0  0  0  0  0  0  0  0  0  0  0  0
    9.9462    2.9916  -14.9202 N   0  0  0  0  0  0  0  0  0  0  0  0
    9.4506    4.0071  -14.1711 C   0  0  0  0  0  0  0  0  0  0  0  0
   10.3451    5.1434  -13.7503 C   0  0  0  0  0  0  0  0  0  0  0  0
    9.8883    5.9871  -12.6405 N   0  0  0  0  0  0  0  0  0  0  0  0
    9.6636    5.1857  -11.4239 C   0  0  0  0  0  0  0  0  0  0  0  0
    9.4129    6.0611  -10.1826 C   0  0  0  0  0  0  0  0  0  0  0  0
   10.4862    7.0333  -10.0180 N   0  0  0  0  0  0  0  0  0  0  0  0
   10.6393    7.6804   -8.7813 C   0  0  0  0  0  0  0  0  0  0  0  0
   11.8618    8.3272   -8.4918 C   0  0  0  0  0  0  0  0  0  0  0  0
   12.0579    8.9721   -7.2573 C   0  0  0  0  0  0  0  0  0  0  0  0
   11.0329    8.9804   -6.2963 C   0  0  0  0  0  0  0  0  0  0  0  0
   11.2824    9.7723   -4.7834 Cl  0  0  0  0  0  0  0  0  0  0  0  0
    9.8121    8.3389   -6.5775 C   0  0  0  0  0  0  0  0  0  0  0  0
    9.6125    7.6944   -7.8098 C   0  0  0  0  0  0  0  0  0  0  0  0
   10.6235    7.8730  -11.1967 C   0  0  0  0  0  0  0  0  0  0  0  0
   10.9399    6.9907  -12.4110 C   0  0  0  0  0  0  0  0  0  0  0  0
    8.1622    3.9027  -13.8391 N   0  0  0  0  0  0  0  0  0  0  0  0
    7.8174    2.6700  -14.3467 C   0  0  0  0  0  0  0  0  0  0  0  0
    6.6061    1.9531  -14.2502 C   0  0  0  0  0  0  0  0  0  0  0  0
    6.4704    0.7069  -14.8942 C   0  0  0  0  0  0  0  0  0  0  0  0
    7.5328    0.1728  -15.6473 C   0  0  0  0  0  0  0  0  0  0  0  0
    8.7636    0.8512  -15.7211 C   0  0  0  0  0  0  0  0  0  0  0  0
    8.9000    2.0880  -15.0652 C   0  0  0  0  0  0  0  0  0  0  0  0
   11.4038    1.9194  -15.9908 H   0  0  0  0  0  0  0  0  0  0  0  0
   11.5003    3.6844  -16.1360 H   0  0  0  0  0  0  0  0  0  0  0  0
   12.0179    2.8804  -14.6373 H   0  0  0  0  0  0  0  0  0  0  0  0
   10.5047    5.7707  -14.6280 H   0  0  0  0  0  0  0  0  0  0  0  0
   11.3177    4.7265  -13.4853 H   0  0  0  0  0  0  0  0  0  0  0  0
   10.4858    4.4978  -11.2574 H   0  0  0  0  0  0  0  0  0  0  0  0
    8.7857    4.5543  -11.5441 H   0  0  0  0  0  0  0  0  0  0  0  0
    9.3403    5.4219   -9.3020 H   0  0  0  0  0  0  0  0  0  0  0  0
    8.4610    6.5833  -10.2836 H   0  0  0  0  0  0  0  0  0  0  0  0
   12.6677    8.3228   -9.2113 H   0  0  0  0  0  0  0  0  0  0  0  0
   13.0020    9.4515   -7.0475 H   0  0  0  0  0  0  0  0  0  0  0  0
    9.0181    8.3273   -5.8495 H   0  0  0  0  0  0  0  0  0  0  0  0
    8.6565    7.2250   -7.9938 H   0  0  0  0  0  0  0  0  0  0  0  0
    9.6977    8.4273  -11.3597 H   0  0  0  0  0  0  0  0  0  0  0  0
   11.4147    8.6095  -11.0598 H   0  0  0  0  0  0  0  0  0  0  0  0
   11.9125    6.5269  -12.2541 H   0  0  0  0  0  0  0  0  0  0  0  0
   11.0474    7.6192  -13.2937 H   0  0  0  0  0  0  0  0  0  0  0  0
    5.7812    2.3739  -13.6943 H   0  0  0  0  0  0  0  0  0  0  0  0
    5.5359    0.1675  -14.8326 H   0  0  0  0  0  0  0  0  0  0  0  0
    7.3969   -0.7660  -16.1624 H   0  0  0  0  0  0  0  0  0  0  0  0
    9.5858    0.4278  -16.2772 H   0  0  0  0  0  0  0  0  0  0  0  0
  2  1  1  0
  3  2  1  0
  4  3  1  0
  5  4  1  0
  6  5  1  0
  7  6  1  0
  8  7  1  0
  9  8  1  0
 10  9  1  0
 11 10  2  0
 12 11  1  0
 13 12  1  0
 14 12  2  0
 15  9  2  0
 15 14  1  0
 16  8  1  0
 17  5  1  0
 17 16  1  0
 18  3  2  0
 19 18  1  0
 20 19  2  0
 21 20  1  0
 22 21  2  0
 23 22  1  0
 24  2  1  0
 24 19  1  0
 24 23  2  0
 25  1  1  0
 26  1  1  0
 27  1  1  0
 28  4  1  0
 29  4  1  0
 30  6  1  0
 31  6  1  0
 32  7  1  0
 33  7  1  0
 34 10  1  0
 35 11  1  0
 36 14  1  0
 37 15  1  0
 38 16  1  0
 39 16  1  0
 40 17  1  0
 41 17  1  0
 42 20  1  0
 43 21  1  0
 44 22  1  0
 45 23  1  0
M  END
>  <b_m_subgroup_collapsed>  (1443) 
0

>  <r_i_docking_score>  (1443) 
-5.7402499659177399

>  <s_m_subgroup_title>  (1443) 
glide-dock_SP_D22_pv

>  <s_m_subgroupid>  (1443) 
glide-dock_SP_D22_pv

>  <Molecule ChEMBL ID>  (1443) 
CHEMBL596271

>  <Standard Type>  (1443) 
Ki

>  <Standard Value>  (1443) 
10000.0

>  <label>  (1443) 
0

$$$$
CHEMBL4521199
     RDKit          3D

 50 53  0  0  1  0  0  0  0  0999 V2000
    5.4361    1.1267  -13.5881 C   0  0  0  0  0  0  0  0  0  0  0  0
    5.1670    2.4476  -13.1377 O   0  0  0  0  0  0  0  0  0  0  0  0
    6.2137    3.3405  -13.1101 C   0  0  0  0  0  0  0  0  0  0  0  0
    6.0795    4.4485  -12.2567 C   0  0  0  0  0  0  0  0  0  0  0  0
    7.1408    5.3493  -12.0890 C   0  0  0  0  0  0  0  0  0  0  0  0
    8.3677    5.1206  -12.7326 C   0  0  0  0  0  0  0  0  0  0  0  0
    8.5347    4.0198  -13.6249 C   0  0  0  0  0  0  0  0  0  0  0  0
    7.4144    3.1773  -13.8469 C   0  0  0  0  0  0  0  0  0  0  0  0
    9.8952    4.0636  -14.0802 C   0  0  0  0  0  0  0  0  0  0  0  0
   10.4919    3.1425  -15.0585 C   0  0  0  0  0  0  0  0  0  0  0  0
    9.9785    1.8887  -15.2947 N   0  0  0  0  0  0  0  0  0  0  0  0
   10.6470    1.3053  -16.3473 C   0  0  0  0  0  0  0  0  0  0  0  0
   10.2619    0.2069  -16.9121 N   0  0  0  0  0  0  0  0  0  0  0  0
   10.9291   -0.2612  -18.0290 C   0  0  0  0  0  0  0  0  0  0  0  0
   10.0954   -1.2837  -18.7846 C   0  0  0  0  0  0  0  0  0  0  0  0
   12.0424    0.0520  -18.4590 O   0  0  0  0  0  0  0  0  0  0  0  0
   11.6869    2.1744  -16.6440 N   0  0  0  0  0  0  0  0  0  0  0  0
   11.5637    3.2908  -15.8486 C   0  0  0  0  0  0  0  0  0  0  0  0
   12.5147    4.4591  -16.0041 C   0  0  0  0  0  0  0  0  0  0  0  0
   10.5128    5.1318  -13.4917 C   0  0  0  0  0  0  0  0  0  0  0  0
    9.5956    5.7766  -12.6716 N   0  0  0  0  0  0  0  0  0  0  0  0
    9.9679    7.1992  -11.7641 S   0  0  0  0  0  0  0  0  0  0  0  0
    9.0423    8.2352  -12.2467 O   0  0  0  0  0  0  0  0  0  0  0  0
   11.4235    7.3722  -11.8931 O   0  0  0  0  0  0  0  0  0  0  0  0
    9.6098    6.8567  -10.0457 C   0  0  0  0  0  0  0  0  0  0  0  0
    9.2853    5.5616   -9.5910 C   0  0  0  0  0  0  0  0  0  0  0  0
    8.9157    5.3748   -8.2474 C   0  0  0  0  0  0  0  0  0  0  0  0
    8.9138    6.4665   -7.3563 C   0  0  0  0  0  0  0  0  0  0  0  0
    9.2924    7.7464   -7.8031 C   0  0  0  0  0  0  0  0  0  0  0  0
    9.3252    8.7848   -6.9361 F   0  0  0  0  0  0  0  0  0  0  0  0
    9.6363    7.9448   -9.1523 C   0  0  0  0  0  0  0  0  0  0  0  0
    4.5466    0.5128  -13.4476 H   0  0  0  0  0  0  0  0  0  0  0  0
    5.6870    1.0965  -14.6476 H   0  0  0  0  0  0  0  0  0  0  0  0
    6.2477    0.6697  -13.0204 H   0  0  0  0  0  0  0  0  0  0  0  0
    5.1699    4.5891  -11.6914 H   0  0  0  0  0  0  0  0  0  0  0  0
    7.0225    6.1727  -11.4066 H   0  0  0  0  0  0  0  0  0  0  0  0
    7.5140    2.3537  -14.5319 H   0  0  0  0  0  0  0  0  0  0  0  0
    9.2009    1.5014  -14.7855 H   0  0  0  0  0  0  0  0  0  0  0  0
   10.1025   -2.2308  -18.2489 H   0  0  0  0  0  0  0  0  0  0  0  0
   11.9592    5.3820  -16.1759 H   0  0  0  0  0  0  0  0  0  0  0  0
   13.1197    4.5784  -15.1051 H   0  0  0  0  0  0  0  0  0  0  0  0
   13.1900    4.3049  -16.8467 H   0  0  0  0  0  0  0  0  0  0  0  0
   11.5236    5.4996  -13.5902 H   0  0  0  0  0  0  0  0  0  0  0  0
    9.2854    4.7131  -10.2564 H   0  0  0  0  0  0  0  0  0  0  0  0
    8.6278    4.3935   -7.9016 H   0  0  0  0  0  0  0  0  0  0  0  0
    8.6274    6.3213   -6.3252 H   0  0  0  0  0  0  0  0  0  0  0  0
    9.8972    8.9312   -9.5061 H   0  0  0  0  0  0  0  0  0  0  0  0
    9.0612   -0.9489  -18.8753 H   0  0  0  0  0  0  0  0  0  0  0  0
   10.4873   -1.4278  -19.7907 H   0  0  0  0  0  0  0  0  0  0  0  0
   12.3851    2.0511  -17.3654 H   0  0  0  0  0  0  0  0  0  0  0  0
  2  1  1  0
  3  2  1  0
  4  3  2  0
  5  4  1  0
  6  5  2  0
  7  6  1  0
  8  3  1  0
  8  7  2  0
  9  7  1  0
 10  9  1  0
 11 10  1  0
 12 11  1  0
 13 12  2  0
 14 13  1  0
 15 14  1  0
 16 14  2  0
 17 12  1  0
 18 10  2  0
 18 17  1  0
 19 18  1  0
 20  9  2  0
 21  6  1  0
 21 20  1  0
 22 21  1  0
 23 22  2  0
 24 22  2  0
 25 22  1  0
 26 25  2  0
 27 26  1  0
 28 27  2  0
 29 28  1  0
 30 29  1  0
 31 25  1  0
 31 29  2  0
 32  1  1  0
 33  1  1  0
 34  1  1  0
 35  4  1  0
 36  5  1  0
 37  8  1  0
 38 11  1  0
 39 15  1  0
 40 19  1  0
 41 19  1  0
 42 19  1  0
 43 20  1  0
 44 26  1  0
 45 27  1  0
 46 28  1  0
 47 31  1  0
 48 15  1  0
 49 15  1  0
 50 17  1  0
M  END
>  <b_m_subgroup_collapsed>  (1444) 
0

>  <r_i_docking_score>  (1444) 
-5.7345159483178501

>  <s_m_subgroup_title>  (1444) 
glide-dock_SP_D22_pv

>  <s_m_subgroupid>  (1444) 
glide-dock_SP_D22_pv

>  <Molecule ChEMBL ID>  (1444) 
CHEMBL4521199

>  <Standard Type>  (1444) 
Ki

>  <Standard Value>  (1444) 
10000.0

>  <label>  (1444) 
0

$$$$
CHEMBL4788000
     RDKit          3D

 61 64  0  0  1  0  0  0  0  0999 V2000
   18.9721    6.6983  -16.6934 C   0  0  0  0  0  0  0  0  0  0  0  0
   17.7771    6.8454  -17.4461 O   0  0  0  0  0  0  0  0  0  0  0  0
   17.7357    7.8078  -18.4387 C   0  0  0  0  0  0  0  0  0  0  0  0
   18.8926    8.5069  -18.8705 C   0  0  0  0  0  0  0  0  0  0  0  0
   18.8065    9.5047  -19.8589 C   0  0  0  0  0  0  0  0  0  0  0  0
   17.5645    9.8200  -20.4320 C   0  0  0  0  0  0  0  0  0  0  0  0
   16.4095    9.1386  -20.0152 C   0  0  0  0  0  0  0  0  0  0  0  0
   16.4807    8.1283  -19.0293 C   0  0  0  0  0  0  0  0  0  0  0  0
   15.2920    7.4784  -18.6459 N   0  0  0  0  0  0  0  0  0  0  0  0
   15.1940    6.0373  -18.4837 C   0  0  0  0  0  0  0  0  0  0  0  0
   14.6223    5.7247  -17.0913 C   0  0  0  0  0  0  0  0  0  0  0  0
   13.3019    6.3538  -16.9300 N   0  0  0  0  0  0  0  0  0  0  0  0
   12.7800    6.0750  -15.5946 C   0  0  0  0  0  0  0  0  0  0  0  0
   12.2311    4.6437  -15.4459 C   0  0  0  0  0  0  0  0  0  0  0  0
   11.9561    4.3137  -13.9760 C   0  0  0  0  0  0  0  0  0  0  0  0
   10.9919    5.2143  -13.4406 O   0  0  0  0  0  0  0  0  0  0  0  0
    9.6636    4.8520  -13.3933 C   0  0  0  0  0  0  0  0  0  0  0  0
    8.8139    5.6889  -12.6413 C   0  0  0  0  0  0  0  0  0  0  0  0
    7.4512    5.3789  -12.4797 C   0  0  0  0  0  0  0  0  0  0  0  0
    6.9253    4.2134  -13.0698 C   0  0  0  0  0  0  0  0  0  0  0  0
    7.7531    3.3711  -13.8466 C   0  0  0  0  0  0  0  0  0  0  0  0
    9.1149    3.7075  -14.0238 C   0  0  0  0  0  0  0  0  0  0  0  0
    7.1976    2.1037  -14.4381 C   0  0  0  0  0  0  0  0  0  0  0  0
    7.7838    1.5418  -15.3650 O   0  0  0  0  0  0  0  0  0  0  0  0
    6.0858    1.5976  -13.8472 N   0  0  0  0  0  0  0  0  0  0  0  0
    5.5800    0.2778  -14.2290 C   0  0  0  0  0  0  0  0  0  0  0  0
    5.3225    2.2957  -12.8012 C   0  0  0  0  0  0  0  0  0  0  0  0
    5.4808    3.8264  -12.8466 C   0  0  0  0  0  0  0  0  0  0  0  0
   13.4555    7.8103  -17.0595 C   0  0  0  0  0  0  0  0  0  0  0  0
   14.0501    8.2070  -18.4254 C   0  0  0  0  0  0  0  0  0  0  0  0
   18.8018    5.9938  -15.8793 H   0  0  0  0  0  0  0  0  0  0  0  0
   19.7827    6.3059  -17.3102 H   0  0  0  0  0  0  0  0  0  0  0  0
   19.2853    7.6449  -16.2509 H   0  0  0  0  0  0  0  0  0  0  0  0
   19.8664    8.2991  -18.4568 H   0  0  0  0  0  0  0  0  0  0  0  0
   19.6961   10.0290  -20.1764 H   0  0  0  0  0  0  0  0  0  0  0  0
   17.4946   10.5837  -21.1928 H   0  0  0  0  0  0  0  0  0  0  0  0
   15.4629    9.3901  -20.4682 H   0  0  0  0  0  0  0  0  0  0  0  0
   14.5277    5.6439  -19.2538 H   0  0  0  0  0  0  0  0  0  0  0  0
   16.1533    5.5447  -18.6330 H   0  0  0  0  0  0  0  0  0  0  0  0
   14.5508    4.6428  -16.9850 H   0  0  0  0  0  0  0  0  0  0  0  0
   15.3086    6.0755  -16.3189 H   0  0  0  0  0  0  0  0  0  0  0  0
   13.5553    6.2723  -14.8514 H   0  0  0  0  0  0  0  0  0  0  0  0
   11.9659    6.7668  -15.3719 H   0  0  0  0  0  0  0  0  0  0  0  0
   11.3221    4.5296  -16.0375 H   0  0  0  0  0  0  0  0  0  0  0  0
   12.9380    3.9062  -15.8223 H   0  0  0  0  0  0  0  0  0  0  0  0
   11.6927    3.2637  -13.8459 H   0  0  0  0  0  0  0  0  0  0  0  0
   12.8769    4.4497  -13.4072 H   0  0  0  0  0  0  0  0  0  0  0  0
    9.2179    6.5672  -12.1615 H   0  0  0  0  0  0  0  0  0  0  0  0
    6.8238    6.0251  -11.8791 H   0  0  0  0  0  0  0  0  0  0  0  0
    9.7302    3.0535  -14.6236 H   0  0  0  0  0  0  0  0  0  0  0  0
    6.3220   -0.4905  -14.0029 H   0  0  0  0  0  0  0  0  0  0  0  0
    4.6634    0.0165  -13.7000 H   0  0  0  0  0  0  0  0  0  0  0  0
    5.3678    0.2366  -15.2984 H   0  0  0  0  0  0  0  0  0  0  0  0
    4.2615    2.0499  -12.8536 H   0  0  0  0  0  0  0  0  0  0  0  0
    5.6868    1.9255  -11.8452 H   0  0  0  0  0  0  0  0  0  0  0  0
    5.1129    4.2688  -11.9195 H   0  0  0  0  0  0  0  0  0  0  0  0
    4.8873    4.2445  -13.6606 H   0  0  0  0  0  0  0  0  0  0  0  0
   12.4863    8.2960  -16.9457 H   0  0  0  0  0  0  0  0  0  0  0  0
   14.0873    8.1838  -16.2546 H   0  0  0  0  0  0  0  0  0  0  0  0
   14.2154    9.2851  -18.4521 H   0  0  0  0  0  0  0  0  0  0  0  0
   13.3482    7.9721  -19.2266 H   0  0  0  0  0  0  0  0  0  0  0  0
  2  1  1  0
  3  2  1  0
  4  3  2  0
  5  4  1  0
  6  5  2  0
  7  6  1  0
  8  3  1  0
  8  7  2  0
  9  8  1  0
 10  9  1  0
 11 10  1  0
 12 11  1  0
 13 12  1  0
 14 13  1  0
 15 14  1  0
 16 15  1  0
 17 16  1  0
 18 17  1  0
 19 18  2  0
 20 19  1  0
 21 20  2  0
 22 17  2  0
 22 21  1  0
 23 21  1  0
 24 23  2  0
 25 23  1  0
 26 25  1  0
 27 25  1  0
 28 20  1  0
 28 27  1  0
 29 12  1  0
 30  9  1  0
 30 29  1  0
 31  1  1  0
 32  1  1  0
 33  1  1  0
 34  4  1  0
 35  5  1  0
 36  6  1  0
 37  7  1  0
 38 10  1  0
 39 10  1  0
 40 11  1  0
 41 11  1  0
 42 13  1  0
 43 13  1  0
 44 14  1  0
 45 14  1  0
 46 15  1  0
 47 15  1  0
 48 18  1  0
 49 19  1  0
 50 22  1  0
 51 26  1  0
 52 26  1  0
 53 26  1  0
 54 27  1  0
 55 27  1  0
 56 28  1  0
 57 28  1  0
 58 29  1  0
 59 29  1  0
 60 30  1  0
 61 30  1  0
M  END
>  <b_m_subgroup_collapsed>  (1445) 
0

>  <r_i_docking_score>  (1445) 
-5.7315997013396096

>  <s_m_subgroup_title>  (1445) 
glide-dock_SP_D22_pv

>  <s_m_subgroupid>  (1445) 
glide-dock_SP_D22_pv

>  <Molecule ChEMBL ID>  (1445) 
CHEMBL4788000

>  <Standard Type>  (1445) 
Ki

>  <Standard Value>  (1445) 
9.6

>  <label>  (1445) 
1

$$$$
CHEMBL4529615
     RDKit          3D

 36 38  0  0  1  0  0  0  0  0999 V2000
    5.0695   -0.9279  -14.8394 C   0  0  0  0  0  0  0  0  0  0  0  0
    5.0377    0.3946  -14.0709 C   0  0  0  0  0  0  0  0  0  0  0  0
    6.1226    1.2020  -14.5117 O   0  0  0  0  0  0  0  0  0  0  0  0
    6.3644    2.3853  -13.8468 C   0  0  0  0  0  0  0  0  0  0  0  0
    5.4559    2.9770  -12.9379 C   0  0  0  0  0  0  0  0  0  0  0  0
    5.8143    4.1452  -12.2466 C   0  0  0  0  0  0  0  0  0  0  0  0
    7.0914    4.6976  -12.4279 C   0  0  0  0  0  0  0  0  0  0  0  0
    7.7140    5.7727  -11.8445 N   0  0  0  0  0  0  0  0  0  0  0  0
    9.0132    5.8824  -12.3035 C   0  0  0  0  0  0  0  0  0  0  0  0
    9.2693    4.9201  -13.2573 C   0  0  0  0  0  0  0  0  0  0  0  0
   10.5059    4.6606  -14.0154 C   0  0  0  0  0  0  0  0  0  0  0  0
   10.8452    3.5274  -14.7264 C   0  0  0  0  0  0  0  0  0  0  0  0
   12.0862    3.6780  -15.3207 N   0  0  0  0  0  0  0  0  0  0  0  0
   12.4794    4.8721  -14.9192 C   0  0  0  0  0  0  0  0  0  0  0  0
   11.5982    5.5388  -14.1545 N   0  0  0  0  0  0  0  0  0  0  0  0
   11.8307    6.8584  -13.5756 C   0  0  0  0  0  0  0  0  0  0  0  0
   12.7095    7.7728  -14.4448 C   0  0  0  0  0  0  0  0  0  0  0  0
    8.0401    4.1468  -13.3383 C   0  0  0  0  0  0  0  0  0  0  0  0
    7.6115    3.0056  -14.0695 C   0  0  0  0  0  0  0  0  0  0  0  0
    4.2326   -1.5657  -14.5568 H   0  0  0  0  0  0  0  0  0  0  0  0
    5.0076   -0.7579  -15.9142 H   0  0  0  0  0  0  0  0  0  0  0  0
    5.9910   -1.4749  -14.6407 H   0  0  0  0  0  0  0  0  0  0  0  0
    5.1227    0.1967  -13.0013 H   0  0  0  0  0  0  0  0  0  0  0  0
    4.0853    0.8961  -14.2459 H   0  0  0  0  0  0  0  0  0  0  0  0
    4.4858    2.5470  -12.7443 H   0  0  0  0  0  0  0  0  0  0  0  0
    5.1370    4.5892  -11.5318 H   0  0  0  0  0  0  0  0  0  0  0  0
    7.2970    6.4097  -11.1624 H   0  0  0  0  0  0  0  0  0  0  0  0
    9.6417    6.6544  -11.8892 H   0  0  0  0  0  0  0  0  0  0  0  0
   10.3149    2.5997  -14.8590 H   0  0  0  0  0  0  0  0  0  0  0  0
   13.4468    5.2602  -15.1990 H   0  0  0  0  0  0  0  0  0  0  0  0
   10.8861    7.3662  -13.4394 H   0  0  0  0  0  0  0  0  0  0  0  0
   12.2795    6.7250  -12.5913 H   0  0  0  0  0  0  0  0  0  0  0  0
   12.8859    8.7296  -13.9571 H   0  0  0  0  0  0  0  0  0  0  0  0
   13.6884    7.3400  -14.6249 H   0  0  0  0  0  0  0  0  0  0  0  0
   12.2442    7.9668  -15.4115 H   0  0  0  0  0  0  0  0  0  0  0  0
    8.2676    2.5385  -14.7818 H   0  0  0  0  0  0  0  0  0  0  0  0
  2  1  1  0
  3  2  1  0
  4  3  1  0
  5  4  2  0
  6  5  1  0
  7  6  2  0
  8  7  1  0
  9  8  1  0
 10  9  2  0
 11 10  1  0
 12 11  2  0
 13 12  1  0
 14 13  2  0
 15 11  1  0
 15 14  1  0
 16 15  1  0
 17 16  1  0
 18  7  1  0
 18 10  1  0
 19  4  1  0
 19 18  2  0
 20  1  1  0
 21  1  1  0
 22  1  1  0
 23  2  1  0
 24  2  1  0
 25  5  1  0
 26  6  1  0
 27  8  1  0
 28  9  1  0
 29 12  1  0
 30 14  1  0
 31 16  1  0
 32 16  1  0
 33 17  1  0
 34 17  1  0
 35 17  1  0
 36 19  1  0
M  END
>  <b_m_subgroup_collapsed>  (1446) 
0

>  <r_i_docking_score>  (1446) 
-5.7294331066232003

>  <s_m_subgroup_title>  (1446) 
glide-dock_SP_D22_pv

>  <s_m_subgroupid>  (1446) 
glide-dock_SP_D22_pv

>  <Molecule ChEMBL ID>  (1446) 
CHEMBL4529615

>  <Standard Type>  (1446) 
Ki

>  <Standard Value>  (1446) 
10000.0

>  <label>  (1446) 
0

$$$$
CHEMBL77204
     RDKit          3D

 49 51  0  0  1  0  0  0  0  0999 V2000
   12.2014    8.9727   -7.1503 C   0  0  0  0  0  0  0  0  0  0  0  0
   11.6849    8.0416   -6.3307 C   0  0  0  0  0  0  0  0  0  0  0  0
   11.6860    8.1224   -4.8679 C   0  0  0  0  0  0  0  0  0  0  0  0
   11.6890    6.9253   -4.1240 C   0  0  0  0  0  0  0  0  0  0  0  0
   11.9118    6.9477   -2.7375 C   0  0  0  0  0  0  0  0  0  0  0  0
   12.1283    8.1724   -2.0833 C   0  0  0  0  0  0  0  0  0  0  0  0
   12.0858    9.3732   -2.8092 C   0  0  0  0  0  0  0  0  0  0  0  0
   11.8627    9.3503   -4.1960 C   0  0  0  0  0  0  0  0  0  0  0  0
   12.2628    8.8657   -8.6547 C   0  0  0  0  0  0  0  0  0  0  0  0
   11.8295    7.5986   -9.1051 O   0  0  0  0  0  0  0  0  0  0  0  0
   11.2062    7.6186  -10.3692 C   0  0  0  0  0  0  0  0  0  0  0  0
    9.7251    7.9749  -10.1910 C   0  0  1  0  0  0  0  0  0  0  0  0
    8.9993    7.9959  -11.5456 C   0  0  0  0  0  0  0  0  0  0  0  0
    8.6808    6.5802  -12.0655 C   0  0  0  0  0  0  0  0  0  0  0  0
    7.9609    5.7719  -11.0460 N   0  0  1  0  0  0  0  0  0  0  0  0
    7.5300    4.4446  -11.5536 C   0  0  0  0  0  0  0  0  0  0  0  0
    6.3998    4.5126  -12.5667 C   0  0  0  0  0  0  0  0  0  0  0  0
    6.3404    3.4725  -13.6685 C   0  0  0  0  0  0  0  0  0  0  0  0
    5.3128    3.4558  -12.5756 C   0  0  0  0  0  0  0  0  0  0  0  0
    8.7373    5.6478   -9.7918 C   0  0  0  0  0  0  0  0  0  0  0  0
    9.0227    7.0278   -9.1906 C   0  0  0  0  0  0  0  0  0  0  0  0
   12.6415    9.8680   -6.7396 H   0  0  0  0  0  0  0  0  0  0  0  0
   11.2457    7.1487   -6.7495 H   0  0  0  0  0  0  0  0  0  0  0  0
   11.5692    5.9760   -4.6279 H   0  0  0  0  0  0  0  0  0  0  0  0
   11.9332    6.0209   -2.1820 H   0  0  0  0  0  0  0  0  0  0  0  0
   12.3084    8.1970   -1.0233 H   0  0  0  0  0  0  0  0  0  0  0  0
   12.2176   10.3133   -2.2998 H   0  0  0  0  0  0  0  0  0  0  0  0
   11.8488   10.2781   -4.7424 H   0  0  0  0  0  0  0  0  0  0  0  0
   11.6862    9.6871   -9.0824 H   0  0  0  0  0  0  0  0  0  0  0  0
   13.2983    8.9722   -8.9712 H   0  0  0  0  0  0  0  0  0  0  0  0
   11.7175    8.3017  -11.0484 H   0  0  0  0  0  0  0  0  0  0  0  0
   11.2847    6.6255  -10.8030 H   0  0  0  0  0  0  0  0  0  0  0  0
    9.6670    8.9821   -9.7779 H   0  0  0  0  0  0  0  0  0  0  0  0
    8.0858    8.5749  -11.4490 H   0  0  0  0  0  0  0  0  0  0  0  0
    9.5966    8.5364  -12.2806 H   0  0  0  0  0  0  0  0  0  0  0  0
    9.5992    6.0670  -12.3553 H   0  0  0  0  0  0  0  0  0  0  0  0
    8.0797    6.6693  -12.9697 H   0  0  0  0  0  0  0  0  0  0  0  0
    8.3866    3.9354  -11.9976 H   0  0  0  0  0  0  0  0  0  0  0  0
    7.2038    3.8201  -10.7216 H   0  0  0  0  0  0  0  0  0  0  0  0
    6.0669    5.5165  -12.8275 H   0  0  0  0  0  0  0  0  0  0  0  0
    5.9967    3.7806  -14.6498 H   0  0  0  0  0  0  0  0  0  0  0  0
    7.0852    2.6788  -13.6644 H   0  0  0  0  0  0  0  0  0  0  0  0
    5.3714    2.6490  -11.8482 H   0  0  0  0  0  0  0  0  0  0  0  0
    4.3079    3.7703  -12.8494 H   0  0  0  0  0  0  0  0  0  0  0  0
    9.6670    5.1060   -9.9784 H   0  0  0  0  0  0  0  0  0  0  0  0
    8.1755    5.0610   -9.0641 H   0  0  0  0  0  0  0  0  0  0  0  0
    9.6085    6.9115   -8.2813 H   0  0  0  0  0  0  0  0  0  0  0  0
    8.0884    7.4623   -8.8459 H   0  0  0  0  0  0  0  0  0  0  0  0
    7.1364    6.3187  -10.7859 H   0  0  0  0  0  0  0  0  0  0  0  0
  2  1  2  0
  3  2  1  0
  4  3  2  0
  5  4  1  0
  6  5  2  0
  7  6  1  0
  8  3  1  0
  8  7  2  0
  9  1  1  0
 10  9  1  0
 11 10  1  0
 12 11  1  0
 13 12  1  0
 14 13  1  0
 15 14  1  0
 16 15  1  0
 17 16  1  0
 18 17  1  0
 19 17  1  0
 19 18  1  0
 20 15  1  0
 21 12  1  0
 21 20  1  0
 22  1  1  0
 23  2  1  0
 24  4  1  0
 25  5  1  0
 26  6  1  0
 27  7  1  0
 28  8  1  0
 29  9  1  0
 30  9  1  0
 31 11  1  0
 32 11  1  0
 12 33  1  1
 34 13  1  0
 35 13  1  0
 36 14  1  0
 37 14  1  0
 38 16  1  0
 39 16  1  0
 40 17  1  0
 41 18  1  0
 42 18  1  0
 43 19  1  0
 44 19  1  0
 45 20  1  0
 46 20  1  0
 47 21  1  0
 48 21  1  0
 15 49  1  1
M  CHG  1  15   1
M  END
>  <b_m_subgroup_collapsed>  (1447) 
0

>  <r_i_docking_score>  (1447) 
-5.7250987605120098

>  <s_m_subgroup_title>  (1447) 
glide-dock_SP_D22_pv

>  <s_m_subgroupid>  (1447) 
glide-dock_SP_D22_pv

>  <Molecule ChEMBL ID>  (1447) 
CHEMBL77204

>  <Standard Type>  (1447) 
Ki

>  <Standard Value>  (1447) 
10000.0

>  <label>  (1447) 
0

$$$$
CHEMBL243012
     RDKit          3D

 75 79  0  0  1  0  0  0  0  0999 V2000
    6.6177   -0.3802  -14.0719 C   0  0  0  0  0  0  0  0  0  0  0  0
    6.5794    0.3605  -15.2833 O   0  0  0  0  0  0  0  0  0  0  0  0
    7.7452    0.5574  -15.9942 C   0  0  0  0  0  0  0  0  0  0  0  0
    9.0276    0.2153  -15.4914 C   0  0  0  0  0  0  0  0  0  0  0  0
   10.1893    0.4532  -16.2494 C   0  0  0  0  0  0  0  0  0  0  0  0
   10.0933    1.0721  -17.5133 C   0  0  0  0  0  0  0  0  0  0  0  0
   11.3042    1.3557  -18.3201 C   0  0  0  0  0  0  0  0  0  0  0  0
   12.3877    0.7088  -18.2400 N   0  0  0  0  0  0  0  0  0  0  0  0
   13.3761    1.3517  -19.0307 O   0  0  0  0  0  0  0  0  0  0  0  0
   12.9485    2.6919  -19.2619 C   0  0  2  0  0  0  0  0  0  0  0  0
   13.4907    3.6072  -18.1403 C   0  0  0  0  0  0  0  0  0  0  0  0
   13.1745    5.1008  -18.3557 C   0  0  0  0  0  0  0  0  0  0  0  0
   13.3739    5.9688  -17.0949 C   0  0  0  0  0  0  0  0  0  0  0  0
   12.5516    5.5337  -15.9634 N   0  0  0  0  0  0  0  0  0  0  0  0
   12.8866    6.3250  -14.7821 C   0  0  0  0  0  0  0  0  0  0  0  0
   12.1822    5.7239  -13.5485 C   0  0  0  0  0  0  0  0  0  0  0  0
   10.7034    5.7719  -13.7149 N   0  0  0  0  0  0  0  0  0  0  0  0
    9.9400    5.3036  -12.5094 C   0  0  0  0  0  0  0  0  0  0  0  0
    8.4666    4.9819  -12.7772 C   0  0  0  0  0  0  0  0  0  0  0  0
    8.1226    3.7509  -13.3769 C   0  0  0  0  0  0  0  0  0  0  0  0
    6.7774    3.3717  -13.5064 C   0  0  0  0  0  0  0  0  0  0  0  0
    5.7629    4.1992  -13.0080 C   0  0  0  0  0  0  0  0  0  0  0  0
    4.4860    3.7723  -13.0471 F   0  0  0  0  0  0  0  0  0  0  0  0
    6.0860    5.4477  -12.4488 C   0  0  0  0  0  0  0  0  0  0  0  0
    7.4300    5.8448  -12.3480 C   0  0  0  0  0  0  0  0  0  0  0  0
   10.0634    6.2111  -11.2721 C   0  0  0  0  0  0  0  0  0  0  0  0
    9.6860    5.6870  -10.0118 C   0  0  0  0  0  0  0  0  0  0  0  0
    9.7422    6.4843   -8.8518 C   0  0  0  0  0  0  0  0  0  0  0  0
   10.1837    7.8155   -8.9361 C   0  0  0  0  0  0  0  0  0  0  0  0
   10.2533    8.5821   -7.8219 F   0  0  0  0  0  0  0  0  0  0  0  0
   10.5490    8.3517  -10.1844 C   0  0  0  0  0  0  0  0  0  0  0  0
   10.4698    7.5626  -11.3490 C   0  0  0  0  0  0  0  0  0  0  0  0
   10.3385    5.1190  -15.0081 C   0  0  0  0  0  0  0  0  0  0  0  0
   11.1213    5.7056  -16.1965 C   0  0  0  0  0  0  0  0  0  0  0  0
   11.4395    2.5114  -19.2488 C   0  0  0  0  0  0  0  0  0  0  0  0
    8.8270    1.4395  -18.0086 C   0  0  0  0  0  0  0  0  0  0  0  0
    7.6574    1.1654  -17.2753 C   0  0  0  0  0  0  0  0  0  0  0  0
    6.4660    1.5428  -17.8502 O   0  0  0  0  0  0  0  0  0  0  0  0
    5.4584    0.5423  -17.9301 C   0  0  0  0  0  0  0  0  0  0  0  0
    5.6206   -0.3757  -13.6291 H   0  0  0  0  0  0  0  0  0  0  0  0
    6.8889   -1.4202  -14.2445 H   0  0  0  0  0  0  0  0  0  0  0  0
    7.2952    0.0615  -13.3429 H   0  0  0  0  0  0  0  0  0  0  0  0
    9.1499   -0.2261  -14.5172 H   0  0  0  0  0  0  0  0  0  0  0  0
   11.1539    0.1794  -15.8458 H   0  0  0  0  0  0  0  0  0  0  0  0
   13.3066    3.0352  -20.2360 H   0  0  0  0  0  0  0  0  0  0  0  0
   14.5714    3.4816  -18.0617 H   0  0  0  0  0  0  0  0  0  0  0  0
   13.0941    3.2720  -17.1831 H   0  0  0  0  0  0  0  0  0  0  0  0
   12.1660    5.2371  -18.7396 H   0  0  0  0  0  0  0  0  0  0  0  0
   13.8228    5.4794  -19.1466 H   0  0  0  0  0  0  0  0  0  0  0  0
   13.1676    7.0160  -17.3261 H   0  0  0  0  0  0  0  0  0  0  0  0
   14.4262    5.9143  -16.8090 H   0  0  0  0  0  0  0  0  0  0  0  0
   12.6112    7.3711  -14.9244 H   0  0  0  0  0  0  0  0  0  0  0  0
   13.9668    6.3065  -14.6471 H   0  0  0  0  0  0  0  0  0  0  0  0
   12.4880    6.2781  -12.6624 H   0  0  0  0  0  0  0  0  0  0  0  0
   12.5106    4.6925  -13.4011 H   0  0  0  0  0  0  0  0  0  0  0  0
   10.3936    4.3512  -12.2266 H   0  0  0  0  0  0  0  0  0  0  0  0
    8.8890    3.0599  -13.6978 H   0  0  0  0  0  0  0  0  0  0  0  0
    6.5213    2.4184  -13.9403 H   0  0  0  0  0  0  0  0  0  0  0  0
    5.3113    6.0929  -12.0592 H   0  0  0  0  0  0  0  0  0  0  0  0
    7.6422    6.7890  -11.8624 H   0  0  0  0  0  0  0  0  0  0  0  0
    9.3378    4.6665   -9.9284 H   0  0  0  0  0  0  0  0  0  0  0  0
    9.4466    6.0742   -7.8969 H   0  0  0  0  0  0  0  0  0  0  0  0
   10.8838    9.3740  -10.2478 H   0  0  0  0  0  0  0  0  0  0  0  0
   10.7167    8.0138  -12.2945 H   0  0  0  0  0  0  0  0  0  0  0  0
   10.5270    4.0459  -14.9478 H   0  0  0  0  0  0  0  0  0  0  0  0
    9.2817    5.2645  -15.2260 H   0  0  0  0  0  0  0  0  0  0  0  0
   10.8865    6.7568  -16.3486 H   0  0  0  0  0  0  0  0  0  0  0  0
   10.8084    5.1765  -17.0965 H   0  0  0  0  0  0  0  0  0  0  0  0
   10.8911    3.3835  -18.8962 H   0  0  0  0  0  0  0  0  0  0  0  0
   11.0659    2.2260  -20.2339 H   0  0  0  0  0  0  0  0  0  0  0  0
    8.7382    1.9137  -18.9763 H   0  0  0  0  0  0  0  0  0  0  0  0
    4.7614    0.8017  -18.7252 H   0  0  0  0  0  0  0  0  0  0  0  0
    5.8735   -0.4387  -18.1692 H   0  0  0  0  0  0  0  0  0  0  0  0
    4.8811    0.4678  -17.0082 H   0  0  0  0  0  0  0  0  0  0  0  0
   10.4564    6.7437  -13.8302 H   0  0  0  0  0  0  0  0  0  0  0  0
  2  1  1  0
  3  2  1  0
  4  3  1  0
  5  4  2  0
  6  5  1  0
  7  6  1  0
  8  7  2  0
  9  8  1  0
 10  9  1  0
 11 10  1  0
 12 11  1  0
 13 12  1  0
 14 13  1  0
 15 14  1  0
 16 15  1  0
 17 16  1  0
 18 17  1  0
 19 18  1  0
 20 19  1  0
 21 20  2  0
 22 21  1  0
 23 22  1  0
 24 22  2  0
 25 19  2  0
 25 24  1  0
 26 18  1  0
 27 26  1  0
 28 27  2  0
 29 28  1  0
 30 29  1  0
 31 29  2  0
 32 26  2  0
 32 31  1  0
 33 17  1  0
 34 14  1  0
 34 33  1  0
 35  7  1  0
 35 10  1  0
 36  6  2  0
 37  3  2  0
 37 36  1  0
 38 37  1  0
 39 38  1  0
 40  1  1  0
 41  1  1  0
 42  1  1  0
 43  4  1  0
 44  5  1  0
 10 45  1  6
 46 11  1  0
 47 11  1  0
 48 12  1  0
 49 12  1  0
 50 13  1  0
 51 13  1  0
 52 15  1  0
 53 15  1  0
 54 16  1  0
 55 16  1  0
 56 18  1  0
 57 20  1  0
 58 21  1  0
 59 24  1  0
 60 25  1  0
 61 27  1  0
 62 28  1  0
 63 31  1  0
 64 32  1  0
 65 33  1  0
 66 33  1  0
 67 34  1  0
 68 34  1  0
 69 35  1  0
 70 35  1  0
 71 36  1  0
 72 39  1  0
 73 39  1  0
 74 39  1  0
 75 17  1  0
M  CHG  1  17   1
M  END
>  <b_m_subgroup_collapsed>  (1448) 
0

>  <r_i_docking_score>  (1448) 
-5.7239074578508804

>  <s_m_subgroup_title>  (1448) 
glide-dock_SP_D22_pv

>  <s_m_subgroupid>  (1448) 
glide-dock_SP_D22_pv

>  <Molecule ChEMBL ID>  (1448) 
CHEMBL243012

>  <Standard Type>  (1448) 
Ki

>  <Standard Value>  (1448) 
80.0

>  <label>  (1448) 
1

$$$$
CHEMBL155596
     RDKit          3D

 45 46  0  0  1  0  0  0  0  0999 V2000
   12.4862   10.2072   -5.8897 C   0  0  0  0  0  0  0  0  0  0  0  0
   11.0499   10.1061   -6.3676 C   0  0  0  0  0  0  0  0  0  0  0  0
   10.3339    8.8662   -5.8475 C   0  0  0  0  0  0  0  0  0  0  0  0
   11.0574    7.5994   -6.1521 N   0  0  0  0  0  0  0  0  0  0  0  0
   11.2297    6.7006   -4.9718 C   0  0  0  0  0  0  0  0  0  0  0  0
   12.0851    7.3160   -3.8340 C   0  0  0  0  0  0  0  0  0  0  0  0
   12.3212    6.3476   -2.6750 C   0  0  0  0  0  0  0  0  0  0  0  0
   10.5793    6.8752   -7.3673 C   0  0  1  0  0  0  0  0  0  0  0  0
    9.0904    6.4972   -7.3368 C   0  0  0  0  0  0  0  0  0  0  0  0
    8.7601    5.5456   -8.4882 C   0  0  0  0  0  0  0  0  0  0  0  0
    9.2919    6.0135   -9.8375 C   0  0  0  0  0  0  0  0  0  0  0  0
   10.3392    6.9726   -9.9040 C   0  0  0  0  0  0  0  0  0  0  0  0
   10.8873    7.3459  -11.1466 C   0  0  0  0  0  0  0  0  0  0  0  0
   10.4260    6.7301  -12.3204 C   0  0  0  0  0  0  0  0  0  0  0  0
    9.3574    5.8154  -12.2682 C   0  0  0  0  0  0  0  0  0  0  0  0
    8.8700    5.2536  -13.4105 O   0  0  0  0  0  0  0  0  0  0  0  0
    8.7706    5.4689  -11.0373 C   0  0  0  0  0  0  0  0  0  0  0  0
    7.7016    4.6096  -11.0470 O   0  0  0  0  0  0  0  0  0  0  0  0
   10.8752    7.6482   -8.6598 C   0  0  0  0  0  0  0  0  0  0  0  0
   12.8858   11.1535   -6.2469 H   0  0  0  0  0  0  0  0  0  0  0  0
   12.5615   10.1694   -4.8025 H   0  0  0  0  0  0  0  0  0  0  0  0
   13.1052    9.4087   -6.2996 H   0  0  0  0  0  0  0  0  0  0  0  0
   11.0485   10.1721   -7.4474 H   0  0  0  0  0  0  0  0  0  0  0  0
   10.4998   10.9724   -6.0118 H   0  0  0  0  0  0  0  0  0  0  0  0
    9.3032    8.8607   -6.1913 H   0  0  0  0  0  0  0  0  0  0  0  0
   10.2850    9.0205   -4.7790 H   0  0  0  0  0  0  0  0  0  0  0  0
   10.2535    6.3931   -4.5995 H   0  0  0  0  0  0  0  0  0  0  0  0
   11.7286    5.7848   -5.2917 H   0  0  0  0  0  0  0  0  0  0  0  0
   13.0478    7.6477   -4.2177 H   0  0  0  0  0  0  0  0  0  0  0  0
   11.6180    8.2005   -3.4057 H   0  0  0  0  0  0  0  0  0  0  0  0
   12.8840    6.8268   -1.8756 H   0  0  0  0  0  0  0  0  0  0  0  0
   11.3778    6.0060   -2.2498 H   0  0  0  0  0  0  0  0  0  0  0  0
   12.8852    5.4763   -3.0028 H   0  0  0  0  0  0  0  0  0  0  0  0
   11.1524    5.9504   -7.4285 H   0  0  0  0  0  0  0  0  0  0  0  0
    8.4767    7.3876   -7.4687 H   0  0  0  0  0  0  0  0  0  0  0  0
    8.7933    6.0670   -6.3842 H   0  0  0  0  0  0  0  0  0  0  0  0
    7.6862    5.4265   -8.5339 H   0  0  0  0  0  0  0  0  0  0  0  0
    9.1766    4.5589   -8.2830 H   0  0  0  0  0  0  0  0  0  0  0  0
   11.6855    8.0710  -11.2018 H   0  0  0  0  0  0  0  0  0  0  0  0
   10.8861    6.9741  -13.2666 H   0  0  0  0  0  0  0  0  0  0  0  0
    8.1513    4.6810  -13.1781 H   0  0  0  0  0  0  0  0  0  0  0  0
    7.1204    4.6903  -10.2975 H   0  0  0  0  0  0  0  0  0  0  0  0
   11.9452    7.8354   -8.7648 H   0  0  0  0  0  0  0  0  0  0  0  0
   10.3724    8.6113   -8.6498 H   0  0  0  0  0  0  0  0  0  0  0  0
   11.9967    7.8895   -6.3767 H   0  0  0  0  0  0  0  0  0  0  0  0
  2  1  1  0
  3  2  1  0
  4  3  1  0
  5  4  1  0
  6  5  1  0
  7  6  1  0
  8  4  1  0
  9  8  1  0
 10  9  1  0
 11 10  1  0
 12 11  2  0
 13 12  1  0
 14 13  2  0
 15 14  1  0
 16 15  1  0
 17 11  1  0
 17 15  2  0
 18 17  1  0
 19  8  1  0
 19 12  1  0
 20  1  1  0
 21  1  1  0
 22  1  1  0
 23  2  1  0
 24  2  1  0
 25  3  1  0
 26  3  1  0
 27  5  1  0
 28  5  1  0
 29  6  1  0
 30  6  1  0
 31  7  1  0
 32  7  1  0
 33  7  1  0
  8 34  1  6
 35  9  1  0
 36  9  1  0
 37 10  1  0
 38 10  1  0
 39 13  1  0
 40 14  1  0
 41 16  1  0
 42 18  1  0
 43 19  1  0
 44 19  1  0
 45  4  1  0
M  CHG  1   4   1
M  END
>  <b_m_subgroup_collapsed>  (1449) 
0

>  <r_i_docking_score>  (1449) 
-5.7221248371772999

>  <s_m_subgroup_title>  (1449) 
glide-dock_SP_D22_pv

>  <s_m_subgroupid>  (1449) 
glide-dock_SP_D22_pv

>  <Molecule ChEMBL ID>  (1449) 
CHEMBL155596

>  <Standard Type>  (1449) 
Ki

>  <Standard Value>  (1449) 
2.0

>  <label>  (1449) 
1

$$$$
CHEMBL595759
     RDKit          3D

 43 46  0  0  1  0  0  0  0  0999 V2000
    9.1653    5.4491   -8.3954 C   0  0  0  0  0  0  0  0  0  0  0  0
    9.6887    6.7956   -8.3099 N   0  0  0  0  0  0  0  0  0  0  0  0
    9.6722    7.7163   -9.2945 C   0  0  0  0  0  0  0  0  0  0  0  0
    9.1255    7.3323  -10.6424 C   0  0  0  0  0  0  0  0  0  0  0  0
   10.0886    6.5726  -11.4385 N   0  0  0  0  0  0  0  0  0  0  0  0
    9.4202    5.8660  -12.5313 C   0  0  0  0  0  0  0  0  0  0  0  0
   10.4586    5.0937  -13.3800 C   0  0  0  0  0  0  0  0  0  0  0  0
   11.4884    5.9965  -13.9084 N   0  0  0  0  0  0  0  0  0  0  0  0
   11.7587    6.1687  -15.2698 C   0  0  0  0  0  0  0  0  0  0  0  0
   11.1061    5.3827  -16.1344 N   0  0  0  0  0  0  0  0  0  0  0  0
   11.3429    5.5667  -17.4481 C   0  0  0  0  0  0  0  0  0  0  0  0
   12.2462    6.5444  -17.9047 C   0  0  0  0  0  0  0  0  0  0  0  0
   12.5463    6.7895  -19.5846 Cl  0  0  0  0  0  0  0  0  0  0  0  0
   12.8862    7.3131  -16.9180 C   0  0  0  0  0  0  0  0  0  0  0  0
   12.6347    7.1223  -15.6086 N   0  0  0  0  0  0  0  0  0  0  0  0
   12.1202    6.8006  -12.8617 C   0  0  0  0  0  0  0  0  0  0  0  0
   11.0492    7.5074  -12.0182 C   0  0  0  0  0  0  0  0  0  0  0  0
   10.1917    8.9089   -8.9847 N   0  0  0  0  0  0  0  0  0  0  0  0
   10.5981    8.7239   -7.6705 C   0  0  0  0  0  0  0  0  0  0  0  0
   11.2271    9.6054   -6.7556 C   0  0  0  0  0  0  0  0  0  0  0  0
   11.5712    9.1804   -5.4570 C   0  0  0  0  0  0  0  0  0  0  0  0
   11.2860    7.8653   -5.0459 C   0  0  0  0  0  0  0  0  0  0  0  0
   10.6499    6.9742   -5.9288 C   0  0  0  0  0  0  0  0  0  0  0  0
   10.3087    7.4032   -7.2253 C   0  0  0  0  0  0  0  0  0  0  0  0
    9.2884    4.9663   -7.4458 H   0  0  0  0  0  0  0  0  0  0  0  0
    8.0996    5.4723   -8.6311 H   0  0  0  0  0  0  0  0  0  0  0  0
    9.7023    4.8828   -9.1582 H   0  0  0  0  0  0  0  0  0  0  0  0
    8.7815    8.2225  -11.1698 H   0  0  0  0  0  0  0  0  0  0  0  0
    8.2456    6.7079  -10.4924 H   0  0  0  0  0  0  0  0  0  0  0  0
    8.8457    6.5702  -13.1335 H   0  0  0  0  0  0  0  0  0  0  0  0
    8.7036    5.1574  -12.1128 H   0  0  0  0  0  0  0  0  0  0  0  0
    9.9368    4.5543  -14.1700 H   0  0  0  0  0  0  0  0  0  0  0  0
   10.9412    4.3308  -12.7674 H   0  0  0  0  0  0  0  0  0  0  0  0
   10.8122    4.9298  -18.1403 H   0  0  0  0  0  0  0  0  0  0  0  0
   13.5917    8.0894  -17.1790 H   0  0  0  0  0  0  0  0  0  0  0  0
   12.7562    6.1727  -12.2469 H   0  0  0  0  0  0  0  0  0  0  0  0
   12.7916    7.5575  -13.2617 H   0  0  0  0  0  0  0  0  0  0  0  0
   10.4851    8.1724  -12.6598 H   0  0  0  0  0  0  0  0  0  0  0  0
   11.5298    8.1078  -11.2453 H   0  0  0  0  0  0  0  0  0  0  0  0
   11.4548   10.6174   -7.0470 H   0  0  0  0  0  0  0  0  0  0  0  0
   12.0572    9.8634   -4.7730 H   0  0  0  0  0  0  0  0  0  0  0  0
   11.5535    7.5371   -4.0517 H   0  0  0  0  0  0  0  0  0  0  0  0
   10.4282    5.9704   -5.6089 H   0  0  0  0  0  0  0  0  0  0  0  0
  2  1  1  0
  3  2  1  0
  4  3  1  0
  5  4  1  0
  6  5  1  0
  7  6  1  0
  8  7  1  0
  9  8  1  0
 10  9  2  0
 11 10  1  0
 12 11  2  0
 13 12  1  0
 14 12  1  0
 15  9  1  0
 15 14  2  0
 16  8  1  0
 17  5  1  0
 17 16  1  0
 18  3  2  0
 19 18  1  0
 20 19  2  0
 21 20  1  0
 22 21  2  0
 23 22  1  0
 24  2  1  0
 24 19  1  0
 24 23  2  0
 25  1  1  0
 26  1  1  0
 27  1  1  0
 28  4  1  0
 29  4  1  0
 30  6  1  0
 31  6  1  0
 32  7  1  0
 33  7  1  0
 34 11  1  0
 35 14  1  0
 36 16  1  0
 37 16  1  0
 38 17  1  0
 39 17  1  0
 40 20  1  0
 41 21  1  0
 42 22  1  0
 43 23  1  0
M  END
>  <b_m_subgroup_collapsed>  (1450) 
0

>  <r_i_docking_score>  (1450) 
-5.72211821614549

>  <s_m_subgroup_title>  (1450) 
glide-dock_SP_D22_pv

>  <s_m_subgroupid>  (1450) 
glide-dock_SP_D22_pv

>  <Molecule ChEMBL ID>  (1450) 
CHEMBL595759

>  <Standard Type>  (1450) 
Ki

>  <Standard Value>  (1450) 
10000.0

>  <label>  (1450) 
0

$$$$
CHEMBL2164434
     RDKit          3D

 32 33  0  0  1  0  0  0  0  0999 V2000
    7.4840    5.5670  -12.2605 C   0  0  0  0  0  0  0  0  0  0  0  0
    8.7689    4.8501  -11.8229 C   0  0  0  0  0  0  0  0  0  0  0  0
    9.1572    5.1179  -10.3581 C   0  0  0  0  0  0  0  0  0  0  0  0
    9.6298    6.5570  -10.1094 C   0  0  0  0  0  0  0  0  0  0  0  0
   10.0891    6.7187   -8.7383 N   0  0  0  0  0  0  0  0  0  0  0  0
   10.4076    7.8990   -8.1887 C   0  0  0  0  0  0  0  0  0  0  0  0
   10.3233    8.9724   -8.7890 O   0  0  0  0  0  0  0  0  0  0  0  0
   10.8459    7.8480   -6.7822 C   0  0  0  0  0  0  0  0  0  0  0  0
   11.2857    6.8306   -5.9725 C   0  0  0  0  0  0  0  0  0  0  0  0
   11.6090    7.4121   -4.6985 C   0  0  0  0  0  0  0  0  0  0  0  0
   12.0857    6.9115   -3.4650 C   0  0  0  0  0  0  0  0  0  0  0  0
   12.3323    7.7715   -2.3771 C   0  0  0  0  0  0  0  0  0  0  0  0
   12.0860    9.1502   -2.4908 C   0  0  0  0  0  0  0  0  0  0  0  0
   11.5786    9.6718   -3.6952 C   0  0  0  0  0  0  0  0  0  0  0  0
   11.3607    8.8128   -4.7847 C   0  0  0  0  0  0  0  0  0  0  0  0
   10.8979    9.0318   -6.0659 N   0  0  0  0  0  0  0  0  0  0  0  0
    7.2178    5.2953  -13.2836 H   0  0  0  0  0  0  0  0  0  0  0  0
    6.6448    5.2981  -11.6162 H   0  0  0  0  0  0  0  0  0  0  0  0
    7.5915    6.6519  -12.2270 H   0  0  0  0  0  0  0  0  0  0  0  0
    9.5925    5.1243  -12.4859 H   0  0  0  0  0  0  0  0  0  0  0  0
    8.6279    3.7775  -11.9543 H   0  0  0  0  0  0  0  0  0  0  0  0
    9.9527    4.4241  -10.0824 H   0  0  0  0  0  0  0  0  0  0  0  0
    8.3119    4.8898   -9.7065 H   0  0  0  0  0  0  0  0  0  0  0  0
    8.8181    7.2613  -10.3008 H   0  0  0  0  0  0  0  0  0  0  0  0
   10.4445    6.8127  -10.7883 H   0  0  0  0  0  0  0  0  0  0  0  0
   10.1552    5.8897   -8.1667 H   0  0  0  0  0  0  0  0  0  0  0  0
   11.3834    5.7871   -6.2283 H   0  0  0  0  0  0  0  0  0  0  0  0
   12.2628    5.8515   -3.3590 H   0  0  0  0  0  0  0  0  0  0  0  0
   12.7021    7.3675   -1.4470 H   0  0  0  0  0  0  0  0  0  0  0  0
   12.2692    9.7954   -1.6457 H   0  0  0  0  0  0  0  0  0  0  0  0
   11.3316   10.7193   -3.7778 H   0  0  0  0  0  0  0  0  0  0  0  0
   10.6417    9.9155   -6.4826 H   0  0  0  0  0  0  0  0  0  0  0  0
  2  1  1  0
  3  2  1  0
  4  3  1  0
  5  4  1  0
  6  5  1  0
  7  6  2  0
  8  6  1  0
  9  8  2  0
 10  9  1  0
 11 10  2  0
 12 11  1  0
 13 12  2  0
 14 13  1  0
 15 10  1  0
 15 14  2  0
 16  8  1  0
 16 15  1  0
 17  1  1  0
 18  1  1  0
 19  1  1  0
 20  2  1  0
 21  2  1  0
 22  3  1  0
 23  3  1  0
 24  4  1  0
 25  4  1  0
 26  5  1  0
 27  9  1  0
 28 11  1  0
 29 12  1  0
 30 13  1  0
 31 14  1  0
 32 16  1  0
M  END
>  <b_m_subgroup_collapsed>  (1451) 
0

>  <r_i_docking_score>  (1451) 
-5.7196363858650399

>  <s_m_subgroup_title>  (1451) 
glide-dock_SP_D22_pv

>  <s_m_subgroupid>  (1451) 
glide-dock_SP_D22_pv

>  <Molecule ChEMBL ID>  (1451) 
CHEMBL2164434

>  <Standard Type>  (1451) 
Ki

>  <Standard Value>  (1451) 
13570.0

>  <label>  (1451) 
0

$$$$
CHEMBL4585956
     RDKit          3D

 26 28  0  0  1  0  0  0  0  0999 V2000
   10.8862    6.6008   -5.0586 C   0  0  0  0  0  0  0  0  0  0  0  0
   11.0446    7.7996   -5.8538 N   0  0  0  0  0  0  0  0  0  0  0  0
   11.5873    8.9525   -5.4351 C   0  0  0  0  0  0  0  0  0  0  0  0
   11.6888    9.8859   -6.3688 N   0  0  0  0  0  0  0  0  0  0  0  0
   11.1639    9.2706   -7.5022 C   0  0  0  0  0  0  0  0  0  0  0  0
   10.7080    8.0141   -7.1930 C   0  0  0  0  0  0  0  0  0  0  0  0
    9.9810    7.0675   -8.0370 C   0  0  0  0  0  0  0  0  0  0  0  0
    8.9686    6.2324   -7.6325 C   0  0  0  0  0  0  0  0  0  0  0  0
    8.4861    5.5182   -8.7080 N   0  0  0  0  0  0  0  0  0  0  0  0
    9.1200    5.9014   -9.8631 C   0  0  0  0  0  0  0  0  0  0  0  0
    8.9347    5.5041  -11.1969 C   0  0  0  0  0  0  0  0  0  0  0  0
    9.7726    6.0277  -12.1929 C   0  0  0  0  0  0  0  0  0  0  0  0
   10.7926    6.9320  -11.8448 C   0  0  0  0  0  0  0  0  0  0  0  0
   12.0862    7.3723  -13.1710 Br  0  0  0  0  0  0  0  0  0  0  0  0
   10.9359    7.3721  -10.5063 C   0  0  0  0  0  0  0  0  0  0  0  0
   11.9390    8.2279  -10.1992 F   0  0  0  0  0  0  0  0  0  0  0  0
   10.1005    6.8639   -9.4715 C   0  0  0  0  0  0  0  0  0  0  0  0
    9.8310    6.3802   -4.9152 H   0  0  0  0  0  0  0  0  0  0  0  0
   11.3706    5.7725   -5.5720 H   0  0  0  0  0  0  0  0  0  0  0  0
   11.3539    6.7259   -4.0816 H   0  0  0  0  0  0  0  0  0  0  0  0
   11.9373    9.1053   -4.4245 H   0  0  0  0  0  0  0  0  0  0  0  0
   11.1069    9.7729   -8.4527 H   0  0  0  0  0  0  0  0  0  0  0  0
    8.5130    6.1179   -6.6608 H   0  0  0  0  0  0  0  0  0  0  0  0
    7.6921    4.8937   -8.6523 H   0  0  0  0  0  0  0  0  0  0  0  0
    8.1666    4.7873  -11.4466 H   0  0  0  0  0  0  0  0  0  0  0  0
    9.6727    5.6918  -13.2146 H   0  0  0  0  0  0  0  0  0  0  0  0
  2  1  1  0
  3  2  1  0
  4  3  2  0
  5  4  1  0
  6  2  1  0
  6  5  2  0
  7  6  1  0
  8  7  2  0
  9  8  1  0
 10  9  1  0
 11 10  2  0
 12 11  1  0
 13 12  2  0
 14 13  1  0
 15 13  1  0
 16 15  1  0
 17  7  1  0
 17 10  1  0
 17 15  2  0
 18  1  1  0
 19  1  1  0
 20  1  1  0
 21  3  1  0
 22  5  1  0
 23  8  1  0
 24  9  1  0
 25 11  1  0
 26 12  1  0
M  END
>  <b_m_subgroup_collapsed>  (1452) 
0

>  <r_i_docking_score>  (1452) 
-5.7156965269451296

>  <s_m_subgroup_title>  (1452) 
glide-dock_SP_D22_pv

>  <s_m_subgroupid>  (1452) 
glide-dock_SP_D22_pv

>  <Molecule ChEMBL ID>  (1452) 
CHEMBL4585956

>  <Standard Type>  (1452) 
Ki

>  <Standard Value>  (1452) 
10000.0

>  <label>  (1452) 
0

$$$$
CHEMBL1628275
     RDKit          3D

 57 61  0  0  1  0  0  0  0  0999 V2000
   12.6503    3.5287  -16.2830 O   0  0  0  0  0  0  0  0  0  0  0  0
   12.7212    4.7561  -16.2538 C   0  0  0  0  0  0  0  0  0  0  0  0
   13.0230    5.5841  -17.4974 C   0  0  2  0  0  0  0  0  0  0  0  0
   14.4892    5.5164  -17.9940 C   0  0  1  0  0  0  0  0  0  0  0  0
   14.5777    6.3056  -19.3141 C   0  0  0  0  0  0  0  0  0  0  0  0
   14.4137    7.7668  -18.8444 C   0  0  0  0  0  0  0  0  0  0  0  0
   14.2849    7.6208  -17.3156 C   0  0  2  0  0  0  0  0  0  0  0  0
   15.2398    6.4547  -17.0469 C   0  0  0  0  0  0  0  0  0  0  0  0
   12.8985    7.0239  -16.9885 C   0  0  2  0  0  0  0  0  0  0  0  0
   12.6027    6.8407  -15.4964 C   0  0  0  0  0  0  0  0  0  0  0  0
   12.4825    7.7869  -14.7189 O   0  0  0  0  0  0  0  0  0  0  0  0
   12.4860    5.5403  -15.1892 N   0  0  0  0  0  0  0  0  0  0  0  0
   12.0860    5.0255  -13.8720 C   0  0  0  0  0  0  0  0  0  0  0  0
   10.6791    4.3916  -13.9340 C   0  0  0  0  0  0  0  0  0  0  0  0
    9.5961    5.0981  -13.1072 C   0  0  0  0  0  0  0  0  0  0  0  0
    8.1614    4.8811  -13.6367 C   0  0  0  0  0  0  0  0  0  0  0  0
    7.6775    3.5114  -13.4481 N   0  0  0  0  0  0  0  0  0  0  0  0
    7.9963    2.6371  -14.5856 C   0  0  0  0  0  0  0  0  0  0  0  0
    7.6002    1.1866  -14.2756 C   0  0  0  0  0  0  0  0  0  0  0  0
    6.1774    1.1047  -13.9540 N   0  0  0  0  0  0  0  0  0  0  0  0
    5.3326    0.1727  -14.5405 C   0  0  0  0  0  0  0  0  0  0  0  0
    5.6529   -0.2475  -15.7664 N   0  0  0  0  0  0  0  0  0  0  0  0
    4.7836   -1.0675  -16.3843 C   0  0  0  0  0  0  0  0  0  0  0  0
    3.5807   -1.4447  -15.7726 C   0  0  0  0  0  0  0  0  0  0  0  0
    3.3565   -0.9630  -14.4753 C   0  0  0  0  0  0  0  0  0  0  0  0
    4.2354   -0.1579  -13.8563 N   0  0  0  0  0  0  0  0  0  0  0  0
    5.7175    2.0721  -12.9561 C   0  0  0  0  0  0  0  0  0  0  0  0
    6.2194    3.4963  -13.2840 C   0  0  0  0  0  0  0  0  0  0  0  0
   12.3017    5.3487  -18.2811 H   0  0  0  0  0  0  0  0  0  0  0  0
   14.8923    4.5049  -18.0553 H   0  0  0  0  0  0  0  0  0  0  0  0
   13.8107    6.0090  -20.0306 H   0  0  0  0  0  0  0  0  0  0  0  0
   15.5493    6.1625  -19.7891 H   0  0  0  0  0  0  0  0  0  0  0  0
   13.5441    8.2551  -19.2866 H   0  0  0  0  0  0  0  0  0  0  0  0
   15.2934    8.3561  -19.1072 H   0  0  0  0  0  0  0  0  0  0  0  0
   14.4862    8.5482  -16.7834 H   0  0  0  0  0  0  0  0  0  0  0  0
   16.2652    6.6537  -17.3633 H   0  0  0  0  0  0  0  0  0  0  0  0
   15.2601    6.1189  -16.0090 H   0  0  0  0  0  0  0  0  0  0  0  0
   12.0878    7.5651  -17.4721 H   0  0  0  0  0  0  0  0  0  0  0  0
   12.1368    5.7968  -13.0997 H   0  0  0  0  0  0  0  0  0  0  0  0
   12.8129    4.2705  -13.5669 H   0  0  0  0  0  0  0  0  0  0  0  0
   10.7487    3.3531  -13.6073 H   0  0  0  0  0  0  0  0  0  0  0  0
   10.3410    4.3573  -14.9696 H   0  0  0  0  0  0  0  0  0  0  0  0
    9.7883    6.1711  -13.1252 H   0  0  0  0  0  0  0  0  0  0  0  0
    9.6675    4.8000  -12.0602 H   0  0  0  0  0  0  0  0  0  0  0  0
    8.0839    5.1860  -14.6790 H   0  0  0  0  0  0  0  0  0  0  0  0
    7.5201    5.5622  -13.0746 H   0  0  0  0  0  0  0  0  0  0  0  0
    9.0561    2.6413  -14.8163 H   0  0  0  0  0  0  0  0  0  0  0  0
    7.4792    2.9715  -15.4828 H   0  0  0  0  0  0  0  0  0  0  0  0
    8.1907    0.7949  -13.4505 H   0  0  0  0  0  0  0  0  0  0  0  0
    7.8599    0.5627  -15.1305 H   0  0  0  0  0  0  0  0  0  0  0  0
    5.0446   -1.4141  -17.3733 H   0  0  0  0  0  0  0  0  0  0  0  0
    2.8862   -2.1177  -16.2543 H   0  0  0  0  0  0  0  0  0  0  0  0
    2.4857   -1.2336  -13.9035 H   0  0  0  0  0  0  0  0  0  0  0  0
    4.6287    2.1012  -12.9101 H   0  0  0  0  0  0  0  0  0  0  0  0
    6.0531    1.7556  -11.9707 H   0  0  0  0  0  0  0  0  0  0  0  0
    5.9319    4.1637  -12.4699 H   0  0  0  0  0  0  0  0  0  0  0  0
    5.7345    3.8707  -14.1875 H   0  0  0  0  0  0  0  0  0  0  0  0
  2  1  2  0
  3  2  1  0
  4  3  1  0
  5  4  1  0
  6  5  1  0
  7  6  1  0
  8  4  1  0
  8  7  1  0
  9  3  1  0
  9  7  1  0
 10  9  1  0
 11 10  2  0
 12  2  1  0
 12 10  1  0
 13 12  1  0
 14 13  1  0
 15 14  1  0
 16 15  1  0
 17 16  1  0
 18 17  1  0
 19 18  1  0
 20 19  1  0
 21 20  1  0
 22 21  2  0
 23 22  1  0
 24 23  2  0
 25 24  1  0
 26 21  1  0
 26 25  2  0
 27 20  1  0
 28 17  1  0
 28 27  1  0
  3 29  1  6
  4 30  1  6
 31  5  1  0
 32  5  1  0
 33  6  1  0
 34  6  1  0
  7 35  1  1
 36  8  1  0
 37  8  1  0
  9 38  1  6
 39 13  1  0
 40 13  1  0
 41 14  1  0
 42 14  1  0
 43 15  1  0
 44 15  1  0
 45 16  1  0
 46 16  1  0
 47 18  1  0
 48 18  1  0
 49 19  1  0
 50 19  1  0
 51 23  1  0
 52 24  1  0
 53 25  1  0
 54 27  1  0
 55 27  1  0
 56 28  1  0
 57 28  1  0
M  END
>  <b_m_subgroup_collapsed>  (1453) 
0

>  <r_i_docking_score>  (1453) 
-5.7114190104021496

>  <s_m_subgroup_title>  (1453) 
glide-dock_SP_D22_pv

>  <s_m_subgroupid>  (1453) 
glide-dock_SP_D22_pv

>  <Molecule ChEMBL ID>  (1453) 
CHEMBL1628275

>  <Standard Type>  (1453) 
Ki

>  <Standard Value>  (1453) 
28.0

>  <label>  (1453) 
1

$$$$
CHEMBL5722959
     RDKit          3D

 37 39  0  0  1  0  0  0  0  0999 V2000
    8.2412    4.2070  -12.2259 O   0  0  0  0  0  0  0  0  0  0  0  0
    9.0232    5.1502  -12.1008 C   0  0  0  0  0  0  0  0  0  0  0  0
    8.8967    6.1310  -10.9987 C   0  0  0  0  0  0  0  0  0  0  0  0
    9.7638    7.1628  -10.8776 C   0  0  0  0  0  0  0  0  0  0  0  0
    9.7185    8.1954   -9.7612 C   0  0  0  0  0  0  0  0  0  0  0  0
    9.2862    7.6333   -8.4878 N   0  0  0  0  0  0  0  0  0  0  0  0
    9.3517    8.6382   -7.4346 C   0  0  0  0  0  0  0  0  0  0  0  0
   10.7431    8.6623   -6.7645 C   0  0  1  0  0  0  0  0  0  0  0  0
   10.9726    9.8567   -5.8516 C   0  0  0  0  0  0  0  0  0  0  0  0
   12.0575    9.3439   -4.9183 C   0  0  0  0  0  0  0  0  0  0  0  0
   11.6675    8.0010   -4.6713 O   0  0  0  0  0  0  0  0  0  0  0  0
   11.0025    7.4769   -5.8202 C   0  0  0  0  0  0  0  0  0  0  0  0
   10.8067    7.3410  -11.7740 N   0  0  0  0  0  0  0  0  0  0  0  0
   11.0188    6.4818  -12.8577 C   0  0  0  0  0  0  0  0  0  0  0  0
   12.0850    6.7095  -13.7502 C   0  0  0  0  0  0  0  0  0  0  0  0
   12.8870    7.7851  -13.5812 F   0  0  0  0  0  0  0  0  0  0  0  0
   12.3080    5.8253  -14.8224 C   0  0  0  0  0  0  0  0  0  0  0  0
   11.4642    4.7127  -15.0054 C   0  0  0  0  0  0  0  0  0  0  0  0
   10.3892    4.4876  -14.1230 C   0  0  0  0  0  0  0  0  0  0  0  0
   10.1571    5.3725  -13.0462 C   0  0  0  0  0  0  0  0  0  0  0  0
    8.0864    5.9993  -10.2960 H   0  0  0  0  0  0  0  0  0  0  0  0
   10.7015    8.6548   -9.6536 H   0  0  0  0  0  0  0  0  0  0  0  0
    9.0251    8.9838  -10.0565 H   0  0  0  0  0  0  0  0  0  0  0  0
    8.3087    7.3716   -8.5994 H   0  0  0  0  0  0  0  0  0  0  0  0
    9.0917    9.6139   -7.8473 H   0  0  0  0  0  0  0  0  0  0  0  0
    8.5889    8.4097   -6.6883 H   0  0  0  0  0  0  0  0  0  0  0  0
   11.5276    8.6795   -7.5229 H   0  0  0  0  0  0  0  0  0  0  0  0
   11.2675   10.7583   -6.3888 H   0  0  0  0  0  0  0  0  0  0  0  0
   10.0863   10.0815   -5.2628 H   0  0  0  0  0  0  0  0  0  0  0  0
   12.1202    9.9131   -3.9909 H   0  0  0  0  0  0  0  0  0  0  0  0
   13.0328    9.3720   -5.4064 H   0  0  0  0  0  0  0  0  0  0  0  0
   10.0760    7.0004   -5.4969 H   0  0  0  0  0  0  0  0  0  0  0  0
   11.6160    6.7160   -6.3044 H   0  0  0  0  0  0  0  0  0  0  0  0
   11.4545    8.1059  -11.6450 H   0  0  0  0  0  0  0  0  0  0  0  0
   13.1287    6.0019  -15.5021 H   0  0  0  0  0  0  0  0  0  0  0  0
   11.6394    4.0330  -15.8261 H   0  0  0  0  0  0  0  0  0  0  0  0
    9.7465    3.6320  -14.2765 H   0  0  0  0  0  0  0  0  0  0  0  0
  2  1  2  0
  3  2  1  0
  4  3  2  0
  5  4  1  0
  6  5  1  0
  7  6  1  0
  8  7  1  0
  9  8  1  0
 10  9  1  0
 11 10  1  0
 12  8  1  0
 12 11  1  0
 13  4  1  0
 14 13  1  0
 15 14  2  0
 16 15  1  0
 17 15  1  0
 18 17  2  0
 19 18  1  0
 20  2  1  0
 20 14  1  0
 20 19  2  0
 21  3  1  0
 22  5  1  0
 23  5  1  0
 24  6  1  0
 25  7  1  0
 26  7  1  0
  8 27  1  6
 28  9  1  0
 29  9  1  0
 30 10  1  0
 31 10  1  0
 32 12  1  0
 33 12  1  0
 34 13  1  0
 35 17  1  0
 36 18  1  0
 37 19  1  0
M  END
>  <b_m_subgroup_collapsed>  (1454) 
0

>  <r_i_docking_score>  (1454) 
-5.7054789611240704

>  <s_m_subgroup_title>  (1454) 
glide-dock_SP_D22_pv

>  <s_m_subgroupid>  (1454) 
glide-dock_SP_D22_pv

>  <Molecule ChEMBL ID>  (1454) 
CHEMBL5722959

>  <Standard Type>  (1454) 
Ki

>  <Standard Value>  (1454) 
10000.0

>  <label>  (1454) 
0

$$$$
CHEMBL4778076
     RDKit          3D

 50 53  0  0  1  0  0  0  0  0999 V2000
    9.7532    2.5776  -17.1398 O   0  0  0  0  0  0  0  0  0  0  0  0
    9.9265    3.5022  -16.3418 C   0  0  0  0  0  0  0  0  0  0  0  0
   10.5029    4.7835  -16.8892 C   0  0  0  0  0  0  0  0  0  0  0  0
    9.8807    5.3527  -18.0252 C   0  0  0  0  0  0  0  0  0  0  0  0
   10.4594    6.4461  -18.6949 C   0  0  0  0  0  0  0  0  0  0  0  0
   11.6852    6.9723  -18.2507 C   0  0  0  0  0  0  0  0  0  0  0  0
   12.3083    6.4210  -17.1162 C   0  0  0  0  0  0  0  0  0  0  0  0
   11.7322    5.3354  -16.4236 C   0  0  0  0  0  0  0  0  0  0  0  0
   12.4719    4.8276  -15.2602 C   0  0  0  0  0  0  0  0  0  0  0  0
   11.9888    4.7512  -14.0082 C   0  0  0  0  0  0  0  0  0  0  0  0
   10.6315    5.1442  -13.6129 C   0  0  0  0  0  0  0  0  0  0  0  0
   10.4860    6.1654  -12.6469 C   0  0  0  0  0  0  0  0  0  0  0  0
    9.2115    6.5698  -12.2065 C   0  0  0  0  0  0  0  0  0  0  0  0
    8.0666    5.9556  -12.7367 C   0  0  0  0  0  0  0  0  0  0  0  0
    8.1994    4.9412  -13.7002 C   0  0  0  0  0  0  0  0  0  0  0  0
    9.4742    4.5188  -14.1436 C   0  0  0  0  0  0  0  0  0  0  0  0
    9.5668    3.4071  -15.0338 N   0  0  0  0  0  0  0  0  0  0  0  0
    9.1207    2.0972  -14.5238 C   0  0  0  0  0  0  0  0  0  0  0  0
    7.6399    1.8005  -14.8426 C   0  0  0  0  0  0  0  0  0  0  0  0
    7.2912    0.3070  -14.7624 C   0  0  0  0  0  0  0  0  0  0  0  0
    5.8892    0.0144  -15.0610 N   0  0  0  0  0  0  0  0  0  0  0  0
    4.9957    0.3953  -13.9688 C   0  0  0  0  0  0  0  0  0  0  0  0
    3.5308    0.0341  -14.2726 C   0  0  0  0  0  0  0  0  0  0  0  0
    3.4245   -1.3541  -14.5377 O   0  0  0  0  0  0  0  0  0  0  0  0
    4.2124   -1.7257  -15.6610 C   0  0  0  0  0  0  0  0  0  0  0  0
    5.6863   -1.3967  -15.3767 C   0  0  0  0  0  0  0  0  0  0  0  0
    8.9579    4.9340  -18.4020 H   0  0  0  0  0  0  0  0  0  0  0  0
    9.9697    6.8677  -19.5595 H   0  0  0  0  0  0  0  0  0  0  0  0
   12.1336    7.8113  -18.7629 H   0  0  0  0  0  0  0  0  0  0  0  0
   13.2434    6.8407  -16.7727 H   0  0  0  0  0  0  0  0  0  0  0  0
   13.4835    4.5005  -15.4495 H   0  0  0  0  0  0  0  0  0  0  0  0
   12.6266    4.3652  -13.2276 H   0  0  0  0  0  0  0  0  0  0  0  0
   11.3644    6.6407  -12.2395 H   0  0  0  0  0  0  0  0  0  0  0  0
    9.1105    7.3483  -11.4649 H   0  0  0  0  0  0  0  0  0  0  0  0
    7.0856    6.2675  -12.4011 H   0  0  0  0  0  0  0  0  0  0  0  0
    7.3027    4.4939  -14.0990 H   0  0  0  0  0  0  0  0  0  0  0  0
    9.7588    1.3113  -14.9330 H   0  0  0  0  0  0  0  0  0  0  0  0
    9.2850    2.0544  -13.4470 H   0  0  0  0  0  0  0  0  0  0  0  0
    7.0111    2.3609  -14.1542 H   0  0  0  0  0  0  0  0  0  0  0  0
    7.3914    2.1570  -15.8429 H   0  0  0  0  0  0  0  0  0  0  0  0
    7.9246   -0.2204  -15.4769 H   0  0  0  0  0  0  0  0  0  0  0  0
    7.5560   -0.0905  -13.7821 H   0  0  0  0  0  0  0  0  0  0  0  0
    5.3048   -0.0973  -13.0470 H   0  0  0  0  0  0  0  0  0  0  0  0
    5.0579    1.4663  -13.7827 H   0  0  0  0  0  0  0  0  0  0  0  0
    2.8844    0.3021  -13.4469 H   0  0  0  0  0  0  0  0  0  0  0  0
    3.1641    0.5718  -15.1398 H   0  0  0  0  0  0  0  0  0  0  0  0
    4.0896   -2.7891  -15.8477 H   0  0  0  0  0  0  0  0  0  0  0  0
    3.8607   -1.2092  -16.5548 H   0  0  0  0  0  0  0  0  0  0  0  0
    6.2707   -1.6586  -16.2599 H   0  0  0  0  0  0  0  0  0  0  0  0
    6.0445   -2.0206  -14.5552 H   0  0  0  0  0  0  0  0  0  0  0  0
  2  1  2  0
  3  2  1  0
  4  3  2  0
  5  4  1  0
  6  5  2  0
  7  6  1  0
  8  3  1  0
  8  7  2  0
  9  8  1  0
 10  9  2  0
 11 10  1  0
 12 11  2  0
 13 12  1  0
 14 13  2  0
 15 14  1  0
 16 11  1  0
 16 15  2  0
 17  2  1  0
 17 16  1  0
 18 17  1  0
 19 18  1  0
 20 19  1  0
 21 20  1  0
 22 21  1  0
 23 22  1  0
 24 23  1  0
 25 24  1  0
 26 21  1  0
 26 25  1  0
 27  4  1  0
 28  5  1  0
 29  6  1  0
 30  7  1  0
 31  9  1  0
 32 10  1  0
 33 12  1  0
 34 13  1  0
 35 14  1  0
 36 15  1  0
 37 18  1  0
 38 18  1  0
 39 19  1  0
 40 19  1  0
 41 20  1  0
 42 20  1  0
 43 22  1  0
 44 22  1  0
 45 23  1  0
 46 23  1  0
 47 25  1  0
 48 25  1  0
 49 26  1  0
 50 26  1  0
M  END
>  <b_m_subgroup_collapsed>  (1455) 
0

>  <r_i_docking_score>  (1455) 
-5.7047659915780899

>  <s_m_subgroup_title>  (1455) 
glide-dock_SP_D22_pv

>  <s_m_subgroupid>  (1455) 
glide-dock_SP_D22_pv

>  <Molecule ChEMBL ID>  (1455) 
CHEMBL4778076

>  <Standard Type>  (1455) 
Ki

>  <Standard Value>  (1455) 
19100.0

>  <label>  (1455) 
0

$$$$
CHEMBL4571469
     RDKit          3D

 53 56  0  0  1  0  0  0  0  0999 V2000
    8.2007   -0.0006  -15.2209 C   0  0  0  0  0  0  0  0  0  0  0  0
    9.3115    0.6308  -14.3743 C   0  0  0  0  0  0  0  0  0  0  0  0
   10.1568    1.5901  -15.1450 C   0  0  0  0  0  0  0  0  0  0  0  0
   10.8861    1.1683  -16.2426 N   0  0  0  0  0  0  0  0  0  0  0  0
   11.5558    2.2232  -16.7037 C   0  0  0  0  0  0  0  0  0  0  0  0
   12.4080    2.1861  -17.8346 N   0  0  0  0  0  0  0  0  0  0  0  0
   12.6437    1.1396  -18.6470 C   0  0  0  0  0  0  0  0  0  0  0  0
   13.6252    1.3883  -19.7860 C   0  0  0  0  0  0  0  0  0  0  0  0
   12.1332    0.0257  -18.5156 O   0  0  0  0  0  0  0  0  0  0  0  0
   11.3413    3.3243  -16.0001 N   0  0  0  0  0  0  0  0  0  0  0  0
   10.4272    2.9449  -15.0063 C   0  0  0  0  0  0  0  0  0  0  0  0
    9.9436    3.9641  -14.0681 C   0  0  0  0  0  0  0  0  0  0  0  0
   10.6470    4.9912  -13.4893 C   0  0  0  0  0  0  0  0  0  0  0  0
    9.8075    5.7723  -12.7046 N   0  0  0  0  0  0  0  0  0  0  0  0
   10.2944    7.2105  -11.8716 S   0  0  0  0  0  0  0  0  0  0  0  0
    9.3124    8.2399  -12.2467 O   0  0  0  0  0  0  0  0  0  0  0  0
   11.7192    7.3722  -12.2032 O   0  0  0  0  0  0  0  0  0  0  0  0
   10.1711    6.9318  -10.1056 C   0  0  0  0  0  0  0  0  0  0  0  0
    9.4022    5.8852   -9.5571 C   0  0  0  0  0  0  0  0  0  0  0  0
    9.2828    5.7721   -8.1615 C   0  0  0  0  0  0  0  0  0  0  0  0
    9.9506    6.6768   -7.3126 C   0  0  0  0  0  0  0  0  0  0  0  0
   10.7401    7.7061   -7.8615 C   0  0  0  0  0  0  0  0  0  0  0  0
   10.8462    7.8368   -9.2599 C   0  0  0  0  0  0  0  0  0  0  0  0
    8.5242    5.2609  -12.7720 C   0  0  0  0  0  0  0  0  0  0  0  0
    7.3191    5.6827  -12.1910 C   0  0  0  0  0  0  0  0  0  0  0  0
    6.1716    4.8893  -12.3062 C   0  0  0  0  0  0  0  0  0  0  0  0
    6.2003    3.7050  -13.0601 C   0  0  0  0  0  0  0  0  0  0  0  0
    5.0702    2.9202  -13.0469 O   0  0  0  0  0  0  0  0  0  0  0  0
    5.2402    1.5358  -13.3211 C   0  0  0  0  0  0  0  0  0  0  0  0
    7.3837    3.3724  -13.7643 C   0  0  0  0  0  0  0  0  0  0  0  0
    8.5890    4.0966  -13.5922 C   0  0  0  0  0  0  0  0  0  0  0  0
    7.5549   -0.6278  -14.6077 H   0  0  0  0  0  0  0  0  0  0  0  0
    7.5748    0.7493  -15.7025 H   0  0  0  0  0  0  0  0  0  0  0  0
    8.6201   -0.6252  -16.0101 H   0  0  0  0  0  0  0  0  0  0  0  0
    9.9487   -0.1631  -13.9845 H   0  0  0  0  0  0  0  0  0  0  0  0
    8.8859    1.1170  -13.4990 H   0  0  0  0  0  0  0  0  0  0  0  0
   12.8806    3.0517  -18.0459 H   0  0  0  0  0  0  0  0  0  0  0  0
   13.2953    2.2247  -20.4028 H   0  0  0  0  0  0  0  0  0  0  0  0
   14.6147    1.6167  -19.3896 H   0  0  0  0  0  0  0  0  0  0  0  0
   13.7087    0.5073  -20.4236 H   0  0  0  0  0  0  0  0  0  0  0  0
   11.6926    5.2427  -13.6006 H   0  0  0  0  0  0  0  0  0  0  0  0
    8.8834    5.1737  -10.1762 H   0  0  0  0  0  0  0  0  0  0  0  0
    8.6703    4.9856   -7.7481 H   0  0  0  0  0  0  0  0  0  0  0  0
    9.8538    6.5799   -6.2408 H   0  0  0  0  0  0  0  0  0  0  0  0
   11.2516    8.4023   -7.2127 H   0  0  0  0  0  0  0  0  0  0  0  0
   11.4337    8.6382   -9.6850 H   0  0  0  0  0  0  0  0  0  0  0  0
    7.2867    6.5723  -11.5823 H   0  0  0  0  0  0  0  0  0  0  0  0
    5.2860    5.1763  -11.7650 H   0  0  0  0  0  0  0  0  0  0  0  0
    4.2924    1.0202  -13.1750 H   0  0  0  0  0  0  0  0  0  0  0  0
    5.5505    1.3516  -14.3476 H   0  0  0  0  0  0  0  0  0  0  0  0
    5.9709    1.0857  -12.6481 H   0  0  0  0  0  0  0  0  0  0  0  0
    7.4023    2.5149  -14.4082 H   0  0  0  0  0  0  0  0  0  0  0  0
   10.9166    0.2396  -16.6408 H   0  0  0  0  0  0  0  0  0  0  0  0
  2  1  1  0
  3  2  1  0
  4  3  1  0
  5  4  1  0
  6  5  1  0
  7  6  1  0
  8  7  1  0
  9  7  2  0
 10  5  2  0
 11  3  2  0
 11 10  1  0
 12 11  1  0
 13 12  2  0
 14 13  1  0
 15 14  1  0
 16 15  2  0
 17 15  2  0
 18 15  1  0
 19 18  2  0
 20 19  1  0
 21 20  2  0
 22 21  1  0
 23 18  1  0
 23 22  2  0
 24 14  1  0
 25 24  2  0
 26 25  1  0
 27 26  2  0
 28 27  1  0
 29 28  1  0
 30 27  1  0
 31 12  1  0
 31 24  1  0
 31 30  2  0
 32  1  1  0
 33  1  1  0
 34  1  1  0
 35  2  1  0
 36  2  1  0
 37  6  1  0
 38  8  1  0
 39  8  1  0
 40  8  1  0
 41 13  1  0
 42 19  1  0
 43 20  1  0
 44 21  1  0
 45 22  1  0
 46 23  1  0
 47 25  1  0
 48 26  1  0
 49 29  1  0
 50 29  1  0
 51 29  1  0
 52 30  1  0
 53  4  1  0
M  END
>  <b_m_subgroup_collapsed>  (1456) 
0

>  <r_i_docking_score>  (1456) 
-5.6980843878841201

>  <s_m_subgroup_title>  (1456) 
glide-dock_SP_D22_pv

>  <s_m_subgroupid>  (1456) 
glide-dock_SP_D22_pv

>  <Molecule ChEMBL ID>  (1456) 
CHEMBL4571469

>  <Standard Type>  (1456) 
Ki

>  <Standard Value>  (1456) 
10000.0

>  <label>  (1456) 
0

$$$$
CHEMBL3916787
     RDKit          3D

 49 52  0  0  1  0  0  0  0  0999 V2000
    5.2726   -1.0851  -15.5201 C   0  0  0  0  0  0  0  0  0  0  0  0
    6.6217   -0.5578  -15.2130 N   0  0  0  0  0  0  0  0  0  0  0  0
    6.8825   -0.5364  -13.7525 C   0  0  0  0  0  0  0  0  0  0  0  0
    6.9108    0.7153  -15.9473 C   0  0  1  0  0  0  0  0  0  0  0  0
    7.3522    1.8939  -15.1056 C   0  0  0  0  0  0  0  0  0  0  0  0
    6.8929    2.8385  -14.1860 C   0  0  0  0  0  0  0  0  0  0  0  0
    7.8345    3.8432  -13.8006 C   0  0  0  0  0  0  0  0  0  0  0  0
    7.7321    4.9712  -12.9253 C   0  0  0  0  0  0  0  0  0  0  0  0
    8.9435    5.6050  -12.9501 C   0  0  0  0  0  0  0  0  0  0  0  0
    9.8243    4.9349  -13.7912 N   0  0  0  0  0  0  0  0  0  0  0  0
   11.4786    5.4100  -14.0055 S   0  0  0  0  0  0  0  0  0  0  0  0
   11.6906    6.5089  -13.0488 O   0  0  0  0  0  0  0  0  0  0  0  0
   12.2630    4.1722  -13.9001 O   0  0  0  0  0  0  0  0  0  0  0  0
   11.6856    6.0730  -15.6629 C   0  0  0  0  0  0  0  0  0  0  0  0
   12.7294    6.9994  -15.8681 C   0  0  0  0  0  0  0  0  0  0  0  0
   12.9707    7.5127  -17.1573 C   0  0  0  0  0  0  0  0  0  0  0  0
   12.1788    7.0956  -18.2456 C   0  0  0  0  0  0  0  0  0  0  0  0
   11.1337    6.1727  -18.0396 C   0  0  0  0  0  0  0  0  0  0  0  0
   10.8857    5.6634  -16.7503 C   0  0  0  0  0  0  0  0  0  0  0  0
    9.1833    3.8283  -14.3461 C   0  0  0  0  0  0  0  0  0  0  0  0
    9.6259    2.8472  -15.2777 C   0  0  0  0  0  0  0  0  0  0  0  0
    8.6614    1.9169  -15.6606 C   0  0  0  0  0  0  0  0  0  0  0  0
    8.3786    0.7905  -16.6287 C   0  0  1  0  0  0  0  0  0  0  0  0
    9.3833   -0.3634  -16.6201 C   0  0  0  0  0  0  0  0  0  0  0  0
   10.6059   -0.1400  -17.5308 C   0  0  0  0  0  0  0  0  0  0  0  0
   11.4681    0.8656  -17.0461 O   0  0  0  0  0  0  0  0  0  0  0  0
    4.4969   -0.4079  -15.1599 H   0  0  0  0  0  0  0  0  0  0  0  0
    5.1203   -2.0593  -15.0531 H   0  0  0  0  0  0  0  0  0  0  0  0
    5.1441   -1.2161  -16.5955 H   0  0  0  0  0  0  0  0  0  0  0  0
    6.2035    0.1416  -13.2369 H   0  0  0  0  0  0  0  0  0  0  0  0
    7.9063   -0.2275  -13.5399 H   0  0  0  0  0  0  0  0  0  0  0  0
    6.7502   -1.5305  -13.3244 H   0  0  0  0  0  0  0  0  0  0  0  0
    6.1255    1.0051  -16.6480 H   0  0  0  0  0  0  0  0  0  0  0  0
    5.8813    2.8321  -13.8085 H   0  0  0  0  0  0  0  0  0  0  0  0
    6.8614    5.2641  -12.3551 H   0  0  0  0  0  0  0  0  0  0  0  0
    9.2537    6.4896  -12.4117 H   0  0  0  0  0  0  0  0  0  0  0  0
   13.3495    7.3055  -15.0375 H   0  0  0  0  0  0  0  0  0  0  0  0
   13.7669    8.2257  -17.3148 H   0  0  0  0  0  0  0  0  0  0  0  0
   12.3644    7.4935  -19.2323 H   0  0  0  0  0  0  0  0  0  0  0  0
   10.5173    5.8619  -18.8708 H   0  0  0  0  0  0  0  0  0  0  0  0
   10.0721    4.9728  -16.6208 H   0  0  0  0  0  0  0  0  0  0  0  0
   10.6191    2.8605  -15.7003 H   0  0  0  0  0  0  0  0  0  0  0  0
    8.2814    1.2304  -17.6233 H   0  0  0  0  0  0  0  0  0  0  0  0
    9.6815   -0.6320  -15.6065 H   0  0  0  0  0  0  0  0  0  0  0  0
    8.8872   -1.2347  -17.0463 H   0  0  0  0  0  0  0  0  0  0  0  0
   11.1771   -1.0628  -17.6258 H   0  0  0  0  0  0  0  0  0  0  0  0
   10.2852    0.1310  -18.5368 H   0  0  0  0  0  0  0  0  0  0  0  0
   11.8791    0.5719  -16.2470 H   0  0  0  0  0  0  0  0  0  0  0  0
    7.2631   -1.2590  -15.5762 H   0  0  0  0  0  0  0  0  0  0  0  0
  2  1  1  0
  3  2  1  0
  4  2  1  0
  5  4  1  0
  6  5  1  0
  7  6  2  0
  8  7  1  0
  9  8  2  0
 10  9  1  0
 11 10  1  0
 12 11  2  0
 13 11  2  0
 14 11  1  0
 15 14  2  0
 16 15  1  0
 17 16  2  0
 18 17  1  0
 19 14  1  0
 19 18  2  0
 20  7  1  0
 20 10  1  0
 21 20  2  0
 22  5  2  0
 22 21  1  0
 23  4  1  0
 23 22  1  0
 24 23  1  0
 25 24  1  0
 26 25  1  0
 27  1  1  0
 28  1  1  0
 29  1  1  0
 30  3  1  0
 31  3  1  0
 32  3  1  0
  4 33  1  6
 34  6  1  0
 35  8  1  0
 36  9  1  0
 37 15  1  0
 38 16  1  0
 39 17  1  0
 40 18  1  0
 41 19  1  0
 42 21  1  0
 23 43  1  6
 44 24  1  0
 45 24  1  0
 46 25  1  0
 47 25  1  0
 48 26  1  0
 49  2  1  0
M  CHG  1   2   1
M  END
>  <b_m_subgroup_collapsed>  (1457) 
0

>  <r_i_docking_score>  (1457) 
-5.6925629551007004

>  <s_m_subgroup_title>  (1457) 
glide-dock_SP_D22_pv

>  <s_m_subgroupid>  (1457) 
glide-dock_SP_D22_pv

>  <Molecule ChEMBL ID>  (1457) 
CHEMBL3916787

>  <Standard Type>  (1457) 
Ki

>  <Standard Value>  (1457) 
10000.0

>  <label>  (1457) 
0

$$$$
CHEMBL245570
     RDKit          3D

 46 49  0  0  1  0  0  0  0  0999 V2000
   11.2322    5.8727  -17.6337 C   0  0  0  0  0  0  0  0  0  0  0  0
   11.5817    4.6623  -16.8492 N   0  0  1  0  0  0  0  0  0  0  0  0
   12.4935    3.7645  -17.6168 C   0  0  0  0  0  0  0  0  0  0  0  0
   12.2080    2.2584  -17.4398 C   0  0  0  0  0  0  0  0  0  0  0  0
   10.7854    1.8417  -17.8057 C   0  0  0  0  0  0  0  0  0  0  0  0
   10.4209    1.8868  -19.1706 C   0  0  0  0  0  0  0  0  0  0  0  0
    9.1336    1.5046  -19.5908 C   0  0  0  0  0  0  0  0  0  0  0  0
    8.1916    1.0655  -18.6456 C   0  0  0  0  0  0  0  0  0  0  0  0
    8.5429    1.0089  -17.2849 C   0  0  0  0  0  0  0  0  0  0  0  0
    9.8329    1.3910  -16.8488 C   0  0  0  0  0  0  0  0  0  0  0  0
   10.1264    1.3010  -15.3553 C   0  0  0  0  0  0  0  0  0  0  0  0
    9.6918    2.5355  -14.6298 C   0  0  0  0  0  0  0  0  0  0  0  0
    8.3665    2.6903  -14.2601 N   0  0  0  0  0  0  0  0  0  0  0  0
    8.1709    3.8768  -13.5913 C   0  0  0  0  0  0  0  0  0  0  0  0
    7.0254    4.4665  -13.0304 C   0  0  0  0  0  0  0  0  0  0  0  0
    7.1357    5.7122  -12.3876 C   0  0  0  0  0  0  0  0  0  0  0  0
    8.3862    6.3575  -12.3241 C   0  0  0  0  0  0  0  0  0  0  0  0
    8.4893    7.5791  -11.7253 O   0  0  0  0  0  0  0  0  0  0  0  0
    9.5277    5.7531  -12.8887 C   0  0  0  0  0  0  0  0  0  0  0  0
    9.4492    4.4999  -13.5418 C   0  0  0  0  0  0  0  0  0  0  0  0
   10.3929    3.6492  -14.2237 C   0  0  0  0  0  0  0  0  0  0  0  0
   11.8492    3.9495  -14.4316 C   0  0  0  0  0  0  0  0  0  0  0  0
   12.0836    5.0343  -15.4964 C   0  0  0  0  0  0  0  0  0  0  0  0
   12.1156    6.4859  -17.8222 H   0  0  0  0  0  0  0  0  0  0  0  0
   10.5014    6.4864  -17.1068 H   0  0  0  0  0  0  0  0  0  0  0  0
   10.7930    5.6047  -18.5952 H   0  0  0  0  0  0  0  0  0  0  0  0
   12.4007    3.9805  -18.6816 H   0  0  0  0  0  0  0  0  0  0  0  0
   13.5356    3.9773  -17.3732 H   0  0  0  0  0  0  0  0  0  0  0  0
   12.8728    1.7101  -18.1086 H   0  0  0  0  0  0  0  0  0  0  0  0
   12.5075    1.9158  -16.4580 H   0  0  0  0  0  0  0  0  0  0  0  0
   11.1385    2.2069  -19.9123 H   0  0  0  0  0  0  0  0  0  0  0  0
    8.8732    1.5393  -20.6390 H   0  0  0  0  0  0  0  0  0  0  0  0
    7.2047    0.7612  -18.9637 H   0  0  0  0  0  0  0  0  0  0  0  0
    7.8096    0.6610  -16.5716 H   0  0  0  0  0  0  0  0  0  0  0  0
    9.5770    0.4471  -14.9559 H   0  0  0  0  0  0  0  0  0  0  0  0
   11.1636    1.0577  -15.1398 H   0  0  0  0  0  0  0  0  0  0  0  0
    7.6566    1.9999  -14.4554 H   0  0  0  0  0  0  0  0  0  0  0  0
    6.0702    3.9687  -13.0862 H   0  0  0  0  0  0  0  0  0  0  0  0
    6.2617    6.1738  -11.9493 H   0  0  0  0  0  0  0  0  0  0  0  0
    7.7369    7.7721  -11.1604 H   0  0  0  0  0  0  0  0  0  0  0  0
   10.4782    6.2605  -12.8262 H   0  0  0  0  0  0  0  0  0  0  0  0
   12.2775    4.2948  -13.4896 H   0  0  0  0  0  0  0  0  0  0  0  0
   12.4046    3.0508  -14.6745 H   0  0  0  0  0  0  0  0  0  0  0  0
   13.1390    5.3078  -15.5413 H   0  0  0  0  0  0  0  0  0  0  0  0
   11.5669    5.9335  -15.1564 H   0  0  0  0  0  0  0  0  0  0  0  0
   10.7136    4.1592  -16.7152 H   0  0  0  0  0  0  0  0  0  0  0  0
  2  1  1  0
  3  2  1  0
  4  3  1  0
  5  4  1  0
  6  5  2  0
  7  6  1  0
  8  7  2  0
  9  8  1  0
 10  5  1  0
 10  9  2  0
 11 10  1  0
 12 11  1  0
 13 12  1  0
 14 13  1  0
 15 14  2  0
 16 15  1  0
 17 16  2  0
 18 17  1  0
 19 17  1  0
 20 14  1  0
 20 19  2  0
 21 12  2  0
 21 20  1  0
 22 21  1  0
 23  2  1  0
 23 22  1  0
 24  1  1  0
 25  1  1  0
 26  1  1  0
 27  3  1  0
 28  3  1  0
 29  4  1  0
 30  4  1  0
 31  6  1  0
 32  7  1  0
 33  8  1  0
 34  9  1  0
 35 11  1  0
 36 11  1  0
 37 13  1  0
 38 15  1  0
 39 16  1  0
 40 18  1  0
 41 19  1  0
 42 22  1  0
 43 22  1  0
 44 23  1  0
 45 23  1  0
  2 46  1  1
M  CHG  1   2   1
M  END
>  <b_m_subgroup_collapsed>  (1458) 
0

>  <r_i_docking_score>  (1458) 
-5.6759435621292296

>  <s_m_subgroup_title>  (1458) 
glide-dock_SP_D22_pv

>  <s_m_subgroupid>  (1458) 
glide-dock_SP_D22_pv

>  <Molecule ChEMBL ID>  (1458) 
CHEMBL245570

>  <Standard Type>  (1458) 
Ki

>  <Standard Value>  (1458) 
38.4

>  <label>  (1458) 
1

$$$$
CHEMBL367045
     RDKit          3D

 40 43  0  0  1  0  0  0  0  0999 V2000
    9.2858    8.9307   -7.3048 C   0  0  0  0  0  0  0  0  0  0  0  0
   10.1061    8.1295   -8.1953 N   0  0  0  0  0  0  0  0  0  0  0  0
   10.6804    8.9915   -9.2304 C   0  0  0  0  0  0  0  0  0  0  0  0
   11.5662    8.1514  -10.1683 C   0  0  0  0  0  0  0  0  0  0  0  0
   10.7916    7.0803  -10.7986 N   0  0  0  0  0  0  0  0  0  0  0  0
   10.8073    6.7774  -12.1699 C   0  0  0  0  0  0  0  0  0  0  0  0
   11.8822    7.1319  -12.9212 C   0  0  0  0  0  0  0  0  0  0  0  0
   12.0864    6.7774  -14.2633 N   0  0  0  0  0  0  0  0  0  0  0  0
   12.7240    7.5875  -15.1761 C   0  0  0  0  0  0  0  0  0  0  0  0
   12.8150    6.8517  -16.3315 C   0  0  0  0  0  0  0  0  0  0  0  0
   12.2676    5.5474  -16.0859 C   0  0  0  0  0  0  0  0  0  0  0  0
   11.8497    5.5377  -14.7858 C   0  0  0  0  0  0  0  0  0  0  0  0
   11.2275    4.1341  -13.9533 S   0  0  0  0  0  0  0  0  0  0  0  0
    9.6965    4.8006  -13.4146 C   0  0  0  0  0  0  0  0  0  0  0  0
    8.5267    4.1004  -13.7710 C   0  0  0  0  0  0  0  0  0  0  0  0
    7.2624    4.5688  -13.3723 C   0  0  0  0  0  0  0  0  0  0  0  0
    7.1678    5.7671  -12.6452 C   0  0  0  0  0  0  0  0  0  0  0  0
    8.3369    6.4764  -12.3060 C   0  0  0  0  0  0  0  0  0  0  0  0
    9.6245    5.9962  -12.6471 C   0  0  0  0  0  0  0  0  0  0  0  0
   10.1431    6.2609   -9.7662 C   0  0  0  0  0  0  0  0  0  0  0  0
    9.2658    7.1301   -8.8500 C   0  0  0  0  0  0  0  0  0  0  0  0
    8.8277    8.3086   -6.5353 H   0  0  0  0  0  0  0  0  0  0  0  0
    9.9085    9.6788   -6.8102 H   0  0  0  0  0  0  0  0  0  0  0  0
    8.4854    9.4362   -7.8463 H   0  0  0  0  0  0  0  0  0  0  0  0
   11.2849    9.7726   -8.7679 H   0  0  0  0  0  0  0  0  0  0  0  0
    9.8923    9.4843   -9.8036 H   0  0  0  0  0  0  0  0  0  0  0  0
   12.3983    7.7189   -9.6120 H   0  0  0  0  0  0  0  0  0  0  0  0
   11.9968    8.8229  -10.9101 H   0  0  0  0  0  0  0  0  0  0  0  0
   12.7108    7.7169  -12.5488 H   0  0  0  0  0  0  0  0  0  0  0  0
   13.0390    8.5912  -14.9323 H   0  0  0  0  0  0  0  0  0  0  0  0
   13.2510    7.2039  -17.2546 H   0  0  0  0  0  0  0  0  0  0  0  0
   12.2174    4.7115  -16.7692 H   0  0  0  0  0  0  0  0  0  0  0  0
    8.5977    3.1867  -14.3395 H   0  0  0  0  0  0  0  0  0  0  0  0
    6.3674    4.0183  -13.6305 H   0  0  0  0  0  0  0  0  0  0  0  0
    6.2026    6.1458  -12.3322 H   0  0  0  0  0  0  0  0  0  0  0  0
    8.2315    7.3913  -11.7436 H   0  0  0  0  0  0  0  0  0  0  0  0
    9.5446    5.4538  -10.1877 H   0  0  0  0  0  0  0  0  0  0  0  0
   10.8973    5.7719   -9.1555 H   0  0  0  0  0  0  0  0  0  0  0  0
    8.7783    6.5028   -8.1005 H   0  0  0  0  0  0  0  0  0  0  0  0
    8.4867    7.6131   -9.4294 H   0  0  0  0  0  0  0  0  0  0  0  0
  2  1  1  0
  3  2  1  0
  4  3  1  0
  5  4  1  0
  6  5  1  0
  7  6  2  0
  8  7  1  0
  9  8  1  0
 10  9  2  0
 11 10  1  0
 12  8  1  0
 12 11  2  0
 13 12  1  0
 14 13  1  0
 15 14  2  0
 16 15  1  0
 17 16  2  0
 18 17  1  0
 19  6  1  0
 19 14  1  0
 19 18  2  0
 20  5  1  0
 21  2  1  0
 21 20  1  0
 22  1  1  0
 23  1  1  0
 24  1  1  0
 25  3  1  0
 26  3  1  0
 27  4  1  0
 28  4  1  0
 29  7  1  0
 30  9  1  0
 31 10  1  0
 32 11  1  0
 33 15  1  0
 34 16  1  0
 35 17  1  0
 36 18  1  0
 37 20  1  0
 38 20  1  0
 39 21  1  0
 40 21  1  0
M  END
>  <b_m_subgroup_collapsed>  (1459) 
0

>  <r_i_docking_score>  (1459) 
-5.6690145056494998

>  <s_m_subgroup_title>  (1459) 
glide-dock_SP_D22_pv

>  <s_m_subgroupid>  (1459) 
glide-dock_SP_D22_pv

>  <Molecule ChEMBL ID>  (1459) 
CHEMBL367045

>  <Standard Type>  (1459) 
Ki

>  <Standard Value>  (1459) 
13.0

>  <label>  (1459) 
1

$$$$
CHEMBL253708
     RDKit          3D

 33 35  0  0  1  0  0  0  0  0999 V2000
    7.9624    0.8569  -16.2058 C   0  0  0  0  0  0  0  0  0  0  0  0
    8.8301    2.0597  -15.7229 C   0  0  1  0  0  0  0  0  0  0  0  0
    8.1097    2.9027  -14.6249 C   0  0  0  0  0  0  0  0  0  0  0  0
    6.7677    2.6298  -14.2474 C   0  0  0  0  0  0  0  0  0  0  0  0
    6.0773    3.4517  -13.3340 C   0  0  0  0  0  0  0  0  0  0  0  0
    6.7127    4.5617  -12.7513 C   0  0  0  0  0  0  0  0  0  0  0  0
    6.0073    5.3728  -11.9118 O   0  0  0  0  0  0  0  0  0  0  0  0
    8.0582    4.8198  -13.0584 C   0  0  0  0  0  0  0  0  0  0  0  0
    8.7435    4.0015  -13.9798 C   0  0  0  0  0  0  0  0  0  0  0  0
   10.1606    1.4839  -15.1603 C   0  0  0  0  0  0  0  0  0  0  0  0
   10.1919    0.3664  -14.6474 O   0  0  0  0  0  0  0  0  0  0  0  0
   11.2859    2.2105  -15.2629 N   0  0  0  0  0  0  0  0  0  0  0  0
   11.3765    3.4367  -15.9666 C   0  0  0  0  0  0  0  0  0  0  0  0
   12.5158    4.2377  -15.7807 C   0  0  0  0  0  0  0  0  0  0  0  0
   12.6488    5.4520  -16.4760 C   0  0  0  0  0  0  0  0  0  0  0  0
   14.0543    6.4247  -16.2527 Cl  0  0  0  0  0  0  0  0  0  0  0  0
   11.6371    5.8643  -17.3593 C   0  0  0  0  0  0  0  0  0  0  0  0
   10.4839    5.0764  -17.5491 C   0  0  0  0  0  0  0  0  0  0  0  0
    9.2873    5.6736  -18.6470 Cl  0  0  0  0  0  0  0  0  0  0  0  0
   10.3406    3.8536  -16.8352 C   0  0  0  0  0  0  0  0  0  0  0  0
    9.1631    2.9469  -16.9638 C   0  0  0  0  0  0  0  0  0  0  0  0
    8.4677    2.8827  -17.9790 O   0  0  0  0  0  0  0  0  0  0  0  0
    8.4906    0.2585  -16.9510 H   0  0  0  0  0  0  0  0  0  0  0  0
    7.7047    0.1821  -15.3887 H   0  0  0  0  0  0  0  0  0  0  0  0
    7.0280    1.1782  -16.6668 H   0  0  0  0  0  0  0  0  0  0  0  0
    6.2146    1.8047  -14.6690 H   0  0  0  0  0  0  0  0  0  0  0  0
    5.0472    3.2375  -13.0928 H   0  0  0  0  0  0  0  0  0  0  0  0
    6.4862    6.0511  -11.4477 H   0  0  0  0  0  0  0  0  0  0  0  0
    8.5662    5.6591  -12.6055 H   0  0  0  0  0  0  0  0  0  0  0  0
    9.7675    4.2599  -14.1851 H   0  0  0  0  0  0  0  0  0  0  0  0
   12.1251    1.8416  -14.8388 H   0  0  0  0  0  0  0  0  0  0  0  0
   13.2862    3.9256  -15.0963 H   0  0  0  0  0  0  0  0  0  0  0  0
   11.7421    6.7972  -17.8951 H   0  0  0  0  0  0  0  0  0  0  0  0
  2  1  1  6
  3  2  1  0
  4  3  1  0
  5  4  2  0
  6  5  1  0
  7  6  1  0
  8  6  2  0
  9  3  2  0
  9  8  1  0
 10  2  1  0
 11 10  2  0
 12 10  1  0
 13 12  1  0
 14 13  2  0
 15 14  1  0
 16 15  1  0
 17 15  2  0
 18 17  1  0
 19 18  1  0
 20 13  1  0
 20 18  2  0
 21  2  1  0
 21 20  1  0
 22 21  2  0
 23  1  1  0
 24  1  1  0
 25  1  1  0
 26  4  1  0
 27  5  1  0
 28  7  1  0
 29  8  1  0
 30  9  1  0
 31 12  1  0
 32 14  1  0
 33 17  1  0
M  END
>  <b_m_subgroup_collapsed>  (1460) 
0

>  <r_i_docking_score>  (1460) 
-5.6653624439864299

>  <s_m_subgroup_title>  (1460) 
glide-dock_SP_D22_pv

>  <s_m_subgroupid>  (1460) 
glide-dock_SP_D22_pv

>  <Molecule ChEMBL ID>  (1460) 
CHEMBL253708

>  <Standard Type>  (1460) 
Ki

>  <Standard Value>  (1460) 
10000.0

>  <label>  (1460) 
0

$$$$
CHEMBL201287
     RDKit          3D

 53 55  0  0  1  0  0  0  0  0999 V2000
   12.9139    7.3518  -15.8415 C   0  0  0  0  0  0  0  0  0  0  0  0
   12.5957    6.1290  -16.2957 C   0  0  0  0  0  0  0  0  0  0  0  0
   11.1855    5.5582  -16.3199 C   0  0  0  0  0  0  0  0  0  0  0  0
   11.0308    4.3587  -15.4539 N   0  0  2  0  0  0  0  0  0  0  0  0
   11.1618    4.6955  -14.0069 C   0  0  0  0  0  0  0  0  0  0  0  0
   10.2825    3.8399  -13.0730 C   0  0  0  0  0  0  0  0  0  0  0  0
    8.7800    4.0169  -13.2484 C   0  0  0  0  0  0  0  0  0  0  0  0
    8.2004    5.1691  -12.6710 C   0  0  0  0  0  0  0  0  0  0  0  0
    6.8071    5.3500  -12.6479 C   0  0  0  0  0  0  0  0  0  0  0  0
    5.9734    4.3860  -13.2381 C   0  0  0  0  0  0  0  0  0  0  0  0
    6.5374    3.2430  -13.8360 C   0  0  0  0  0  0  0  0  0  0  0  0
    7.9348    3.0383  -13.8471 C   0  0  0  0  0  0  0  0  0  0  0  0
    8.4451    1.7055  -14.3974 C   0  0  0  0  0  0  0  0  0  0  0  0
    8.6554    1.6812  -15.9084 C   0  0  0  0  0  0  0  0  0  0  0  0
    7.5046    1.5543  -16.7181 C   0  0  0  0  0  0  0  0  0  0  0  0
    7.5958    1.4891  -18.1278 C   0  0  0  0  0  0  0  0  0  0  0  0
    6.5041    1.3697  -18.9641 O   0  0  0  0  0  0  0  0  0  0  0  0
    5.2189    1.1910  -18.3885 C   0  0  0  0  0  0  0  0  0  0  0  0
    8.8621    1.5661  -18.7426 C   0  0  0  0  0  0  0  0  0  0  0  0
    8.8944    1.5167  -20.1216 O   0  0  0  0  0  0  0  0  0  0  0  0
   10.1495    1.6360  -20.7749 C   0  0  0  0  0  0  0  0  0  0  0  0
   10.0165    1.6786  -17.9351 C   0  0  0  0  0  0  0  0  0  0  0  0
    9.9326    1.7368  -16.5266 C   0  0  0  0  0  0  0  0  0  0  0  0
   11.2500    1.8534  -15.7671 C   0  0  0  0  0  0  0  0  0  0  0  0
   11.9015    3.2392  -15.9151 C   0  0  0  0  0  0  0  0  0  0  0  0
   12.1642    8.0245  -15.4478 H   0  0  0  0  0  0  0  0  0  0  0  0
   13.9367    7.6952  -15.8589 H   0  0  0  0  0  0  0  0  0  0  0  0
   13.3847    5.4965  -16.6796 H   0  0  0  0  0  0  0  0  0  0  0  0
   10.4860    6.3263  -16.0023 H   0  0  0  0  0  0  0  0  0  0  0  0
   10.9185    5.3096  -17.3477 H   0  0  0  0  0  0  0  0  0  0  0  0
   12.2074    4.6249  -13.7022 H   0  0  0  0  0  0  0  0  0  0  0  0
   10.8865    5.7389  -13.8441 H   0  0  0  0  0  0  0  0  0  0  0  0
   10.5729    2.7989  -13.0936 H   0  0  0  0  0  0  0  0  0  0  0  0
   10.4868    4.1370  -12.0439 H   0  0  0  0  0  0  0  0  0  0  0  0
    8.8237    5.9102  -12.1917 H   0  0  0  0  0  0  0  0  0  0  0  0
    6.3820    6.2190  -12.1668 H   0  0  0  0  0  0  0  0  0  0  0  0
    4.9023    4.5146  -13.2178 H   0  0  0  0  0  0  0  0  0  0  0  0
    5.8763    2.4982  -14.2460 H   0  0  0  0  0  0  0  0  0  0  0  0
    9.2952    1.3229  -13.8480 H   0  0  0  0  0  0  0  0  0  0  0  0
    7.6822    0.9574  -14.1732 H   0  0  0  0  0  0  0  0  0  0  0  0
    6.5442    1.5013  -16.2317 H   0  0  0  0  0  0  0  0  0  0  0  0
    4.4893    1.0212  -19.1809 H   0  0  0  0  0  0  0  0  0  0  0  0
    4.9037    2.0833  -17.8474 H   0  0  0  0  0  0  0  0  0  0  0  0
    5.1844    0.3273  -17.7220 H   0  0  0  0  0  0  0  0  0  0  0  0
    9.9954    1.6111  -21.8537 H   0  0  0  0  0  0  0  0  0  0  0  0
   10.8146    0.8098  -20.5173 H   0  0  0  0  0  0  0  0  0  0  0  0
   10.6361    2.5826  -20.5331 H   0  0  0  0  0  0  0  0  0  0  0  0
   10.9955    1.7201  -18.3854 H   0  0  0  0  0  0  0  0  0  0  0  0
   11.1742    1.5548  -14.7287 H   0  0  0  0  0  0  0  0  0  0  0  0
   11.9271    1.1147  -16.2017 H   0  0  0  0  0  0  0  0  0  0  0  0
   12.1140    3.3683  -16.9760 H   0  0  0  0  0  0  0  0  0  0  0  0
   12.8806    3.2796  -15.4328 H   0  0  0  0  0  0  0  0  0  0  0  0
   10.0742    4.0545  -15.5902 H   0  0  0  0  0  0  0  0  0  0  0  0
  2  1  2  0
  3  2  1  0
  4  3  1  0
  5  4  1  0
  6  5  1  0
  7  6  1  0
  8  7  2  0
  9  8  1  0
 10  9  2  0
 11 10  1  0
 12  7  1  0
 12 11  2  0
 13 12  1  0
 14 13  1  0
 15 14  1  0
 16 15  2  0
 17 16  1  0
 18 17  1  0
 19 16  1  0
 20 19  1  0
 21 20  1  0
 22 19  2  0
 23 14  2  0
 23 22  1  0
 24 23  1  0
 25  4  1  0
 25 24  1  0
 26  1  1  0
 27  1  1  0
 28  2  1  0
 29  3  1  0
 30  3  1  0
 31  5  1  0
 32  5  1  0
 33  6  1  0
 34  6  1  0
 35  8  1  0
 36  9  1  0
 37 10  1  0
 38 11  1  0
 39 13  1  0
 40 13  1  0
 41 15  1  0
 42 18  1  0
 43 18  1  0
 44 18  1  0
 45 21  1  0
 46 21  1  0
 47 21  1  0
 48 22  1  0
 49 24  1  0
 50 24  1  0
 51 25  1  0
 52 25  1  0
  4 53  1  1
M  CHG  1   4   1
M  END
>  <b_m_subgroup_collapsed>  (1461) 
0

>  <r_i_docking_score>  (1461) 
-5.6644827058732004

>  <s_m_subgroup_title>  (1461) 
glide-dock_SP_D22_pv

>  <s_m_subgroupid>  (1461) 
glide-dock_SP_D22_pv

>  <Molecule ChEMBL ID>  (1461) 
CHEMBL201287

>  <Standard Type>  (1461) 
Ki

>  <Standard Value>  (1461) 
10000.0

>  <label>  (1461) 
0

$$$$
CHEMBL4476520
     RDKit          3D

 33 35  0  0  1  0  0  0  0  0999 V2000
   12.8322    7.8735  -14.2864 C   0  0  0  0  0  0  0  0  0  0  0  0
   11.8337    7.0516  -13.4602 C   0  0  0  0  0  0  0  0  0  0  0  0
   11.6306    5.7017  -13.9737 N   0  0  0  0  0  0  0  0  0  0  0  0
   12.5137    4.9961  -14.7000 C   0  0  0  0  0  0  0  0  0  0  0  0
   12.1351    3.7723  -15.0142 N   0  0  0  0  0  0  0  0  0  0  0  0
   10.8994    3.6487  -14.4082 C   0  0  0  0  0  0  0  0  0  0  0  0
   10.5430    4.8333  -13.7972 C   0  0  0  0  0  0  0  0  0  0  0  0
    9.2909    5.1654  -13.1075 C   0  0  0  0  0  0  0  0  0  0  0  0
    9.0117    6.1915  -12.2309 C   0  0  0  0  0  0  0  0  0  0  0  0
    7.6861    6.1424  -11.8469 N   0  0  0  0  0  0  0  0  0  0  0  0
    7.0739    5.0370  -12.3893 C   0  0  0  0  0  0  0  0  0  0  0  0
    5.7827    4.5074  -12.2463 C   0  0  0  0  0  0  0  0  0  0  0  0
    5.4465    3.3057  -12.8903 C   0  0  0  0  0  0  0  0  0  0  0  0
    6.3820    2.6522  -13.7126 C   0  0  0  0  0  0  0  0  0  0  0  0
    6.0007    1.4380  -14.2469 O   0  0  0  0  0  0  0  0  0  0  0  0
    6.8307    0.7125  -15.0440 C   0  0  0  0  0  0  0  0  0  0  0  0
    6.1957   -0.4180  -15.4348 F   0  0  0  0  0  0  0  0  0  0  0  0
    7.1674    1.3870  -16.1723 F   0  0  0  0  0  0  0  0  0  0  0  0
    7.9561    0.3303  -14.3897 F   0  0  0  0  0  0  0  0  0  0  0  0
    7.6556    3.2416  -13.8970 C   0  0  0  0  0  0  0  0  0  0  0  0
    8.0572    4.4140  -13.2072 C   0  0  0  0  0  0  0  0  0  0  0  0
   12.9979    8.8559  -13.8472 H   0  0  0  0  0  0  0  0  0  0  0  0
   13.7962    7.3725  -14.3264 H   0  0  0  0  0  0  0  0  0  0  0  0
   12.4816    8.0180  -15.3093 H   0  0  0  0  0  0  0  0  0  0  0  0
   10.8865    7.5815  -13.4452 H   0  0  0  0  0  0  0  0  0  0  0  0
   12.1785    6.9735  -12.4290 H   0  0  0  0  0  0  0  0  0  0  0  0
   13.4777    5.3684  -15.0110 H   0  0  0  0  0  0  0  0  0  0  0  0
   10.3836    2.7057  -14.4743 H   0  0  0  0  0  0  0  0  0  0  0  0
    9.6371    6.9727  -11.8289 H   0  0  0  0  0  0  0  0  0  0  0  0
    7.2446    6.8093  -11.1981 H   0  0  0  0  0  0  0  0  0  0  0  0
    5.0835    4.9880  -11.5788 H   0  0  0  0  0  0  0  0  0  0  0  0
    4.4724    2.8670  -12.7339 H   0  0  0  0  0  0  0  0  0  0  0  0
    8.3626    2.7597  -14.5433 H   0  0  0  0  0  0  0  0  0  0  0  0
  2  1  1  0
  3  2  1  0
  4  3  1  0
  5  4  2  0
  6  5  1  0
  7  3  1  0
  7  6  2  0
  8  7  1  0
  9  8  2  0
 10  9  1  0
 11 10  1  0
 12 11  2  0
 13 12  1  0
 14 13  2  0
 15 14  1  0
 16 15  1  0
 17 16  1  0
 18 16  1  0
 19 16  1  0
 20 14  1  0
 21  8  1  0
 21 11  1  0
 21 20  2  0
 22  1  1  0
 23  1  1  0
 24  1  1  0
 25  2  1  0
 26  2  1  0
 27  4  1  0
 28  6  1  0
 29  9  1  0
 30 10  1  0
 31 12  1  0
 32 13  1  0
 33 20  1  0
M  END
>  <b_m_subgroup_collapsed>  (1462) 
0

>  <r_i_docking_score>  (1462) 
-5.6579145386997496

>  <s_m_subgroup_title>  (1462) 
glide-dock_SP_D22_pv

>  <s_m_subgroupid>  (1462) 
glide-dock_SP_D22_pv

>  <Molecule ChEMBL ID>  (1462) 
CHEMBL4476520

>  <Standard Type>  (1462) 
Ki

>  <Standard Value>  (1462) 
10000.0

>  <label>  (1462) 
0

$$$$
CHEMBL108678
     RDKit          3D

 42 45  0  0  1  0  0  0  0  0999 V2000
   11.6223    8.1203   -7.2798 F   0  0  0  0  0  0  0  0  0  0  0  0
   10.9723    7.6445   -8.3685 C   0  0  0  0  0  0  0  0  0  0  0  0
   11.3004    8.1275   -9.6502 C   0  0  0  0  0  0  0  0  0  0  0  0
   10.6213    7.6358  -10.7823 C   0  0  0  0  0  0  0  0  0  0  0  0
    9.6140    6.6577  -10.6386 C   0  0  0  0  0  0  0  0  0  0  0  0
    8.8518    6.1564  -11.8530 C   0  0  0  0  0  0  0  0  0  0  0  0
    9.5290    4.5726  -12.4462 S   0  0  0  0  0  0  0  0  0  0  0  0
   10.5999    5.1723  -13.7151 C   0  0  0  0  0  0  0  0  0  0  0  0
   11.6784    5.9054  -13.4474 N   0  0  0  0  0  0  0  0  0  0  0  0
   12.1725    6.1881  -14.7032 C   0  0  0  0  0  0  0  0  0  0  0  0
   13.2861    6.9534  -15.0925 C   0  0  0  0  0  0  0  0  0  0  0  0
   13.5980    7.1359  -16.4558 C   0  0  0  0  0  0  0  0  0  0  0  0
   12.7926    6.5482  -17.4519 C   0  0  0  0  0  0  0  0  0  0  0  0
   11.6782    5.7699  -17.0851 C   0  0  0  0  0  0  0  0  0  0  0  0
   11.3797    5.5967  -15.7195 C   0  0  0  0  0  0  0  0  0  0  0  0
   10.3757    4.9309  -15.0305 N   0  0  0  0  0  0  0  0  0  0  0  0
    9.2858    4.2089  -15.6459 C   0  0  0  0  0  0  0  0  0  0  0  0
    9.7196    2.9019  -16.2805 C   0  0  0  0  0  0  0  0  0  0  0  0
    9.6849    2.7657  -17.6843 C   0  0  0  0  0  0  0  0  0  0  0  0
   10.0518    1.5492  -18.2867 C   0  0  0  0  0  0  0  0  0  0  0  0
   10.4485    0.4607  -17.4889 C   0  0  0  0  0  0  0  0  0  0  0  0
   10.8801   -1.0272  -18.2453 Cl  0  0  0  0  0  0  0  0  0  0  0  0
   10.4842    0.5902  -16.0855 C   0  0  0  0  0  0  0  0  0  0  0  0
   10.1220    1.8110  -15.4805 C   0  0  0  0  0  0  0  0  0  0  0  0
    9.2926    6.1724   -9.3524 C   0  0  0  0  0  0  0  0  0  0  0  0
    9.9705    6.6652   -8.2199 C   0  0  0  0  0  0  0  0  0  0  0  0
   12.0696    8.8778   -9.7646 H   0  0  0  0  0  0  0  0  0  0  0  0
   10.8710    8.0140  -11.7625 H   0  0  0  0  0  0  0  0  0  0  0  0
    7.8073    6.0095  -11.5747 H   0  0  0  0  0  0  0  0  0  0  0  0
    8.8600    6.9017  -12.6479 H   0  0  0  0  0  0  0  0  0  0  0  0
   13.9029    7.3723  -14.3168 H   0  0  0  0  0  0  0  0  0  0  0  0
   14.4577    7.7263  -16.7384 H   0  0  0  0  0  0  0  0  0  0  0  0
   13.0323    6.6943  -18.4958 H   0  0  0  0  0  0  0  0  0  0  0  0
   11.0587    5.3184  -17.8444 H   0  0  0  0  0  0  0  0  0  0  0  0
    8.4870    4.0266  -14.9284 H   0  0  0  0  0  0  0  0  0  0  0  0
    8.8862    4.8651  -16.4172 H   0  0  0  0  0  0  0  0  0  0  0  0
    9.3714    3.5908  -18.3066 H   0  0  0  0  0  0  0  0  0  0  0  0
   10.0223    1.4489  -19.3617 H   0  0  0  0  0  0  0  0  0  0  0  0
   10.7873   -0.2432  -15.4699 H   0  0  0  0  0  0  0  0  0  0  0  0
   10.1450    1.9047  -14.4038 H   0  0  0  0  0  0  0  0  0  0  0  0
    8.5115    5.4354   -9.2309 H   0  0  0  0  0  0  0  0  0  0  0  0
    9.7149    6.2983   -7.2366 H   0  0  0  0  0  0  0  0  0  0  0  0
  2  1  1  0
  3  2  1  0
  4  3  2  0
  5  4  1  0
  6  5  1  0
  7  6  1  0
  8  7  1  0
  9  8  2  0
 10  9  1  0
 11 10  2  0
 12 11  1  0
 13 12  2  0
 14 13  1  0
 15 10  1  0
 15 14  2  0
 16  8  1  0
 16 15  1  0
 17 16  1  0
 18 17  1  0
 19 18  1  0
 20 19  2  0
 21 20  1  0
 22 21  1  0
 23 21  2  0
 24 18  2  0
 24 23  1  0
 25  5  2  0
 26  2  2  0
 26 25  1  0
 27  3  1  0
 28  4  1  0
 29  6  1  0
 30  6  1  0
 31 11  1  0
 32 12  1  0
 33 13  1  0
 34 14  1  0
 35 17  1  0
 36 17  1  0
 37 19  1  0
 38 20  1  0
 39 23  1  0
 40 24  1  0
 41 25  1  0
 42 26  1  0
M  END
>  <b_m_subgroup_collapsed>  (1463) 
0

>  <r_i_docking_score>  (1463) 
-5.64413695244665

>  <s_m_subgroup_title>  (1463) 
glide-dock_SP_D22_pv

>  <s_m_subgroupid>  (1463) 
glide-dock_SP_D22_pv

>  <Molecule ChEMBL ID>  (1463) 
CHEMBL108678

>  <Standard Type>  (1463) 
Ki

>  <Standard Value>  (1463) 
42000.0

>  <label>  (1463) 
0

$$$$
CHEMBL316942
     RDKit          3D

 39 42  0  0  1  0  0  0  0  0999 V2000
    5.9818    0.8915  -14.1029 C   0  0  0  0  0  0  0  0  0  0  0  0
    6.5946    2.2395  -13.8836 C   0  0  0  0  0  0  0  0  0  0  0  0
    5.6859    3.4458  -13.0413 S   0  0  0  0  0  0  0  0  0  0  0  0
    6.9974    4.5727  -13.1515 C   0  0  0  0  0  0  0  0  0  0  0  0
    6.7578    5.9611  -12.6401 C   0  0  0  0  0  0  0  0  0  0  0  0
    8.1236    4.0234  -13.7393 C   0  0  0  0  0  0  0  0  0  0  0  0
    7.8474    2.6913  -14.2450 C   0  0  0  0  0  0  0  0  0  0  0  0
    8.7404    1.7728  -15.0677 C   0  0  0  0  0  0  0  0  0  0  0  0
   10.1150    2.2584  -15.5697 C   0  0  0  0  0  0  0  0  0  0  0  0
   10.1603    3.6896  -16.1174 C   0  0  0  0  0  0  0  0  0  0  0  0
   10.2680    4.6196  -14.9594 C   0  0  0  0  0  0  0  0  0  0  0  0
   11.3286    5.5058  -14.6380 C   0  0  0  0  0  0  0  0  0  0  0  0
   11.1811    6.0495  -13.4463 N   0  0  0  0  0  0  0  0  0  0  0  0
   10.0261    5.5359  -12.9573 N   0  0  0  0  0  0  0  0  0  0  0  0
    9.6926    5.8212  -11.6105 C   0  0  0  0  0  0  0  0  0  0  0  0
    9.2848    4.7793  -10.7517 C   0  0  0  0  0  0  0  0  0  0  0  0
    9.0584    5.0289   -9.3842 C   0  0  0  0  0  0  0  0  0  0  0  0
    9.2538    6.3221   -8.8647 C   0  0  0  0  0  0  0  0  0  0  0  0
    9.6729    7.3666   -9.7134 C   0  0  0  0  0  0  0  0  0  0  0  0
    9.8864    7.1193  -11.0851 C   0  0  0  0  0  0  0  0  0  0  0  0
    9.4089    4.7142  -13.9019 C   0  0  0  0  0  0  0  0  0  0  0  0
    6.6029    0.2371  -14.7133 H   0  0  0  0  0  0  0  0  0  0  0  0
    5.0134    0.9704  -14.5957 H   0  0  0  0  0  0  0  0  0  0  0  0
    5.8232    0.3913  -13.1464 H   0  0  0  0  0  0  0  0  0  0  0  0
    7.4609    6.6843  -13.0502 H   0  0  0  0  0  0  0  0  0  0  0  0
    6.8345    5.9889  -11.5523 H   0  0  0  0  0  0  0  0  0  0  0  0
    5.7546    6.3029  -12.9001 H   0  0  0  0  0  0  0  0  0  0  0  0
    8.9032    0.8472  -14.5154 H   0  0  0  0  0  0  0  0  0  0  0  0
    8.1799    1.4777  -15.9555 H   0  0  0  0  0  0  0  0  0  0  0  0
   10.8514    2.1563  -14.7721 H   0  0  0  0  0  0  0  0  0  0  0  0
   10.4414    1.5684  -16.3484 H   0  0  0  0  0  0  0  0  0  0  0  0
   11.0282    3.7949  -16.7703 H   0  0  0  0  0  0  0  0  0  0  0  0
    9.2857    3.8991  -16.7361 H   0  0  0  0  0  0  0  0  0  0  0  0
   12.2204    5.7256  -15.2048 H   0  0  0  0  0  0  0  0  0  0  0  0
    9.1789    3.7790  -11.1437 H   0  0  0  0  0  0  0  0  0  0  0  0
    8.7381    4.2256   -8.7365 H   0  0  0  0  0  0  0  0  0  0  0  0
    9.0688    6.5157   -7.8184 H   0  0  0  0  0  0  0  0  0  0  0  0
    9.8156    8.3596   -9.3151 H   0  0  0  0  0  0  0  0  0  0  0  0
   10.2090    7.9232  -11.7269 H   0  0  0  0  0  0  0  0  0  0  0  0
  2  1  1  0
  3  2  1  0
  4  3  1  0
  5  4  1  0
  6  4  2  0
  7  2  2  0
  7  6  1  0
  8  7  1  0
  9  8  1  0
 10  9  1  0
 11 10  1  0
 12 11  1  0
 13 12  2  0
 14 13  1  0
 15 14  1  0
 16 15  2  0
 17 16  1  0
 18 17  2  0
 19 18  1  0
 20 15  1  0
 20 19  2  0
 21  6  1  0
 21 11  2  0
 21 14  1  0
 22  1  1  0
 23  1  1  0
 24  1  1  0
 25  5  1  0
 26  5  1  0
 27  5  1  0
 28  8  1  0
 29  8  1  0
 30  9  1  0
 31  9  1  0
 32 10  1  0
 33 10  1  0
 34 12  1  0
 35 16  1  0
 36 17  1  0
 37 18  1  0
 38 19  1  0
 39 20  1  0
M  END
>  <b_m_subgroup_collapsed>  (1464) 
0

>  <r_i_docking_score>  (1464) 
-5.6414944975811698

>  <s_m_subgroup_title>  (1464) 
glide-dock_SP_D22_pv

>  <s_m_subgroupid>  (1464) 
glide-dock_SP_D22_pv

>  <Molecule ChEMBL ID>  (1464) 
CHEMBL316942

>  <Standard Type>  (1464) 
Ki

>  <Standard Value>  (1464) 
10000.0

>  <label>  (1464) 
0

$$$$
CHEMBL443843
     RDKit          3D

 46 49  0  0  1  0  0  0  0  0999 V2000
    9.0804   -1.3497  -18.7175 C   0  0  0  0  0  0  0  0  0  0  0  0
    9.6872   -1.1833  -17.4468 O   0  0  0  0  0  0  0  0  0  0  0  0
    9.9961    0.0955  -17.0349 C   0  0  0  0  0  0  0  0  0  0  0  0
   10.4031    0.2505  -15.6986 C   0  0  0  0  0  0  0  0  0  0  0  0
   10.7725    1.5136  -15.2081 C   0  0  0  0  0  0  0  0  0  0  0  0
   10.7499    2.6604  -16.0308 C   0  0  0  0  0  0  0  0  0  0  0  0
   10.2941    2.5232  -17.3777 C   0  0  0  0  0  0  0  0  0  0  0  0
    9.9390    1.2411  -17.8602 C   0  0  0  0  0  0  0  0  0  0  0  0
   10.1634    3.6793  -18.3658 C   0  0  0  0  0  0  0  0  0  0  0  0
    9.7161    5.0006  -17.7340 C   0  0  0  0  0  0  0  0  0  0  0  0
   10.8777    5.7807  -17.1134 C   0  0  0  0  0  0  0  0  0  0  0  0
   11.8366    4.9145  -16.3846 N   0  0  1  0  0  0  0  0  0  0  0  0
   13.0254    5.6557  -15.8898 C   0  0  0  0  0  0  0  0  0  0  0  0
   12.7237    6.6566  -14.7593 C   0  0  0  0  0  0  0  0  0  0  0  0
   12.2637    6.0028  -13.4467 C   0  0  0  0  0  0  0  0  0  0  0  0
   10.8056    5.5733  -13.4469 C   0  0  0  0  0  0  0  0  0  0  0  0
    9.9384    6.1414  -12.4840 C   0  0  0  0  0  0  0  0  0  0  0  0
    8.5837    5.7681  -12.4349 C   0  0  0  0  0  0  0  0  0  0  0  0
    8.0872    4.8205  -13.3434 C   0  0  0  0  0  0  0  0  0  0  0  0
    8.9439    4.2488  -14.3043 C   0  0  0  0  0  0  0  0  0  0  0  0
   10.3098    4.6178  -14.3706 C   0  0  0  0  0  0  0  0  0  0  0  0
   11.2516    3.9673  -15.3960 C   0  0  1  0  0  0  0  0  0  0  0  0
    8.7643   -2.3875  -18.8294 H   0  0  0  0  0  0  0  0  0  0  0  0
    9.7810   -1.1257  -19.5238 H   0  0  0  0  0  0  0  0  0  0  0  0
    8.1919   -0.7241  -18.8243 H   0  0  0  0  0  0  0  0  0  0  0  0
   10.4404   -0.6109  -15.0489 H   0  0  0  0  0  0  0  0  0  0  0  0
   11.0921    1.5915  -14.1770 H   0  0  0  0  0  0  0  0  0  0  0  0
    9.6283    1.1560  -18.8913 H   0  0  0  0  0  0  0  0  0  0  0  0
   11.0975    3.8003  -18.9178 H   0  0  0  0  0  0  0  0  0  0  0  0
    9.4143    3.4053  -19.1106 H   0  0  0  0  0  0  0  0  0  0  0  0
    9.2646    5.6326  -18.5003 H   0  0  0  0  0  0  0  0  0  0  0  0
    8.9212    4.8248  -17.0095 H   0  0  0  0  0  0  0  0  0  0  0  0
   11.4205    6.2928  -17.9095 H   0  0  0  0  0  0  0  0  0  0  0  0
   10.4886    6.5595  -16.4628 H   0  0  0  0  0  0  0  0  0  0  0  0
   13.7884    4.9472  -15.5636 H   0  0  0  0  0  0  0  0  0  0  0  0
   13.4724    6.1916  -16.7269 H   0  0  0  0  0  0  0  0  0  0  0  0
   13.6563    7.1861  -14.5550 H   0  0  0  0  0  0  0  0  0  0  0  0
   12.0199    7.4304  -15.0698 H   0  0  0  0  0  0  0  0  0  0  0  0
   12.8857    5.1426  -13.1985 H   0  0  0  0  0  0  0  0  0  0  0  0
   12.4212    6.7197  -12.6407 H   0  0  0  0  0  0  0  0  0  0  0  0
   10.3058    6.8683  -11.7759 H   0  0  0  0  0  0  0  0  0  0  0  0
    7.9259    6.2082  -11.6943 H   0  0  0  0  0  0  0  0  0  0  0  0
    7.0471    4.5256  -13.2996 H   0  0  0  0  0  0  0  0  0  0  0  0
    8.5315    3.5161  -14.9829 H   0  0  0  0  0  0  0  0  0  0  0  0
   12.0955    3.6152  -14.8012 H   0  0  0  0  0  0  0  0  0  0  0  0
   12.2101    4.2987  -17.0921 H   0  0  0  0  0  0  0  0  0  0  0  0
  2  1  1  0
  3  2  1  0
  4  3  1  0
  5  4  2  0
  6  5  1  0
  7  6  2  0
  8  3  2  0
  8  7  1  0
  9  7  1  0
 10  9  1  0
 11 10  1  0
 12 11  1  0
 13 12  1  0
 14 13  1  0
 15 14  1  0
 16 15  1  0
 17 16  2  0
 18 17  1  0
 19 18  2  0
 20 19  1  0
 21 16  1  0
 21 20  2  0
 22  6  1  0
 22 12  1  0
 22 21  1  0
 23  1  1  0
 24  1  1  0
 25  1  1  0
 26  4  1  0
 27  5  1  0
 28  8  1  0
 29  9  1  0
 30  9  1  0
 31 10  1  0
 32 10  1  0
 33 11  1  0
 34 11  1  0
 35 13  1  0
 36 13  1  0
 37 14  1  0
 38 14  1  0
 39 15  1  0
 40 15  1  0
 41 17  1  0
 42 18  1  0
 43 19  1  0
 44 20  1  0
 22 45  1  1
 12 46  1  6
M  CHG  1  12   1
M  END
>  <b_m_subgroup_collapsed>  (1465) 
0

>  <r_i_docking_score>  (1465) 
-5.6398733112626802

>  <s_m_subgroup_title>  (1465) 
glide-dock_SP_D22_pv

>  <s_m_subgroupid>  (1465) 
glide-dock_SP_D22_pv

>  <Molecule ChEMBL ID>  (1465) 
CHEMBL443843

>  <Standard Type>  (1465) 
Ki

>  <Standard Value>  (1465) 
10000.0

>  <label>  (1465) 
0

$$$$
CHEMBL275707
     RDKit          3D

 52 55  0  0  1  0  0  0  0  0999 V2000
   10.8929    9.3484   -9.3938 C   0  0  0  0  0  0  0  0  0  0  0  0
   10.6836    7.8710   -9.7110 C   0  0  2  0  0  0  0  0  0  0  0  0
   10.2137    7.6385  -11.1593 C   0  0  0  0  0  0  0  0  0  0  0  0
   10.0517    6.2020  -11.4140 N   0  0  0  0  0  0  0  0  0  0  0  0
    9.6503    6.0351  -12.8061 C   0  0  0  0  0  0  0  0  0  0  0  0
    9.6262    4.5681  -13.2693 C   0  0  0  0  0  0  0  0  0  0  0  0
    8.9682    4.4355  -14.6443 C   0  0  0  0  0  0  0  0  0  0  0  0
    8.7309    3.0429  -14.9746 N   0  0  0  0  0  0  0  0  0  0  0  0
    9.5707    2.2211  -15.7298 C   0  0  0  0  0  0  0  0  0  0  0  0
   10.8041    2.5061  -16.3515 C   0  0  0  0  0  0  0  0  0  0  0  0
   11.4674    1.5123  -17.0948 C   0  0  0  0  0  0  0  0  0  0  0  0
   10.8962    0.2337  -17.2189 C   0  0  0  0  0  0  0  0  0  0  0  0
    9.6765   -0.0532  -16.5817 C   0  0  0  0  0  0  0  0  0  0  0  0
    8.9944    0.9219  -15.8228 C   0  0  0  0  0  0  0  0  0  0  0  0
    7.7806    0.9459  -15.0539 C   0  0  0  0  0  0  0  0  0  0  0  0
    6.7910   -0.0061  -14.7111 C   0  0  0  0  0  0  0  0  0  0  0  0
    5.6924    0.3444  -13.9063 C   0  0  0  0  0  0  0  0  0  0  0  0
    5.5487    1.6674  -13.4469 C   0  0  0  0  0  0  0  0  0  0  0  0
    6.5031    2.6381  -13.8038 C   0  0  0  0  0  0  0  0  0  0  0  0
    7.6282    2.2782  -14.5747 C   0  0  0  0  0  0  0  0  0  0  0  0
    9.0288    5.6793  -10.5018 C   0  0  0  0  0  0  0  0  0  0  0  0
    9.4879    5.8697   -9.0487 C   0  0  2  0  0  0  0  0  0  0  0  0
    8.4871    5.3066   -8.0570 C   0  0  0  0  0  0  0  0  0  0  0  0
    9.6794    7.3055   -8.7917 N   0  0  0  0  0  0  0  0  0  0  0  0
   11.6016    9.8033  -10.0853 H   0  0  0  0  0  0  0  0  0  0  0  0
    9.9447    9.8752   -9.4603 H   0  0  0  0  0  0  0  0  0  0  0  0
   11.2811    9.4844   -8.3836 H   0  0  0  0  0  0  0  0  0  0  0  0
   11.6334    7.3517   -9.5581 H   0  0  0  0  0  0  0  0  0  0  0  0
   10.9556    8.0439  -11.8463 H   0  0  0  0  0  0  0  0  0  0  0  0
    9.2765    8.1684  -11.3476 H   0  0  0  0  0  0  0  0  0  0  0  0
   10.3597    6.5712  -13.4359 H   0  0  0  0  0  0  0  0  0  0  0  0
    8.6701    6.4923  -12.9605 H   0  0  0  0  0  0  0  0  0  0  0  0
    9.0646    3.9399  -12.5819 H   0  0  0  0  0  0  0  0  0  0  0  0
   10.6375    4.1599  -13.2913 H   0  0  0  0  0  0  0  0  0  0  0  0
    9.5771    4.8982  -15.4201 H   0  0  0  0  0  0  0  0  0  0  0  0
    8.0135    4.9581  -14.6466 H   0  0  0  0  0  0  0  0  0  0  0  0
   11.2448    3.4883  -16.2630 H   0  0  0  0  0  0  0  0  0  0  0  0
   12.4109    1.7331  -17.5715 H   0  0  0  0  0  0  0  0  0  0  0  0
   11.3966   -0.5290  -17.7958 H   0  0  0  0  0  0  0  0  0  0  0  0
    9.2393   -1.0299  -16.6760 H   0  0  0  0  0  0  0  0  0  0  0  0
    6.8858   -1.0236  -15.0647 H   0  0  0  0  0  0  0  0  0  0  0  0
    4.9534   -0.4002  -13.6534 H   0  0  0  0  0  0  0  0  0  0  0  0
    4.7013    1.9404  -12.8351 H   0  0  0  0  0  0  0  0  0  0  0  0
    6.3896    3.6514  -13.4468 H   0  0  0  0  0  0  0  0  0  0  0  0
    8.0703    6.1734  -10.6723 H   0  0  0  0  0  0  0  0  0  0  0  0
    8.8698    4.6155  -10.6554 H   0  0  0  0  0  0  0  0  0  0  0  0
   10.4370    5.3554   -8.8964 H   0  0  0  0  0  0  0  0  0  0  0  0
    8.3690    4.2282   -8.1710 H   0  0  0  0  0  0  0  0  0  0  0  0
    8.8150    5.5256   -7.0469 H   0  0  0  0  0  0  0  0  0  0  0  0
    7.5149    5.7699   -8.1849 H   0  0  0  0  0  0  0  0  0  0  0  0
    8.7951    7.7653   -8.9450 H   0  0  0  0  0  0  0  0  0  0  0  0
    9.9698    7.4416   -7.8355 H   0  0  0  0  0  0  0  0  0  0  0  0
  2  1  1  0
  3  2  1  0
  4  3  1  0
  5  4  1  0
  6  5  1  0
  7  6  1  0
  8  7  1  0
  9  8  1  0
 10  9  2  0
 11 10  1  0
 12 11  2  0
 13 12  1  0
 14  9  1  0
 14 13  2  0
 15 14  1  0
 16 15  2  0
 17 16  1  0
 18 17  2  0
 19 18  1  0
 20  8  1  0
 20 15  1  0
 20 19  2  0
 21  4  1  0
 22 21  1  0
 23 22  1  0
 24  2  1  0
 24 22  1  0
 25  1  1  0
 26  1  1  0
 27  1  1  0
  2 28  1  6
 29  3  1  0
 30  3  1  0
 31  5  1  0
 32  5  1  0
 33  6  1  0
 34  6  1  0
 35  7  1  0
 36  7  1  0
 37 10  1  0
 38 11  1  0
 39 12  1  0
 40 13  1  0
 41 16  1  0
 42 17  1  0
 43 18  1  0
 44 19  1  0
 45 21  1  0
 46 21  1  0
 22 47  1  6
 48 23  1  0
 49 23  1  0
 50 23  1  0
 51 24  1  0
 52 24  1  0
M  CHG  1  24   1
M  END
>  <b_m_subgroup_collapsed>  (1466) 
0

>  <r_i_docking_score>  (1466) 
-5.6393058530500202

>  <s_m_subgroup_title>  (1466) 
glide-dock_SP_D22_pv

>  <s_m_subgroupid>  (1466) 
glide-dock_SP_D22_pv

>  <Molecule ChEMBL ID>  (1466) 
CHEMBL275707

>  <Standard Type>  (1466) 
Ki

>  <Standard Value>  (1466) 
10000.0

>  <label>  (1466) 
0

$$$$
CHEMBL1258085
     RDKit          3D

 57 61  0  0  1  0  0  0  0  0999 V2000
    5.3653    0.4811  -20.5150 O   0  0  0  0  0  0  0  0  0  0  0  0
    4.8818   -0.2650  -19.6668 C   0  0  0  0  0  0  0  0  0  0  0  0
    3.9665   -1.2297  -19.8470 N   0  0  0  0  0  0  0  0  0  0  0  0
    3.5456   -1.8958  -18.6028 C   0  0  0  0  0  0  0  0  0  0  0  0
    4.4129   -1.2103  -17.5784 C   0  0  0  0  0  0  0  0  0  0  0  0
    4.5107   -1.4283  -16.1948 C   0  0  0  0  0  0  0  0  0  0  0  0
    5.4711   -0.6756  -15.4770 C   0  0  0  0  0  0  0  0  0  0  0  0
    6.3098    0.2654  -16.1429 C   0  0  0  0  0  0  0  0  0  0  0  0
    7.3188    0.9659  -15.5262 O   0  0  0  0  0  0  0  0  0  0  0  0
    7.1562    1.4033  -14.1854 C   0  0  0  0  0  0  0  0  0  0  0  0
    6.3268    2.7034  -14.1617 C   0  0  0  0  0  0  0  0  0  0  0  0
    6.4217    3.5911  -12.9043 C   0  0  0  0  0  0  0  0  0  0  0  0
    7.4679    4.6185  -13.0047 N   0  0  0  0  0  0  0  0  0  0  0  0
    7.1249    5.7552  -12.1249 C   0  0  0  0  0  0  0  0  0  0  0  0
    8.2613    6.8085  -12.0980 C   0  0  0  0  0  0  0  0  0  0  0  0
    9.5033    6.1650  -11.7224 N   0  0  0  0  0  0  0  0  0  0  0  0
   10.4366    6.8567  -10.9433 C   0  0  0  0  0  0  0  0  0  0  0  0
   11.5423    7.4228  -11.6051 C   0  0  0  0  0  0  0  0  0  0  0  0
   12.4863    8.1727  -10.8899 C   0  0  0  0  0  0  0  0  0  0  0  0
   12.3307    8.3683   -9.5087 C   0  0  0  0  0  0  0  0  0  0  0  0
   11.2467    7.7933   -8.8260 C   0  0  0  0  0  0  0  0  0  0  0  0
   11.1291    8.0103   -7.4378 C   0  0  0  0  0  0  0  0  0  0  0  0
   10.0815    7.4141   -6.7173 C   0  0  0  0  0  0  0  0  0  0  0  0
    9.1744    6.5737   -7.3833 C   0  0  0  0  0  0  0  0  0  0  0  0
    9.2927    6.3447   -8.7676 C   0  0  0  0  0  0  0  0  0  0  0  0
    8.4608    5.4390   -9.3257 F   0  0  0  0  0  0  0  0  0  0  0  0
   10.3030    6.9949   -9.5277 C   0  0  0  0  0  0  0  0  0  0  0  0
    9.8800    5.1130  -12.6389 C   0  0  0  0  0  0  0  0  0  0  0  0
    8.7616    4.0707  -12.5683 C   0  0  0  0  0  0  0  0  0  0  0  0
    6.1655    0.4757  -17.5342 C   0  0  0  0  0  0  0  0  0  0  0  0
    6.9434    1.3780  -18.1819 F   0  0  0  0  0  0  0  0  0  0  0  0
    5.2024   -0.2763  -18.2220 C   0  0  0  0  0  0  0  0  0  0  0  0
    3.5702   -1.4434  -20.7518 H   0  0  0  0  0  0  0  0  0  0  0  0
    3.7460   -2.9671  -18.6337 H   0  0  0  0  0  0  0  0  0  0  0  0
    2.4874   -1.7320  -18.4037 H   0  0  0  0  0  0  0  0  0  0  0  0
    3.8950   -2.1717  -15.7073 H   0  0  0  0  0  0  0  0  0  0  0  0
    5.5831   -0.8741  -14.4232 H   0  0  0  0  0  0  0  0  0  0  0  0
    6.7461    0.6510  -13.5132 H   0  0  0  0  0  0  0  0  0  0  0  0
    8.1721    1.5643  -13.8460 H   0  0  0  0  0  0  0  0  0  0  0  0
    6.5391    3.3009  -15.0461 H   0  0  0  0  0  0  0  0  0  0  0  0
    5.2858    2.4004  -14.2469 H   0  0  0  0  0  0  0  0  0  0  0  0
    5.4660    4.1130  -12.8343 H   0  0  0  0  0  0  0  0  0  0  0  0
    6.4859    2.9897  -11.9951 H   0  0  0  0  0  0  0  0  0  0  0  0
    6.2056    6.2278  -12.4728 H   0  0  0  0  0  0  0  0  0  0  0  0
    6.9227    5.3976  -11.1151 H   0  0  0  0  0  0  0  0  0  0  0  0
    8.3681    7.2455  -13.0825 H   0  0  0  0  0  0  0  0  0  0  0  0
    8.0854    7.6533  -11.4443 H   0  0  0  0  0  0  0  0  0  0  0  0
   11.6588    7.3059  -12.6730 H   0  0  0  0  0  0  0  0  0  0  0  0
   13.3250    8.6168  -11.4054 H   0  0  0  0  0  0  0  0  0  0  0  0
   13.0548    8.9678   -8.9748 H   0  0  0  0  0  0  0  0  0  0  0  0
   11.8453    8.6314   -6.9195 H   0  0  0  0  0  0  0  0  0  0  0  0
    9.9858    7.5774   -5.6547 H   0  0  0  0  0  0  0  0  0  0  0  0
    8.3816    6.0921   -6.8297 H   0  0  0  0  0  0  0  0  0  0  0  0
    9.9852    5.5068  -13.6505 H   0  0  0  0  0  0  0  0  0  0  0  0
   10.8318    4.6639  -12.3645 H   0  0  0  0  0  0  0  0  0  0  0  0
    8.6763    3.7638  -11.5268 H   0  0  0  0  0  0  0  0  0  0  0  0
    9.0653    3.2198  -13.1656 H   0  0  0  0  0  0  0  0  0  0  0  0
  2  1  2  0
  3  2  1  0
  4  3  1  0
  5  4  1  0
  6  5  1  0
  7  6  2  0
  8  7  1  0
  9  8  1  0
 10  9  1  0
 11 10  1  0
 12 11  1  0
 13 12  1  0
 14 13  1  0
 15 14  1  0
 16 15  1  0
 17 16  1  0
 18 17  2  0
 19 18  1  0
 20 19  2  0
 21 20  1  0
 22 21  2  0
 23 22  1  0
 24 23  2  0
 25 24  1  0
 26 25  1  0
 27 17  1  0
 27 21  1  0
 27 25  2  0
 28 16  1  0
 29 13  1  0
 29 28  1  0
 30  8  2  0
 31 30  1  0
 32  2  1  0
 32  5  2  0
 32 30  1  0
 33  3  1  0
 34  4  1  0
 35  4  1  0
 36  6  1  0
 37  7  1  0
 38 10  1  0
 39 10  1  0
 40 11  1  0
 41 11  1  0
 42 12  1  0
 43 12  1  0
 44 14  1  0
 45 14  1  0
 46 15  1  0
 47 15  1  0
 48 18  1  0
 49 19  1  0
 50 20  1  0
 51 22  1  0
 52 23  1  0
 53 24  1  0
 54 28  1  0
 55 28  1  0
 56 29  1  0
 57 29  1  0
M  END
>  <b_m_subgroup_collapsed>  (1467) 
0

>  <r_i_docking_score>  (1467) 
-5.6293450818786201

>  <s_m_subgroup_title>  (1467) 
glide-dock_SP_D22_pv

>  <s_m_subgroupid>  (1467) 
glide-dock_SP_D22_pv

>  <Molecule ChEMBL ID>  (1467) 
CHEMBL1258085

>  <Standard Type>  (1467) 
Ki

>  <Standard Value>  (1467) 
5.49

>  <label>  (1467) 
1

$$$$
CHEMBL537975
     RDKit          3D

 64 67  0  0  1  0  0  0  0  0999 V2000
   10.4309    6.9722   -5.4057 C   0  0  0  0  0  0  0  0  0  0  0  0
    9.5031    6.7075   -6.5955 C   0  0  0  0  0  0  0  0  0  0  0  0
    9.4406    7.7668   -7.5498 O   0  0  0  0  0  0  0  0  0  0  0  0
   10.5535    7.9142   -8.3372 C   0  0  0  0  0  0  0  0  0  0  0  0
   11.7160    8.4764   -7.7776 C   0  0  0  0  0  0  0  0  0  0  0  0
   12.8860    8.5723   -8.5378 C   0  0  0  0  0  0  0  0  0  0  0  0
   12.8881    8.1723   -9.8823 C   0  0  0  0  0  0  0  0  0  0  0  0
   11.7126    7.7170  -10.4838 C   0  0  0  0  0  0  0  0  0  0  0  0
   10.5456    7.5647   -9.7145 C   0  0  0  0  0  0  0  0  0  0  0  0
    9.4291    7.0224  -10.3515 N   0  0  0  0  0  0  0  0  0  0  0  0
    8.7107    5.9364   -9.7168 C   0  0  0  0  0  0  0  0  0  0  0  0
    8.3005    4.9090  -10.7554 C   0  0  0  0  0  0  0  0  0  0  0  0
    7.5882    5.5297  -11.9018 N   0  0  0  0  0  0  0  0  0  0  0  0
    7.2096    4.5101  -12.9079 C   0  0  0  0  0  0  0  0  0  0  0  0
    6.1124    3.5524  -12.4370 C   0  0  0  0  0  0  0  0  0  0  0  0
    5.9961    2.3817  -13.4097 C   0  0  0  0  0  0  0  0  0  0  0  0
    4.9978    1.3399  -12.9188 C   0  0  0  0  0  0  0  0  0  0  0  0
    4.6826    0.3118  -13.9433 C   0  0  0  0  0  0  0  0  0  0  0  0
    5.3860   -0.2331  -14.9807 C   0  0  0  0  0  0  0  0  0  0  0  0
    4.4268   -1.0497  -15.6385 C   0  0  0  0  0  0  0  0  0  0  0  0
    4.5735   -1.8535  -16.8432 C   0  0  0  0  0  0  0  0  0  0  0  0
    3.9918   -1.4448  -18.0603 C   0  0  0  0  0  0  0  0  0  0  0  0
    4.1379   -2.2413  -19.2114 C   0  0  0  0  0  0  0  0  0  0  0  0
    4.8593   -3.4502  -19.1463 C   0  0  0  0  0  0  0  0  0  0  0  0
    5.4369   -3.8790  -17.9278 C   0  0  0  0  0  0  0  0  0  0  0  0
    6.1814   -5.1517  -17.8490 N   0  0  0  0  0  0  0  0  0  0  0  0
    6.4212   -5.7479  -18.8946 O   0  0  0  0  0  0  0  0  0  0  0  0
    6.5418   -5.5529  -16.7464 O   0  0  0  0  0  0  0  0  0  0  0  0
    5.2860   -3.0658  -16.7828 C   0  0  0  0  0  0  0  0  0  0  0  0
    3.2688   -1.0277  -15.0106 N   0  0  0  0  0  0  0  0  0  0  0  0
    3.4246   -0.1831  -13.9129 O   0  0  0  0  0  0  0  0  0  0  0  0
    8.3806    6.6154  -12.5401 C   0  0  0  0  0  0  0  0  0  0  0  0
    8.8862    7.6667  -11.5399 C   0  0  0  0  0  0  0  0  0  0  0  0
   10.2135    6.2804   -4.5929 H   0  0  0  0  0  0  0  0  0  0  0  0
   11.4768    6.8181   -5.6692 H   0  0  0  0  0  0  0  0  0  0  0  0
   10.3154    7.9928   -5.0469 H   0  0  0  0  0  0  0  0  0  0  0  0
    8.4854    6.5483   -6.2468 H   0  0  0  0  0  0  0  0  0  0  0  0
    9.8106    5.7722   -7.0542 H   0  0  0  0  0  0  0  0  0  0  0  0
   11.7277    8.8230   -6.7563 H   0  0  0  0  0  0  0  0  0  0  0  0
   13.7799    8.9775   -8.0932 H   0  0  0  0  0  0  0  0  0  0  0  0
   13.7891    8.2742  -10.4675 H   0  0  0  0  0  0  0  0  0  0  0  0
   11.7274    7.4362  -11.5266 H   0  0  0  0  0  0  0  0  0  0  0  0
    7.8500    6.3087   -9.1644 H   0  0  0  0  0  0  0  0  0  0  0  0
    9.3604    5.4243   -9.0138 H   0  0  0  0  0  0  0  0  0  0  0  0
    7.6860    4.1724  -10.2469 H   0  0  0  0  0  0  0  0  0  0  0  0
    9.1883    4.3871  -11.1178 H   0  0  0  0  0  0  0  0  0  0  0  0
    8.1047    3.9486  -13.1828 H   0  0  0  0  0  0  0  0  0  0  0  0
    6.8642    4.9798  -13.8274 H   0  0  0  0  0  0  0  0  0  0  0  0
    5.1633    4.0846  -12.3620 H   0  0  0  0  0  0  0  0  0  0  0  0
    6.3091    3.1491  -11.4474 H   0  0  0  0  0  0  0  0  0  0  0  0
    6.9633    1.9061  -13.5707 H   0  0  0  0  0  0  0  0  0  0  0  0
    5.6867    2.7773  -14.3744 H   0  0  0  0  0  0  0  0  0  0  0  0
    4.0860    1.8650  -12.6469 H   0  0  0  0  0  0  0  0  0  0  0  0
    5.3655    0.8572  -12.0127 H   0  0  0  0  0  0  0  0  0  0  0  0
    6.4114   -0.0448  -15.2608 H   0  0  0  0  0  0  0  0  0  0  0  0
    3.4251   -0.5267  -18.1114 H   0  0  0  0  0  0  0  0  0  0  0  0
    3.6906   -1.9286  -20.1441 H   0  0  0  0  0  0  0  0  0  0  0  0
    4.9544   -4.0527  -20.0376 H   0  0  0  0  0  0  0  0  0  0  0  0
    5.6926   -3.3808  -15.8339 H   0  0  0  0  0  0  0  0  0  0  0  0
    9.2392    6.1710  -13.0464 H   0  0  0  0  0  0  0  0  0  0  0  0
    7.7760    7.1050  -13.3038 H   0  0  0  0  0  0  0  0  0  0  0  0
    8.0860    8.3485  -11.2597 H   0  0  0  0  0  0  0  0  0  0  0  0
    9.6342    8.2943  -12.0240 H   0  0  0  0  0  0  0  0  0  0  0  0
    6.7599    5.9742  -11.5209 H   0  0  0  0  0  0  0  0  0  0  0  0
  2  1  1  0
  3  2  1  0
  4  3  1  0
  5  4  2  0
  6  5  1  0
  7  6  2  0
  8  7  1  0
  9  4  1  0
  9  8  2  0
 10  9  1  0
 11 10  1  0
 12 11  1  0
 13 12  1  0
 14 13  1  0
 15 14  1  0
 16 15  1  0
 17 16  1  0
 18 17  1  0
 19 18  2  0
 20 19  1  0
 21 20  1  0
 22 21  1  0
 23 22  2  0
 24 23  1  0
 25 24  2  0
 26 25  1  0
 27 26  2  0
 28 26  1  0
 29 21  2  0
 29 25  1  0
 30 20  2  0
 31 18  1  0
 31 30  1  0
 32 13  1  0
 33 10  1  0
 33 32  1  0
 34  1  1  0
 35  1  1  0
 36  1  1  0
 37  2  1  0
 38  2  1  0
 39  5  1  0
 40  6  1  0
 41  7  1  0
 42  8  1  0
 43 11  1  0
 44 11  1  0
 45 12  1  0
 46 12  1  0
 47 14  1  0
 48 14  1  0
 49 15  1  0
 50 15  1  0
 51 16  1  0
 52 16  1  0
 53 17  1  0
 54 17  1  0
 55 19  1  0
 56 22  1  0
 57 23  1  0
 58 24  1  0
 59 29  1  0
 60 32  1  0
 61 32  1  0
 62 33  1  0
 63 33  1  0
 64 13  1  0
M  CHG  3  13   1  26   1  28  -1
M  END
>  <b_m_subgroup_collapsed>  (1468) 
0

>  <r_i_docking_score>  (1468) 
-5.6270004627953298

>  <s_m_subgroup_title>  (1468) 
glide-dock_SP_D22_pv

>  <s_m_subgroupid>  (1468) 
glide-dock_SP_D22_pv

>  <Molecule ChEMBL ID>  (1468) 
CHEMBL537975

>  <Standard Type>  (1468) 
Ki

>  <Standard Value>  (1468) 
95.0

>  <label>  (1468) 
1

$$$$
CHEMBL379450
     RDKit          3D

 58 62  0  0  1  0  0  0  0  0999 V2000
    8.9287    8.5188  -21.2483 C   0  0  0  0  0  0  0  0  0  0  0  0
    7.9850    7.6517  -20.6645 C   0  0  0  0  0  0  0  0  0  0  0  0
    8.4173    6.5674  -19.8749 C   0  0  0  0  0  0  0  0  0  0  0  0
    9.7925    6.3428  -19.6640 C   0  0  0  0  0  0  0  0  0  0  0  0
   10.2534    5.1615  -18.8281 C   0  0  0  0  0  0  0  0  0  0  0  0
   10.8972    5.6035  -17.4996 C   0  0  0  0  0  0  0  0  0  0  0  0
   11.3528    4.4734  -16.6433 N   0  0  1  0  0  0  0  0  0  0  0  0
   12.5104    3.7277  -17.2223 C   0  0  0  0  0  0  0  0  0  0  0  0
   12.3497    2.1982  -17.1372 C   0  0  0  0  0  0  0  0  0  0  0  0
   11.0555    1.6841  -17.7528 C   0  0  0  0  0  0  0  0  0  0  0  0
   10.9493    1.7109  -19.1607 C   0  0  0  0  0  0  0  0  0  0  0  0
    9.7819    1.2622  -19.8063 C   0  0  0  0  0  0  0  0  0  0  0  0
    8.7081    0.7701  -19.0465 C   0  0  0  0  0  0  0  0  0  0  0  0
    8.8058    0.7241  -17.6449 C   0  0  0  0  0  0  0  0  0  0  0  0
    9.9701    1.1762  -16.9823 C   0  0  0  0  0  0  0  0  0  0  0  0
    9.9933    1.0648  -15.4580 C   0  0  0  0  0  0  0  0  0  0  0  0
    9.3341    2.2236  -14.7756 C   0  0  0  0  0  0  0  0  0  0  0  0
    7.9610    2.2372  -14.5852 N   0  0  0  0  0  0  0  0  0  0  0  0
    7.5690    3.3485  -13.8657 C   0  0  0  0  0  0  0  0  0  0  0  0
    6.3175    3.7735  -13.3862 C   0  0  0  0  0  0  0  0  0  0  0  0
    6.2342    4.9701  -12.6482 C   0  0  0  0  0  0  0  0  0  0  0  0
    7.3972    5.7291  -12.4179 C   0  0  0  0  0  0  0  0  0  0  0  0
    8.6461    5.2959  -12.9085 C   0  0  0  0  0  0  0  0  0  0  0  0
    8.7635    4.0881  -13.6374 C   0  0  0  0  0  0  0  0  0  0  0  0
    9.8627    3.3729  -14.2314 C   0  0  0  0  0  0  0  0  0  0  0  0
   11.2973    3.8134  -14.2063 C   0  0  0  0  0  0  0  0  0  0  0  0
   11.5883    4.9137  -15.2389 C   0  0  0  0  0  0  0  0  0  0  0  0
   10.7363    7.2158  -20.2467 C   0  0  0  0  0  0  0  0  0  0  0  0
   10.3050    8.3019  -21.0354 C   0  0  0  0  0  0  0  0  0  0  0  0
    8.6004    9.3498  -21.8568 H   0  0  0  0  0  0  0  0  0  0  0  0
    6.9278    7.8149  -20.8207 H   0  0  0  0  0  0  0  0  0  0  0  0
    7.6866    5.9023  -19.4390 H   0  0  0  0  0  0  0  0  0  0  0  0
    9.4042    4.5050  -18.6287 H   0  0  0  0  0  0  0  0  0  0  0  0
   10.9417    4.5860  -19.4441 H   0  0  0  0  0  0  0  0  0  0  0  0
   11.7313    6.2853  -17.6785 H   0  0  0  0  0  0  0  0  0  0  0  0
   10.1336    6.1718  -16.9670 H   0  0  0  0  0  0  0  0  0  0  0  0
   12.6544    3.9909  -18.2697 H   0  0  0  0  0  0  0  0  0  0  0  0
   13.4443    4.0243  -16.7425 H   0  0  0  0  0  0  0  0  0  0  0  0
   13.1761    1.7337  -17.6776 H   0  0  0  0  0  0  0  0  0  0  0  0
   12.4813    1.8576  -16.1189 H   0  0  0  0  0  0  0  0  0  0  0  0
   11.7687    2.0825  -19.7589 H   0  0  0  0  0  0  0  0  0  0  0  0
    9.7141    1.2927  -20.8841 H   0  0  0  0  0  0  0  0  0  0  0  0
    7.8113    0.4187  -19.5391 H   0  0  0  0  0  0  0  0  0  0  0  0
    7.9749    0.3293  -17.0751 H   0  0  0  0  0  0  0  0  0  0  0  0
    9.4595    0.1512  -15.1880 H   0  0  0  0  0  0  0  0  0  0  0  0
   10.9905    0.8983  -15.0624 H   0  0  0  0  0  0  0  0  0  0  0  0
    7.3499    1.4969  -14.8988 H   0  0  0  0  0  0  0  0  0  0  0  0
    5.4289    3.1850  -13.5684 H   0  0  0  0  0  0  0  0  0  0  0  0
    5.2872    5.3100  -12.2569 H   0  0  0  0  0  0  0  0  0  0  0  0
    7.3252    6.6432  -11.8478 H   0  0  0  0  0  0  0  0  0  0  0  0
    9.5245    5.8895  -12.7082 H   0  0  0  0  0  0  0  0  0  0  0  0
   11.5300    4.2066  -13.2145 H   0  0  0  0  0  0  0  0  0  0  0  0
   11.9704    2.9712  -14.3315 H   0  0  0  0  0  0  0  0  0  0  0  0
   12.6057    5.2911  -15.1206 H   0  0  0  0  0  0  0  0  0  0  0  0
   10.9437    5.7602  -14.9918 H   0  0  0  0  0  0  0  0  0  0  0  0
   11.7942    7.0558  -20.0970 H   0  0  0  0  0  0  0  0  0  0  0  0
   11.0298    8.9694  -21.4803 H   0  0  0  0  0  0  0  0  0  0  0  0
   10.5731    3.8273  -16.6106 H   0  0  0  0  0  0  0  0  0  0  0  0
  2  1  2  0
  3  2  1  0
  4  3  2  0
  5  4  1  0
  6  5  1  0
  7  6  1  0
  8  7  1  0
  9  8  1  0
 10  9  1  0
 11 10  2  0
 12 11  1  0
 13 12  2  0
 14 13  1  0
 15 10  1  0
 15 14  2  0
 16 15  1  0
 17 16  1  0
 18 17  1  0
 19 18  1  0
 20 19  2  0
 21 20  1  0
 22 21  2  0
 23 22  1  0
 24 19  1  0
 24 23  2  0
 25 17  2  0
 25 24  1  0
 26 25  1  0
 27  7  1  0
 27 26  1  0
 28  4  1  0
 29  1  1  0
 29 28  2  0
 30  1  1  0
 31  2  1  0
 32  3  1  0
 33  5  1  0
 34  5  1  0
 35  6  1  0
 36  6  1  0
 37  8  1  0
 38  8  1  0
 39  9  1  0
 40  9  1  0
 41 11  1  0
 42 12  1  0
 43 13  1  0
 44 14  1  0
 45 16  1  0
 46 16  1  0
 47 18  1  0
 48 20  1  0
 49 21  1  0
 50 22  1  0
 51 23  1  0
 52 26  1  0
 53 26  1  0
 54 27  1  0
 55 27  1  0
 56 28  1  0
 57 29  1  0
  7 58  1  1
M  CHG  1   7   1
M  END
>  <b_m_subgroup_collapsed>  (1469) 
0

>  <r_i_docking_score>  (1469) 
-5.6262811321126804

>  <s_m_subgroup_title>  (1469) 
glide-dock_SP_D22_pv

>  <s_m_subgroupid>  (1469) 
glide-dock_SP_D22_pv

>  <Molecule ChEMBL ID>  (1469) 
CHEMBL379450

>  <Standard Type>  (1469) 
Ki

>  <Standard Value>  (1469) 
10000.0

>  <label>  (1469) 
0

$$$$
CHEMBL490533
     RDKit          3D

 47 51  0  0  1  0  0  0  0  0999 V2000
   11.3801    7.7754  -11.0855 C   0  0  0  0  0  0  0  0  0  0  0  0
   11.4803    7.0922  -12.3274 O   0  0  0  0  0  0  0  0  0  0  0  0
   10.5026    6.1721  -12.6462 C   0  0  0  0  0  0  0  0  0  0  0  0
    9.3304    5.9749  -11.8707 C   0  0  0  0  0  0  0  0  0  0  0  0
    8.3900    4.9959  -12.2366 C   0  0  0  0  0  0  0  0  0  0  0  0
    8.6100    4.2254  -13.3918 C   0  0  0  0  0  0  0  0  0  0  0  0
    9.7473    4.4295  -14.1883 C   0  0  0  0  0  0  0  0  0  0  0  0
   10.7127    5.3827  -13.8027 C   0  0  0  0  0  0  0  0  0  0  0  0
   11.8458    5.5739  -14.5504 O   0  0  0  0  0  0  0  0  0  0  0  0
   12.8854    4.6604  -14.2410 C   0  0  0  0  0  0  0  0  0  0  0  0
    9.8712    3.5762  -15.4380 C   0  0  0  0  0  0  0  0  0  0  0  0
    9.6504    2.1499  -15.0863 N   0  0  2  0  0  0  0  0  0  0  0  0
    9.9343    1.2153  -16.2022 C   0  0  0  0  0  0  0  0  0  0  0  0
    8.7430    1.1082  -17.1600 C   0  0  0  0  0  0  0  0  0  0  0  0
    7.5108    0.6631  -16.4061 C   0  0  0  0  0  0  0  0  0  0  0  0
    6.4935   -0.0499  -17.0814 C   0  0  0  0  0  0  0  0  0  0  0  0
    5.3736   -0.4472  -16.3371 C   0  0  0  0  0  0  0  0  0  0  0  0
    5.2738   -0.2007  -14.9845 C   0  0  0  0  0  0  0  0  0  0  0  0
    6.2729    0.4874  -14.2871 C   0  0  0  0  0  0  0  0  0  0  0  0
    7.3853    0.9637  -15.0209 C   0  0  0  0  0  0  0  0  0  0  0  0
    8.3872    1.8717  -14.3159 C   0  0  2  0  0  0  0  0  0  0  0  0
    7.6473    3.1562  -13.8405 C   0  0  0  0  0  0  0  0  0  0  0  0
    4.0831   -0.6467  -14.5199 O   0  0  0  0  0  0  0  0  0  0  0  0
    3.4279   -1.1828  -15.6357 C   0  0  0  0  0  0  0  0  0  0  0  0
    4.2461   -1.0579  -16.7683 O   0  0  0  0  0  0  0  0  0  0  0  0
   12.2540    8.4144  -10.9546 H   0  0  0  0  0  0  0  0  0  0  0  0
   11.3543    7.0784  -10.2463 H   0  0  0  0  0  0  0  0  0  0  0  0
   10.4979    8.4162  -11.0486 H   0  0  0  0  0  0  0  0  0  0  0  0
    9.1278    6.5600  -10.9862 H   0  0  0  0  0  0  0  0  0  0  0  0
    7.5075    4.8477  -11.6297 H   0  0  0  0  0  0  0  0  0  0  0  0
   13.8078    4.9755  -14.7268 H   0  0  0  0  0  0  0  0  0  0  0  0
   12.6495    3.6627  -14.6053 H   0  0  0  0  0  0  0  0  0  0  0  0
   13.0623    4.5973  -13.1661 H   0  0  0  0  0  0  0  0  0  0  0  0
    9.1287    3.9034  -16.1664 H   0  0  0  0  0  0  0  0  0  0  0  0
   10.8422    3.7061  -15.9124 H   0  0  0  0  0  0  0  0  0  0  0  0
   10.8363    1.5187  -16.7358 H   0  0  0  0  0  0  0  0  0  0  0  0
   10.1485    0.2322  -15.7791 H   0  0  0  0  0  0  0  0  0  0  0  0
    8.5436    2.0607  -17.6505 H   0  0  0  0  0  0  0  0  0  0  0  0
    8.9688    0.3873  -17.9466 H   0  0  0  0  0  0  0  0  0  0  0  0
    6.5581   -0.2674  -18.1375 H   0  0  0  0  0  0  0  0  0  0  0  0
    6.1526    0.7013  -13.2342 H   0  0  0  0  0  0  0  0  0  0  0  0
    8.7401    1.3179  -13.4470 H   0  0  0  0  0  0  0  0  0  0  0  0
    6.9316    2.9429  -13.0463 H   0  0  0  0  0  0  0  0  0  0  0  0
    7.0519    3.5792  -14.6465 H   0  0  0  0  0  0  0  0  0  0  0  0
    3.2518   -2.2318  -15.4478 H   0  0  0  0  0  0  0  0  0  0  0  0
    2.4856   -0.6641  -15.7979 H   0  0  0  0  0  0  0  0  0  0  0  0
   10.3795    1.9725  -14.4111 H   0  0  0  0  0  0  0  0  0  0  0  0
  2  1  1  0
  3  2  1  0
  4  3  1  0
  5  4  2  0
  6  5  1  0
  7  6  2  0
  8  3  2  0
  8  7  1  0
  9  8  1  0
 10  9  1  0
 11  7  1  0
 12 11  1  0
 13 12  1  0
 14 13  1  0
 15 14  1  0
 16 15  1  0
 17 16  2  0
 18 17  1  0
 19 18  2  0
 20 15  2  0
 20 19  1  0
 21 12  1  0
 21 20  1  0
 22  6  1  0
 22 21  1  0
 23 18  1  0
 24 23  1  0
 25 17  1  0
 25 24  1  0
 26  1  1  0
 27  1  1  0
 28  1  1  0
 29  4  1  0
 30  5  1  0
 31 10  1  0
 32 10  1  0
 33 10  1  0
 34 11  1  0
 35 11  1  0
 36 13  1  0
 37 13  1  0
 38 14  1  0
 39 14  1  0
 40 16  1  0
 41 19  1  0
 21 42  1  1
 43 22  1  0
 44 22  1  0
 45 24  1  0
 46 24  1  0
 12 47  1  1
M  CHG  1  12   1
M  END
>  <b_m_subgroup_collapsed>  (1470) 
0

>  <r_i_docking_score>  (1470) 
-5.6246613970044201

>  <s_m_subgroup_title>  (1470) 
glide-dock_SP_D22_pv

>  <s_m_subgroupid>  (1470) 
glide-dock_SP_D22_pv

>  <Molecule ChEMBL ID>  (1470) 
CHEMBL490533

>  <Standard Type>  (1470) 
Ki

>  <Standard Value>  (1470) 
80.2

>  <label>  (1470) 
1

$$$$
CHEMBL99654
     RDKit          3D

 35 37  0  0  1  0  0  0  0  0999 V2000
    9.4869    0.1585  -17.2314 C   0  0  0  0  0  0  0  0  0  0  0  0
    9.4290    1.2565  -16.2205 C   0  0  0  0  0  0  0  0  0  0  0  0
   10.8860    2.0478  -15.7134 S   0  0  0  0  0  0  0  0  0  0  0  0
   10.0142    3.0645  -14.6060 C   0  0  0  0  0  0  0  0  0  0  0  0
   10.7654    4.0402  -13.7581 C   0  0  0  0  0  0  0  0  0  0  0  0
    8.6585    2.8166  -14.6468 C   0  0  0  0  0  0  0  0  0  0  0  0
    8.3299    1.7751  -15.5784 C   0  0  0  0  0  0  0  0  0  0  0  0
    6.9268    1.2969  -15.8150 C   0  0  0  0  0  0  0  0  0  0  0  0
    6.2715    0.6029  -14.5883 C   0  0  0  0  0  0  0  0  0  0  0  0
    5.1550   -0.3447  -15.0878 C   0  0  0  0  0  0  0  0  0  0  0  0
    7.2863   -0.2863  -13.8440 C   0  0  0  0  0  0  0  0  0  0  0  0
    5.6616    1.6141  -13.5790 C   0  0  0  0  0  0  0  0  0  0  0  0
    6.3219    2.9725  -13.4357 C   0  0  0  0  0  0  0  0  0  0  0  0
    5.8050    4.0008  -12.6942 C   0  0  0  0  0  0  0  0  0  0  0  0
    6.7203    5.0191  -12.6992 N   0  0  0  0  0  0  0  0  0  0  0  0
    7.8071    4.7151  -13.4271 N   0  0  0  0  0  0  0  0  0  0  0  0
    7.6024    3.4724  -13.8553 C   0  0  0  0  0  0  0  0  0  0  0  0
    9.0269    0.4706  -18.1688 H   0  0  0  0  0  0  0  0  0  0  0  0
    8.9627   -0.7264  -16.8724 H   0  0  0  0  0  0  0  0  0  0  0  0
   10.5164   -0.1304  -17.4413 H   0  0  0  0  0  0  0  0  0  0  0  0
   10.4816    3.9404  -12.7099 H   0  0  0  0  0  0  0  0  0  0  0  0
   10.5570    5.0638  -14.0695 H   0  0  0  0  0  0  0  0  0  0  0  0
   11.8417    3.8821  -13.8298 H   0  0  0  0  0  0  0  0  0  0  0  0
    6.3296    2.1311  -16.1706 H   0  0  0  0  0  0  0  0  0  0  0  0
    6.9231    0.5969  -16.6502 H   0  0  0  0  0  0  0  0  0  0  0  0
    4.3931    0.1724  -15.6692 H   0  0  0  0  0  0  0  0  0  0  0  0
    4.6488   -0.8354  -14.2554 H   0  0  0  0  0  0  0  0  0  0  0  0
    5.5577   -1.1349  -15.7239 H   0  0  0  0  0  0  0  0  0  0  0  0
    8.1275    0.2769  -13.4439 H   0  0  0  0  0  0  0  0  0  0  0  0
    7.6861   -1.0274  -14.5294 H   0  0  0  0  0  0  0  0  0  0  0  0
    6.8290   -0.8262  -13.0138 H   0  0  0  0  0  0  0  0  0  0  0  0
    4.6183    1.7715  -13.8468 H   0  0  0  0  0  0  0  0  0  0  0  0
    5.5928    1.1403  -12.5990 H   0  0  0  0  0  0  0  0  0  0  0  0
    4.8860    4.0783  -12.1346 H   0  0  0  0  0  0  0  0  0  0  0  0
    6.6321    5.8949  -12.1945 H   0  0  0  0  0  0  0  0  0  0  0  0
  2  1  1  0
  3  2  1  0
  4  3  1  0
  5  4  1  0
  6  4  2  0
  7  2  2  0
  7  6  1  0
  8  7  1  0
  9  8  1  0
 10  9  1  0
 11  9  1  0
 12  9  1  0
 13 12  1  0
 14 13  2  0
 15 14  1  0
 16 15  1  0
 17  6  1  0
 17 13  1  0
 17 16  2  0
 18  1  1  0
 19  1  1  0
 20  1  1  0
 21  5  1  0
 22  5  1  0
 23  5  1  0
 24  8  1  0
 25  8  1  0
 26 10  1  0
 27 10  1  0
 28 10  1  0
 29 11  1  0
 30 11  1  0
 31 11  1  0
 32 12  1  0
 33 12  1  0
 34 14  1  0
 35 15  1  0
M  END
>  <b_m_subgroup_collapsed>  (1471) 
0

>  <r_i_docking_score>  (1471) 
-5.6195144602348703

>  <s_m_subgroup_title>  (1471) 
glide-dock_SP_D22_pv

>  <s_m_subgroupid>  (1471) 
glide-dock_SP_D22_pv

>  <Molecule ChEMBL ID>  (1471) 
CHEMBL99654

>  <Standard Type>  (1471) 
Ki

>  <Standard Value>  (1471) 
10000.0

>  <label>  (1471) 
0

$$$$
CHEMBL3695441
     RDKit          3D

 82 86  0  0  1  0  0  0  0  0999 V2000
   17.3994    2.7062  -23.3055 C   0  0  0  0  0  0  0  0  0  0  0  0
   18.2330    2.1098  -22.1514 C   0  0  0  0  0  0  0  0  0  0  0  0
   18.6793    3.1565  -21.1092 C   0  0  0  0  0  0  0  0  0  0  0  0
   19.5020    1.4887  -22.7600 C   0  0  0  0  0  0  0  0  0  0  0  0
   17.6014    0.9740  -21.5539 O   0  0  0  0  0  0  0  0  0  0  0  0
   16.3743    0.9824  -20.9189 C   0  0  0  0  0  0  0  0  0  0  0  0
   15.8953   -0.2767  -20.5047 C   0  0  0  0  0  0  0  0  0  0  0  0
   14.6576   -0.4090  -19.8453 C   0  0  0  0  0  0  0  0  0  0  0  0
   13.8800    0.7303  -19.5532 C   0  0  0  0  0  0  0  0  0  0  0  0
   12.5654    0.5846  -18.8356 C   0  0  0  0  0  0  0  0  0  0  0  0
   11.9041   -0.4515  -18.9190 O   0  0  0  0  0  0  0  0  0  0  0  0
   12.2111    1.6312  -18.0748 N   0  0  0  0  0  0  0  0  0  0  0  0
   10.9546    1.7828  -17.3502 C   0  0  1  0  0  0  0  0  0  0  0  0
   11.0928    1.2945  -15.8999 C   0  0  0  0  0  0  0  0  0  0  0  0
    9.7926    1.5111  -15.1075 C   0  0  0  0  0  0  0  0  0  0  0  0
    9.3267    2.9849  -15.1168 C   0  0  2  0  0  0  0  0  0  0  0  0
    7.9664    3.1143  -14.3877 C   0  0  0  0  0  0  0  0  0  0  0  0
    7.5365    4.5320  -13.9376 C   0  0  0  0  0  0  0  0  0  0  0  0
    8.3213    5.1690  -12.8660 N   0  0  2  0  0  0  0  0  0  0  0  0
    8.4814    4.3763  -11.6331 C   0  0  0  0  0  0  0  0  0  0  0  0
    9.5164    5.0675  -10.7523 C   0  0  0  0  0  0  0  0  0  0  0  0
    9.1792    6.5325  -10.4538 C   0  0  1  0  0  0  0  0  0  0  0  0
   10.3140    7.1454   -9.6649 C   0  0  0  0  0  0  0  0  0  0  0  0
   11.4747    7.6553  -10.2965 C   0  0  0  0  0  0  0  0  0  0  0  0
   12.5276    8.1812   -9.5267 C   0  0  0  0  0  0  0  0  0  0  0  0
   12.4285    8.2519   -8.1251 C   0  0  0  0  0  0  0  0  0  0  0  0
   11.2901    7.7062   -7.5064 C   0  0  0  0  0  0  0  0  0  0  0  0
   10.2755    7.1526   -8.2622 C   0  0  0  0  0  0  0  0  0  0  0  0
    9.2438    6.5698   -7.3610 C   0  0  0  0  0  0  0  0  0  0  0  0
    9.7523    7.0494   -5.9934 C   0  0  0  0  0  0  0  0  0  0  0  0
   11.0581    7.6221   -6.1648 O   0  0  0  0  0  0  0  0  0  0  0  0
    8.8643    7.2982  -11.7467 C   0  0  0  0  0  0  0  0  0  0  0  0
    7.8177    6.5330  -12.5505 C   0  0  0  0  0  0  0  0  0  0  0  0
    9.2443    3.4913  -16.5745 C   0  0  0  0  0  0  0  0  0  0  0  0
   10.5404    3.2630  -17.3644 C   0  0  0  0  0  0  0  0  0  0  0  0
   14.3448    1.9953  -19.9808 C   0  0  0  0  0  0  0  0  0  0  0  0
   15.5758    2.1216  -20.6548 C   0  0  0  0  0  0  0  0  0  0  0  0
   17.1233    1.9352  -24.0243 H   0  0  0  0  0  0  0  0  0  0  0  0
   16.4816    3.1884  -22.9819 H   0  0  0  0  0  0  0  0  0  0  0  0
   17.9738    3.4604  -23.8440 H   0  0  0  0  0  0  0  0  0  0  0  0
   19.2570    2.6887  -20.3126 H   0  0  0  0  0  0  0  0  0  0  0  0
   19.3218    3.9069  -21.5713 H   0  0  0  0  0  0  0  0  0  0  0  0
   17.8582    3.6947  -20.6474 H   0  0  0  0  0  0  0  0  0  0  0  0
   19.2612    0.7097  -23.4828 H   0  0  0  0  0  0  0  0  0  0  0  0
   20.1028    2.2374  -23.2769 H   0  0  0  0  0  0  0  0  0  0  0  0
   20.1306    1.0364  -21.9925 H   0  0  0  0  0  0  0  0  0  0  0  0
   16.4851   -1.1610  -20.6991 H   0  0  0  0  0  0  0  0  0  0  0  0
   14.3271   -1.3922  -19.5417 H   0  0  0  0  0  0  0  0  0  0  0  0
   12.8594    2.4027  -18.0220 H   0  0  0  0  0  0  0  0  0  0  0  0
   10.1757    1.1988  -17.8463 H   0  0  0  0  0  0  0  0  0  0  0  0
   11.3533    0.2360  -15.8817 H   0  0  0  0  0  0  0  0  0  0  0  0
   11.9076    1.8310  -15.4150 H   0  0  0  0  0  0  0  0  0  0  0  0
    9.0120    0.8735  -15.5258 H   0  0  0  0  0  0  0  0  0  0  0  0
    9.9397    1.1771  -14.0808 H   0  0  0  0  0  0  0  0  0  0  0  0
   10.0753    3.5712  -14.5814 H   0  0  0  0  0  0  0  0  0  0  0  0
    7.1990    2.7384  -15.0668 H   0  0  0  0  0  0  0  0  0  0  0  0
    7.9221    2.4302  -13.5446 H   0  0  0  0  0  0  0  0  0  0  0  0
    7.6862    5.2205  -14.7531 H   0  0  0  0  0  0  0  0  0  0  0  0
    6.4760    4.5339  -13.6804 H   0  0  0  0  0  0  0  0  0  0  0  0
    7.5257    4.2590  -11.1207 H   0  0  0  0  0  0  0  0  0  0  0  0
    8.8753    3.3911  -11.8790 H   0  0  0  0  0  0  0  0  0  0  0  0
    9.6681    4.5085   -9.8275 H   0  0  0  0  0  0  0  0  0  0  0  0
   10.4428    5.0528  -11.3055 H   0  0  0  0  0  0  0  0  0  0  0  0
    8.2762    6.5581   -9.8473 H   0  0  0  0  0  0  0  0  0  0  0  0
   11.5934    7.6331  -11.3683 H   0  0  0  0  0  0  0  0  0  0  0  0
   13.4094    8.5680  -10.0169 H   0  0  0  0  0  0  0  0  0  0  0  0
   13.2222    8.6938   -7.5425 H   0  0  0  0  0  0  0  0  0  0  0  0
    8.2502    6.9597   -7.5767 H   0  0  0  0  0  0  0  0  0  0  0  0
    9.2324    5.4826   -7.4419 H   0  0  0  0  0  0  0  0  0  0  0  0
    9.0874    7.8420   -5.6805 H   0  0  0  0  0  0  0  0  0  0  0  0
    9.7477    6.2661   -5.2344 H   0  0  0  0  0  0  0  0  0  0  0  0
    8.5076    8.3039  -11.5213 H   0  0  0  0  0  0  0  0  0  0  0  0
    9.7434    7.4153  -12.3760 H   0  0  0  0  0  0  0  0  0  0  0  0
    7.6123    7.1098  -13.4467 H   0  0  0  0  0  0  0  0  0  0  0  0
    6.8734    6.4707  -12.0070 H   0  0  0  0  0  0  0  0  0  0  0  0
    8.4310    2.9807  -17.0945 H   0  0  0  0  0  0  0  0  0  0  0  0
    9.0115    4.5549  -16.5943 H   0  0  0  0  0  0  0  0  0  0  0  0
   11.3349    3.8788  -16.9401 H   0  0  0  0  0  0  0  0  0  0  0  0
   10.4032    3.5990  -18.3938 H   0  0  0  0  0  0  0  0  0  0  0  0
   13.7598    2.8855  -19.8042 H   0  0  0  0  0  0  0  0  0  0  0  0
   15.8722    3.1106  -20.9541 H   0  0  0  0  0  0  0  0  0  0  0  0
    9.2517    5.2846  -13.2406 H   0  0  0  0  0  0  0  0  0  0  0  0
  2  1  1  0
  3  2  1  0
  4  2  1  0
  5  2  1  0
  6  5  1  0
  7  6  1  0
  8  7  2  0
  9  8  1  0
 10  9  1  0
 11 10  2  0
 12 10  1  0
 13 12  1  0
 14 13  1  0
 15 14  1  0
 16 15  1  0
 17 16  1  0
 18 17  1  0
 19 18  1  0
 20 19  1  0
 21 20  1  0
 22 21  1  0
 23 22  1  0
 24 23  2  0
 25 24  1  0
 26 25  2  0
 27 26  1  0
 28 23  1  0
 28 27  2  0
 29 28  1  0
 30 29  1  0
 31 27  1  0
 31 30  1  0
 32 22  1  0
 33 19  1  0
 33 32  1  0
 34 16  1  0
 35 13  1  0
 35 34  1  0
 36  9  2  0
 37  6  2  0
 37 36  1  0
 38  1  1  0
 39  1  1  0
 40  1  1  0
 41  3  1  0
 42  3  1  0
 43  3  1  0
 44  4  1  0
 45  4  1  0
 46  4  1  0
 47  7  1  0
 48  8  1  0
 49 12  1  0
 13 50  1  6
 51 14  1  0
 52 14  1  0
 53 15  1  0
 54 15  1  0
 16 55  1  1
 56 17  1  0
 57 17  1  0
 58 18  1  0
 59 18  1  0
 60 20  1  0
 61 20  1  0
 62 21  1  0
 63 21  1  0
 22 64  1  1
 65 24  1  0
 66 25  1  0
 67 26  1  0
 68 29  1  0
 69 29  1  0
 70 30  1  0
 71 30  1  0
 72 32  1  0
 73 32  1  0
 74 33  1  0
 75 33  1  0
 76 34  1  0
 77 34  1  0
 78 35  1  0
 79 35  1  0
 80 36  1  0
 81 37  1  0
 19 82  1  6
M  CHG  1  19   1
M  END
>  <b_m_subgroup_collapsed>  (1472) 
0

>  <r_i_docking_score>  (1472) 
-5.6171566576875103

>  <s_m_subgroup_title>  (1472) 
glide-dock_SP_D22_pv

>  <s_m_subgroupid>  (1472) 
glide-dock_SP_D22_pv

>  <Molecule ChEMBL ID>  (1472) 
CHEMBL3695441

>  <Standard Type>  (1472) 
Ki

>  <Standard Value>  (1472) 
10000000.0

>  <label>  (1472) 
0

$$$$
CHEMBL76402
     RDKit          3D

 46 47  0  0  1  0  0  0  0  0999 V2000
    8.4952    8.9545  -12.1554 C   0  0  0  0  0  0  0  0  0  0  0  0
    9.5198    8.2270  -11.2705 C   0  0  0  0  0  0  0  0  0  0  0  0
    8.8860    7.2102  -10.3938 N   0  0  2  0  0  0  0  0  0  0  0  0
    9.4842    7.1133   -9.0481 C   0  0  0  0  0  0  0  0  0  0  0  0
    9.0282    5.7676   -8.5035 C   0  0  0  0  0  0  0  0  0  0  0  0
    8.9537    4.8802   -9.7424 C   0  0  0  0  0  0  0  0  0  0  0  0
    8.7916    5.8377  -10.9428 C   0  0  1  0  0  0  0  0  0  0  0  0
    7.4702    5.6257  -11.7006 C   0  0  0  0  0  0  0  0  0  0  0  0
    7.4566    4.3182  -12.3214 N   0  0  0  0  0  0  0  0  0  0  0  0
    6.5333    3.9139  -13.1971 C   0  0  0  0  0  0  0  0  0  0  0  0
    5.5078    4.5488  -13.4469 O   0  0  0  0  0  0  0  0  0  0  0  0
    6.8785    2.6301  -13.9007 C   0  0  0  0  0  0  0  0  0  0  0  0
    6.0041    1.5157  -13.8389 C   0  0  0  0  0  0  0  0  0  0  0  0
    4.8860    1.5264  -13.0469 O   0  0  0  0  0  0  0  0  0  0  0  0
    6.2939    0.3593  -14.5855 C   0  0  0  0  0  0  0  0  0  0  0  0
    5.0622   -1.0895  -14.6469 Br  0  0  0  0  0  0  0  0  0  0  0  0
    7.4851    0.2727  -15.3208 C   0  0  0  0  0  0  0  0  0  0  0  0
    8.4150    1.3366  -15.3298 C   0  0  0  0  0  0  0  0  0  0  0  0
    9.6011    1.2811  -16.0337 O   0  0  0  0  0  0  0  0  0  0  0  0
   10.0419    0.0184  -16.5136 C   0  0  0  0  0  0  0  0  0  0  0  0
    8.0998    2.5266  -14.6247 C   0  0  0  0  0  0  0  0  0  0  0  0
    8.9541    3.6091  -14.6469 O   0  0  0  0  0  0  0  0  0  0  0  0
   10.2789    3.3662  -14.1903 C   0  0  0  0  0  0  0  0  0  0  0  0
    8.9562    9.7723  -12.7049 H   0  0  0  0  0  0  0  0  0  0  0  0
    8.0527    8.3028  -12.9030 H   0  0  0  0  0  0  0  0  0  0  0  0
    7.6860    9.3723  -11.5564 H   0  0  0  0  0  0  0  0  0  0  0  0
   10.0012    8.9723  -10.6385 H   0  0  0  0  0  0  0  0  0  0  0  0
   10.3163    7.7887  -11.8729 H   0  0  0  0  0  0  0  0  0  0  0  0
    9.1759    7.9437   -8.4114 H   0  0  0  0  0  0  0  0  0  0  0  0
   10.5728    7.1260   -9.1266 H   0  0  0  0  0  0  0  0  0  0  0  0
    8.0365    5.8655   -8.0608 H   0  0  0  0  0  0  0  0  0  0  0  0
    9.6957    5.3723   -7.7376 H   0  0  0  0  0  0  0  0  0  0  0  0
    8.1291    4.1723   -9.6511 H   0  0  0  0  0  0  0  0  0  0  0  0
    9.8716    4.3005   -9.8476 H   0  0  0  0  0  0  0  0  0  0  0  0
    9.6263    5.6655  -11.6245 H   0  0  0  0  0  0  0  0  0  0  0  0
    7.3469    6.3629  -12.4890 H   0  0  0  0  0  0  0  0  0  0  0  0
    6.6060    5.7337  -11.0469 H   0  0  0  0  0  0  0  0  0  0  0  0
    8.2459    3.7083  -12.1718 H   0  0  0  0  0  0  0  0  0  0  0  0
    7.6584   -0.6277  -15.8846 H   0  0  0  0  0  0  0  0  0  0  0  0
   11.0515    0.1196  -16.9118 H   0  0  0  0  0  0  0  0  0  0  0  0
   10.0775   -0.7246  -15.7150 H   0  0  0  0  0  0  0  0  0  0  0  0
    9.4051   -0.3466  -17.3201 H   0  0  0  0  0  0  0  0  0  0  0  0
   10.6667    4.2709  -13.7224 H   0  0  0  0  0  0  0  0  0  0  0  0
   10.3221    2.5685  -13.4469 H   0  0  0  0  0  0  0  0  0  0  0  0
   10.9435    3.1169  -15.0172 H   0  0  0  0  0  0  0  0  0  0  0  0
    7.9070    7.4998  -10.2469 H   0  0  0  0  0  0  0  0  0  0  0  0
  2  1  1  0
  3  2  1  0
  4  3  1  0
  5  4  1  0
  6  5  1  0
  7  3  1  0
  7  6  1  0
  8  7  1  0
  9  8  1  0
 10  9  1  0
 11 10  2  0
 12 10  1  0
 13 12  2  0
 14 13  1  0
 15 13  1  0
 16 15  1  0
 17 15  2  0
 18 17  1  0
 19 18  1  0
 20 19  1  0
 21 12  1  0
 21 18  2  0
 22 21  1  0
 23 22  1  0
 24  1  1  0
 25  1  1  0
 26  1  1  0
 27  2  1  0
 28  2  1  0
 29  4  1  0
 30  4  1  0
 31  5  1  0
 32  5  1  0
 33  6  1  0
 34  6  1  0
  7 35  1  6
 36  8  1  0
 37  8  1  0
 38  9  1  0
 39 17  1  0
 40 20  1  0
 41 20  1  0
 42 20  1  0
 43 23  1  0
 44 23  1  0
 45 23  1  0
  3 46  1  1
M  CHG  2   3   1  14  -1
M  END
>  <b_m_subgroup_collapsed>  (1473) 
0

>  <r_i_docking_score>  (1473) 
-5.6116251569901099

>  <s_m_subgroup_title>  (1473) 
glide-dock_SP_D22_pv

>  <s_m_subgroupid>  (1473) 
glide-dock_SP_D22_pv

>  <Molecule ChEMBL ID>  (1473) 
CHEMBL76402

>  <Standard Type>  (1473) 
Ki

>  <Standard Value>  (1473) 
0.65

>  <label>  (1473) 
1

$$$$
CHEMBL4441060
     RDKit          3D

 39 42  0  0  1  0  0  0  0  0999 V2000
    5.2623    0.7841  -13.8133 N   0  0  0  0  0  0  0  0  0  0  0  0
    5.6861    1.9958  -13.4532 C   0  0  0  0  0  0  0  0  0  0  0  0
    5.0453    2.8426  -12.6469 N   0  0  0  0  0  0  0  0  0  0  0  0
    5.8107    3.9621  -12.4459 C   0  0  0  0  0  0  0  0  0  0  0  0
    6.9553    3.7694  -13.1801 C   0  0  0  0  0  0  0  0  0  0  0  0
    8.1449    4.6054  -13.0824 C   0  0  0  0  0  0  0  0  0  0  0  0
    8.2691    5.7670  -12.3689 C   0  0  0  0  0  0  0  0  0  0  0  0
    9.5898    6.1824  -12.3389 N   0  0  0  0  0  0  0  0  0  0  0  0
   10.1033    7.5719  -11.4472 S   0  0  0  0  0  0  0  0  0  0  0  0
    9.1063    8.6055  -11.7608 O   0  0  0  0  0  0  0  0  0  0  0  0
   11.5233    7.7710  -11.7730 O   0  0  0  0  0  0  0  0  0  0  0  0
   10.0087    7.1688   -9.6997 C   0  0  0  0  0  0  0  0  0  0  0  0
    8.9539    6.3995   -9.1653 C   0  0  0  0  0  0  0  0  0  0  0  0
    8.8862    6.1737   -7.7785 C   0  0  0  0  0  0  0  0  0  0  0  0
    9.8708    6.7084   -6.9249 C   0  0  0  0  0  0  0  0  0  0  0  0
   10.9321    7.4639   -7.4589 C   0  0  0  0  0  0  0  0  0  0  0  0
   11.0011    7.6969   -8.8464 C   0  0  0  0  0  0  0  0  0  0  0  0
   10.3409    5.3769  -13.1912 C   0  0  0  0  0  0  0  0  0  0  0  0
   11.6853    5.4086  -13.6214 C   0  0  0  0  0  0  0  0  0  0  0  0
   12.1646    4.4300  -14.5068 C   0  0  0  0  0  0  0  0  0  0  0  0
   11.3083    3.4099  -14.9510 C   0  0  0  0  0  0  0  0  0  0  0  0
    9.9681    3.3782  -14.5271 C   0  0  0  0  0  0  0  0  0  0  0  0
    9.4425    4.3665  -13.6569 C   0  0  0  0  0  0  0  0  0  0  0  0
    6.8205    2.5778  -13.8466 N   0  0  0  0  0  0  0  0  0  0  0  0
    5.7813    0.1875  -14.4442 H   0  0  0  0  0  0  0  0  0  0  0  0
    4.3524    0.4277  -13.5580 H   0  0  0  0  0  0  0  0  0  0  0  0
    5.5222    4.7543  -11.7670 H   0  0  0  0  0  0  0  0  0  0  0  0
    7.5175    6.3206  -11.8183 H   0  0  0  0  0  0  0  0  0  0  0  0
    8.1617    6.0148   -9.7840 H   0  0  0  0  0  0  0  0  0  0  0  0
    8.0566    5.6172   -7.3704 H   0  0  0  0  0  0  0  0  0  0  0  0
    9.8069    6.5429   -5.8592 H   0  0  0  0  0  0  0  0  0  0  0  0
   11.6849    7.8749   -6.8031 H   0  0  0  0  0  0  0  0  0  0  0  0
   11.8040    8.2960   -9.2506 H   0  0  0  0  0  0  0  0  0  0  0  0
   12.3693    6.1737  -13.2887 H   0  0  0  0  0  0  0  0  0  0  0  0
   13.1927    4.4573  -14.8388 H   0  0  0  0  0  0  0  0  0  0  0  0
   11.6855    2.6524  -15.6232 H   0  0  0  0  0  0  0  0  0  0  0  0
    9.3399    2.5853  -14.8961 H   0  0  0  0  0  0  0  0  0  0  0  0
    7.5140    2.1514  -14.4451 H   0  0  0  0  0  0  0  0  0  0  0  0
    4.1485    2.6632  -12.2155 H   0  0  0  0  0  0  0  0  0  0  0  0
  2  1  1  0
  3  2  2  0
  4  3  1  0
  5  4  2  0
  6  5  1  0
  7  6  2  0
  8  7  1  0
  9  8  1  0
 10  9  2  0
 11  9  2  0
 12  9  1  0
 13 12  2  0
 14 13  1  0
 15 14  2  0
 16 15  1  0
 17 12  1  0
 17 16  2  0
 18  8  1  0
 19 18  2  0
 20 19  1  0
 21 20  2  0
 22 21  1  0
 23  6  1  0
 23 18  1  0
 23 22  2  0
 24  2  1  0
 24  5  1  0
 25  1  1  0
 26  1  1  0
 27  4  1  0
 28  7  1  0
 29 13  1  0
 30 14  1  0
 31 15  1  0
 32 16  1  0
 33 17  1  0
 34 19  1  0
 35 20  1  0
 36 21  1  0
 37 22  1  0
 38 24  1  0
 39  3  1  0
M  CHG  1   3   1
M  END
>  <b_m_subgroup_collapsed>  (1474) 
0

>  <r_i_docking_score>  (1474) 
-5.6039022533685303

>  <s_m_subgroup_title>  (1474) 
glide-dock_SP_D22_pv

>  <s_m_subgroupid>  (1474) 
glide-dock_SP_D22_pv

>  <Molecule ChEMBL ID>  (1474) 
CHEMBL4441060

>  <Standard Type>  (1474) 
Ki

>  <Standard Value>  (1474) 
87.0

>  <label>  (1474) 
1

$$$$
CHEMBL433376
     RDKit          3D

 32 34  0  0  1  0  0  0  0  0999 V2000
   11.6916    3.2573  -15.7721 C   0  0  0  0  0  0  0  0  0  0  0  0
   10.3103    2.7319  -15.5716 C   0  0  0  0  0  0  0  0  0  0  0  0
    9.8738    1.8582  -16.5228 O   0  0  0  0  0  0  0  0  0  0  0  0
    8.6006    1.5045  -16.1977 C   0  0  0  0  0  0  0  0  0  0  0  0
    7.9184    0.6178  -17.1863 C   0  0  0  0  0  0  0  0  0  0  0  0
    8.2594    2.1122  -15.0178 C   0  0  0  0  0  0  0  0  0  0  0  0
    9.3348    2.9578  -14.6373 C   0  0  0  0  0  0  0  0  0  0  0  0
    9.3320    3.9209  -13.4803 C   0  0  0  0  0  0  0  0  0  0  0  0
    8.1547    4.9061  -13.6054 C   0  0  0  0  0  0  0  0  0  0  0  0
    6.7815    4.3946  -13.1096 C   0  0  0  0  0  0  0  0  0  0  0  0
    6.4035    2.9693  -13.4617 C   0  0  0  0  0  0  0  0  0  0  0  0
    5.2861    2.2710  -12.9251 C   0  0  0  0  0  0  0  0  0  0  0  0
    5.2457    1.0019  -13.2769 N   0  0  0  0  0  0  0  0  0  0  0  0
    6.3257    0.8332  -14.0623 N   0  0  0  0  0  0  0  0  0  0  0  0
    6.6227   -0.5150  -14.5030 C   0  0  0  0  0  0  0  0  0  0  0  0
    7.0203    2.0244  -14.2468 C   0  0  0  0  0  0  0  0  0  0  0  0
   12.0663    3.7487  -14.8729 H   0  0  0  0  0  0  0  0  0  0  0  0
   11.7143    3.9801  -16.5903 H   0  0  0  0  0  0  0  0  0  0  0  0
   12.3806    2.4472  -16.0193 H   0  0  0  0  0  0  0  0  0  0  0  0
    6.8379    0.7587  -17.1565 H   0  0  0  0  0  0  0  0  0  0  0  0
    8.1396   -0.4311  -16.9896 H   0  0  0  0  0  0  0  0  0  0  0  0
    8.2531    0.8423  -18.1995 H   0  0  0  0  0  0  0  0  0  0  0  0
    9.2923    3.3738  -12.5376 H   0  0  0  0  0  0  0  0  0  0  0  0
   10.2721    4.4726  -13.4832 H   0  0  0  0  0  0  0  0  0  0  0  0
    8.3889    5.8089  -13.0404 H   0  0  0  0  0  0  0  0  0  0  0  0
    8.0862    5.2295  -14.6448 H   0  0  0  0  0  0  0  0  0  0  0  0
    6.7778    4.4939  -12.0232 H   0  0  0  0  0  0  0  0  0  0  0  0
    6.0096    5.0850  -13.4470 H   0  0  0  0  0  0  0  0  0  0  0  0
    4.5304    2.6344  -12.2471 H   0  0  0  0  0  0  0  0  0  0  0  0
    7.6959   -0.6288  -14.6449 H   0  0  0  0  0  0  0  0  0  0  0  0
    6.0995   -0.7279  -15.4348 H   0  0  0  0  0  0  0  0  0  0  0  0
    6.3059   -1.2394  -13.7514 H   0  0  0  0  0  0  0  0  0  0  0  0
  2  1  1  0
  3  2  1  0
  4  3  1  0
  5  4  1  0
  6  4  2  0
  7  2  2  0
  7  6  1  0
  8  7  1  0
  9  8  1  0
 10  9  1  0
 11 10  1  0
 12 11  1  0
 13 12  2  0
 14 13  1  0
 15 14  1  0
 16  6  1  0
 16 11  2  0
 16 14  1  0
 17  1  1  0
 18  1  1  0
 19  1  1  0
 20  5  1  0
 21  5  1  0
 22  5  1  0
 23  8  1  0
 24  8  1  0
 25  9  1  0
 26  9  1  0
 27 10  1  0
 28 10  1  0
 29 12  1  0
 30 15  1  0
 31 15  1  0
 32 15  1  0
M  END
>  <b_m_subgroup_collapsed>  (1475) 
0

>  <r_i_docking_score>  (1475) 
-5.6033105142302801

>  <s_m_subgroup_title>  (1475) 
glide-dock_SP_D22_pv

>  <s_m_subgroupid>  (1475) 
glide-dock_SP_D22_pv

>  <Molecule ChEMBL ID>  (1475) 
CHEMBL433376

>  <Standard Type>  (1475) 
Ki

>  <Standard Value>  (1475) 
28.0

>  <label>  (1475) 
1

$$$$
CHEMBL98331
     RDKit          3D

 28 30  0  0  1  0  0  0  0  0999 V2000
    6.3992    5.5272  -12.5378 C   0  0  0  0  0  0  0  0  0  0  0  0
    6.6405    4.1809  -13.1492 C   0  0  0  0  0  0  0  0  0  0  0  0
    5.4186    2.9520  -12.9789 S   0  0  0  0  0  0  0  0  0  0  0  0
    6.3714    1.7872  -13.8468 C   0  0  0  0  0  0  0  0  0  0  0  0
    5.8527    0.3895  -13.9888 C   0  0  0  0  0  0  0  0  0  0  0  0
    7.5605    2.3567  -14.2469 C   0  0  0  0  0  0  0  0  0  0  0  0
    7.7443    3.7294  -13.8400 C   0  0  0  0  0  0  0  0  0  0  0  0
    8.9337    4.6462  -14.0444 C   0  0  0  0  0  0  0  0  0  0  0  0
   10.2241    4.0632  -14.6421 C   0  0  0  0  0  0  0  0  0  0  0  0
   10.5826    2.6737  -14.1102 C   0  0  0  0  0  0  0  0  0  0  0  0
    9.8693    1.6312  -14.8936 C   0  0  0  0  0  0  0  0  0  0  0  0
   10.4863    0.7503  -15.6896 N   0  0  0  0  0  0  0  0  0  0  0  0
    9.4811    0.0552  -16.3188 N   0  0  0  0  0  0  0  0  0  0  0  0
    8.3573    0.5908  -15.8426 C   0  0  0  0  0  0  0  0  0  0  0  0
    8.5248    1.5755  -14.9399 N   0  0  0  0  0  0  0  0  0  0  0  0
    7.1512    6.2589  -12.8281 H   0  0  0  0  0  0  0  0  0  0  0  0
    6.4051    5.4655  -11.4482 H   0  0  0  0  0  0  0  0  0  0  0  0
    5.4290    5.9199  -12.8436 H   0  0  0  0  0  0  0  0  0  0  0  0
    6.6443   -0.3466  -13.8409 H   0  0  0  0  0  0  0  0  0  0  0  0
    5.4097    0.2327  -14.9736 H   0  0  0  0  0  0  0  0  0  0  0  0
    5.0816    0.1836  -13.2455 H   0  0  0  0  0  0  0  0  0  0  0  0
    8.6317    5.5013  -14.6485 H   0  0  0  0  0  0  0  0  0  0  0  0
    9.2026    5.0649  -13.0748 H   0  0  0  0  0  0  0  0  0  0  0  0
   10.1535    4.0291  -15.7303 H   0  0  0  0  0  0  0  0  0  0  0  0
   11.0366    4.7556  -14.4247 H   0  0  0  0  0  0  0  0  0  0  0  0
   11.6568    2.5073  -14.2100 H   0  0  0  0  0  0  0  0  0  0  0  0
   10.3435    2.5776  -13.0523 H   0  0  0  0  0  0  0  0  0  0  0  0
    7.3906    0.2560  -16.1858 H   0  0  0  0  0  0  0  0  0  0  0  0
  2  1  1  0
  3  2  1  0
  4  3  1  0
  5  4  1  0
  6  4  2  0
  7  2  2  0
  7  6  1  0
  8  7  1  0
  9  8  1  0
 10  9  1  0
 11 10  1  0
 12 11  2  0
 13 12  1  0
 14 13  2  0
 15  6  1  0
 15 11  1  0
 15 14  1  0
 16  1  1  0
 17  1  1  0
 18  1  1  0
 19  5  1  0
 20  5  1  0
 21  5  1  0
 22  8  1  0
 23  8  1  0
 24  9  1  0
 25  9  1  0
 26 10  1  0
 27 10  1  0
 28 14  1  0
M  END
>  <b_m_subgroup_collapsed>  (1476) 
0

>  <r_i_docking_score>  (1476) 
-5.5954680971365898

>  <s_m_subgroup_title>  (1476) 
glide-dock_SP_D22_pv

>  <s_m_subgroupid>  (1476) 
glide-dock_SP_D22_pv

>  <Molecule ChEMBL ID>  (1476) 
CHEMBL98331

>  <Standard Type>  (1476) 
Ki

>  <Standard Value>  (1476) 
10000.0

>  <label>  (1476) 
0

$$$$
CHEMBL65274
     RDKit          3D

 52 54  0  0  1  0  0  0  0  0999 V2000
    8.4859    4.5715   -8.6007 C   0  0  0  0  0  0  0  0  0  0  0  0
    9.7969    5.0975   -9.1825 C   0  0  0  0  0  0  0  0  0  0  0  0
    9.5828    6.1788  -10.2596 C   0  0  0  0  0  0  0  0  0  0  0  0
    8.8065    5.7039  -11.4435 N   0  0  0  0  0  0  0  0  0  0  0  0
    8.0851    6.8172  -12.1299 C   0  0  0  0  0  0  0  0  0  0  0  0
    6.5999    6.5270  -12.4190 C   0  0  0  0  0  0  0  0  0  0  0  0
    5.9278    7.7958  -12.9648 C   0  0  0  0  0  0  0  0  0  0  0  0
    9.5670    4.7709  -12.3466 C   0  0  2  0  0  0  0  0  0  0  0  0
   10.6423    5.4397  -13.2300 C   0  0  0  0  0  0  0  0  0  0  0  0
   11.4367    4.4163  -14.0531 C   0  0  0  0  0  0  0  0  0  0  0  0
   10.6008    3.2901  -14.6486 C   0  0  0  0  0  0  0  0  0  0  0  0
   11.1985    2.4934  -15.6411 C   0  0  0  0  0  0  0  0  0  0  0  0
   10.4873    1.4289  -16.2071 C   0  0  0  0  0  0  0  0  0  0  0  0
    9.1839    1.1556  -15.7648 C   0  0  0  0  0  0  0  0  0  0  0  0
    8.3035    0.1725  -16.1421 N   0  0  0  0  0  0  0  0  0  0  0  0
    7.1500    0.2345  -15.3946 C   0  0  0  0  0  0  0  0  0  0  0  0
    7.2068    1.3123  -14.5491 C   0  0  0  0  0  0  0  0  0  0  0  0
    6.0860    1.5317  -13.6322 C   0  0  0  0  0  0  0  0  0  0  0  0
    5.5761    2.9564  -13.4461 C   0  0  0  0  0  0  0  0  0  0  0  0
    5.4776    0.6310  -13.0531 O   0  0  0  0  0  0  0  0  0  0  0  0
    8.5215    1.9256  -14.7550 C   0  0  0  0  0  0  0  0  0  0  0  0
    9.2725    3.0188  -14.2200 C   0  0  0  0  0  0  0  0  0  0  0  0
    8.6162    3.9449  -13.2204 C   0  0  0  0  0  0  0  0  0  0  0  0
    8.6697    3.8023   -7.8519 H   0  0  0  0  0  0  0  0  0  0  0  0
    7.9122    5.3706   -8.1283 H   0  0  0  0  0  0  0  0  0  0  0  0
    7.8690    4.1243   -9.3775 H   0  0  0  0  0  0  0  0  0  0  0  0
   10.3856    4.2603   -9.5499 H   0  0  0  0  0  0  0  0  0  0  0  0
   10.3868    5.5259   -8.3707 H   0  0  0  0  0  0  0  0  0  0  0  0
   10.5368    6.6000  -10.5757 H   0  0  0  0  0  0  0  0  0  0  0  0
    9.0462    6.9916   -9.7672 H   0  0  0  0  0  0  0  0  0  0  0  0
    8.1052    7.7177  -11.5177 H   0  0  0  0  0  0  0  0  0  0  0  0
    8.5728    7.1157  -13.0468 H   0  0  0  0  0  0  0  0  0  0  0  0
    6.4534    5.7323  -13.1387 H   0  0  0  0  0  0  0  0  0  0  0  0
    6.0932    6.1719  -11.5188 H   0  0  0  0  0  0  0  0  0  0  0  0
    4.8866    7.6396  -13.2128 H   0  0  0  0  0  0  0  0  0  0  0  0
    5.9504    8.6107  -12.2469 H   0  0  0  0  0  0  0  0  0  0  0  0
    6.4371    8.1723  -13.8468 H   0  0  0  0  0  0  0  0  0  0  0  0
   10.0819    4.0479  -11.7154 H   0  0  0  0  0  0  0  0  0  0  0  0
   10.1732    6.1031  -13.9493 H   0  0  0  0  0  0  0  0  0  0  0  0
   11.3275    6.0552  -12.6484 H   0  0  0  0  0  0  0  0  0  0  0  0
   12.2117    3.9588  -13.4417 H   0  0  0  0  0  0  0  0  0  0  0  0
   11.9634    4.9334  -14.8564 H   0  0  0  0  0  0  0  0  0  0  0  0
   12.2095    2.6919  -15.9668 H   0  0  0  0  0  0  0  0  0  0  0  0
   10.9477    0.8155  -16.9667 H   0  0  0  0  0  0  0  0  0  0  0  0
    8.4761   -0.5608  -16.8151 H   0  0  0  0  0  0  0  0  0  0  0  0
    6.3703   -0.5040  -15.5260 H   0  0  0  0  0  0  0  0  0  0  0  0
    5.8842    3.3586  -12.4820 H   0  0  0  0  0  0  0  0  0  0  0  0
    5.9222    3.6091  -14.2475 H   0  0  0  0  0  0  0  0  0  0  0  0
    4.4866    2.9545  -13.4468 H   0  0  0  0  0  0  0  0  0  0  0  0
    8.0108    4.5965  -13.8418 H   0  0  0  0  0  0  0  0  0  0  0  0
    7.9694    3.3739  -12.5693 H   0  0  0  0  0  0  0  0  0  0  0  0
    8.0656    5.1580  -11.0251 H   0  0  0  0  0  0  0  0  0  0  0  0
  2  1  1  0
  3  2  1  0
  4  3  1  0
  5  4  1  0
  6  5  1  0
  7  6  1  0
  8  4  1  0
  9  8  1  0
 10  9  1  0
 11 10  1  0
 12 11  2  0
 13 12  1  0
 14 13  2  0
 15 14  1  0
 16 15  1  0
 17 16  2  0
 18 17  1  0
 19 18  1  0
 20 18  2  0
 21 14  1  0
 21 17  1  0
 22 11  1  0
 22 21  2  0
 23  8  1  0
 23 22  1  0
 24  1  1  0
 25  1  1  0
 26  1  1  0
 27  2  1  0
 28  2  1  0
 29  3  1  0
 30  3  1  0
 31  5  1  0
 32  5  1  0
 33  6  1  0
 34  6  1  0
 35  7  1  0
 36  7  1  0
 37  7  1  0
  8 38  1  1
 39  9  1  0
 40  9  1  0
 41 10  1  0
 42 10  1  0
 43 12  1  0
 44 13  1  0
 45 15  1  0
 46 16  1  0
 47 19  1  0
 48 19  1  0
 49 19  1  0
 50 23  1  0
 51 23  1  0
 52  4  1  0
M  CHG  1   4   1
M  END
>  <b_m_subgroup_collapsed>  (1477) 
0

>  <r_i_docking_score>  (1477) 
-5.5894951999761204

>  <s_m_subgroup_title>  (1477) 
glide-dock_SP_D22_pv

>  <s_m_subgroupid>  (1477) 
glide-dock_SP_D22_pv

>  <Molecule ChEMBL ID>  (1477) 
CHEMBL65274

>  <Standard Type>  (1477) 
Ki

>  <Standard Value>  (1477) 
17.0

>  <label>  (1477) 
1

$$$$
CHEMBL485017
     RDKit          3D

 43 46  0  0  1  0  0  0  0  0999 V2000
   11.1533    8.8846   -7.2563 C   0  0  0  0  0  0  0  0  0  0  0  0
   10.8466    7.8202   -8.3173 C   0  0  0  0  0  0  0  0  0  0  0  0
    9.5192    8.0946   -9.0609 C   0  0  0  0  0  0  0  0  0  0  0  0
    9.0946    7.0021   -9.9797 N   0  0  2  0  0  0  0  0  0  0  0  0
    8.6604    5.7854   -9.2496 C   0  0  0  0  0  0  0  0  0  0  0  0
    8.0780    4.7833  -10.2468 C   0  0  0  0  0  0  0  0  0  0  0  0
    9.0623    4.4372  -11.2031 O   0  0  0  0  0  0  0  0  0  0  0  0
    9.4267    5.5521  -11.9934 C   0  0  2  0  0  0  0  0  0  0  0  0
   10.3517    5.1252  -13.1262 C   0  0  0  0  0  0  0  0  0  0  0  0
   10.1382    3.8858  -13.7677 C   0  0  0  0  0  0  0  0  0  0  0  0
   10.9653    3.4455  -14.8286 C   0  0  0  0  0  0  0  0  0  0  0  0
   10.7448    2.1340  -15.4887 C   0  0  0  0  0  0  0  0  0  0  0  0
   11.2867    1.8235  -16.6743 N   0  0  0  0  0  0  0  0  0  0  0  0
   10.8541    0.5712  -16.8807 N   0  0  0  0  0  0  0  0  0  0  0  0
   10.0852    0.1765  -15.8517 N   0  0  0  0  0  0  0  0  0  0  0  0
    9.9908    1.1643  -14.9511 N   0  0  0  0  0  0  0  0  0  0  0  0
   12.0194    4.2965  -15.2335 C   0  0  0  0  0  0  0  0  0  0  0  0
   12.2340    5.5391  -14.6135 C   0  0  0  0  0  0  0  0  0  0  0  0
   11.4018    5.9631  -13.5613 C   0  0  0  0  0  0  0  0  0  0  0  0
   11.6722    7.3085  -12.9046 C   0  0  0  0  0  0  0  0  0  0  0  0
   10.5822    7.7730  -11.9142 C   0  0  0  0  0  0  0  0  0  0  0  0
   10.0509    6.6176  -11.0603 C   0  0  1  0  0  0  0  0  0  0  0  0
   12.0716    8.6410   -6.7185 H   0  0  0  0  0  0  0  0  0  0  0  0
   10.3413    8.9555   -6.5279 H   0  0  0  0  0  0  0  0  0  0  0  0
   11.2860    9.8643   -7.7130 H   0  0  0  0  0  0  0  0  0  0  0  0
   11.6758    7.7774   -9.0239 H   0  0  0  0  0  0  0  0  0  0  0  0
   10.8175    6.8494   -7.8224 H   0  0  0  0  0  0  0  0  0  0  0  0
    8.7215    8.2500   -8.3315 H   0  0  0  0  0  0  0  0  0  0  0  0
    9.5855    9.0313   -9.6150 H   0  0  0  0  0  0  0  0  0  0  0  0
    9.4942    5.3219   -8.7210 H   0  0  0  0  0  0  0  0  0  0  0  0
    7.9080    6.0411   -8.5027 H   0  0  0  0  0  0  0  0  0  0  0  0
    7.6873    3.8996   -9.7358 H   0  0  0  0  0  0  0  0  0  0  0  0
    7.2254    5.2274  -10.7634 H   0  0  0  0  0  0  0  0  0  0  0  0
    8.5363    5.9649  -12.4741 H   0  0  0  0  0  0  0  0  0  0  0  0
    9.3270    3.2537  -13.4364 H   0  0  0  0  0  0  0  0  0  0  0  0
   12.6793    3.9916  -16.0315 H   0  0  0  0  0  0  0  0  0  0  0  0
   13.0525    6.1651  -14.9415 H   0  0  0  0  0  0  0  0  0  0  0  0
   12.6242    7.2283  -12.3765 H   0  0  0  0  0  0  0  0  0  0  0  0
   11.8237    8.0481  -13.6938 H   0  0  0  0  0  0  0  0  0  0  0  0
   10.9932    8.5716  -11.3006 H   0  0  0  0  0  0  0  0  0  0  0  0
    9.7504    8.2084  -12.4690 H   0  0  0  0  0  0  0  0  0  0  0  0
   10.8864    6.1730  -10.5367 H   0  0  0  0  0  0  0  0  0  0  0  0
    8.2421    7.3551  -10.4138 H   0  0  0  0  0  0  0  0  0  0  0  0
  2  1  1  0
  3  2  1  0
  4  3  1  0
  5  4  1  0
  6  5  1  0
  7  6  1  0
  8  7  1  0
  9  8  1  0
 10  9  1  0
 11 10  2  0
 12 11  1  0
 13 12  2  0
 14 13  1  0
 15 14  2  0
 16 12  1  0
 16 15  1  0
 17 11  1  0
 18 17  2  0
 19  9  2  0
 19 18  1  0
 20 19  1  0
 21 20  1  0
 22  4  1  0
 22  8  1  0
 22 21  1  0
 23  1  1  0
 24  1  1  0
 25  1  1  0
 26  2  1  0
 27  2  1  0
 28  3  1  0
 29  3  1  0
 30  5  1  0
 31  5  1  0
 32  6  1  0
 33  6  1  0
  8 34  1  6
 35 10  1  0
 36 17  1  0
 37 18  1  0
 38 20  1  0
 39 20  1  0
 40 21  1  0
 41 21  1  0
 22 42  1  1
  4 43  1  6
M  CHG  2   4   1  16  -1
M  END
>  <b_m_subgroup_collapsed>  (1478) 
0

>  <r_i_docking_score>  (1478) 
-5.5893917972727998

>  <s_m_subgroup_title>  (1478) 
glide-dock_SP_D22_pv

>  <s_m_subgroupid>  (1478) 
glide-dock_SP_D22_pv

>  <Molecule ChEMBL ID>  (1478) 
CHEMBL485017

>  <Standard Type>  (1478) 
Ki

>  <Standard Value>  (1478) 
10000.0

>  <label>  (1478) 
0

$$$$
CHEMBL317597
     RDKit          3D

 29 31  0  0  1  0  0  0  0  0999 V2000
    7.4095    0.3966  -14.4062 C   0  0  0  0  0  0  0  0  0  0  0  0
    8.5752    1.1899  -14.7571 N   0  0  0  0  0  0  0  0  0  0  0  0
    9.5621    0.5576  -15.4240 N   0  0  0  0  0  0  0  0  0  0  0  0
   10.5097    1.4636  -15.5471 C   0  0  0  0  0  0  0  0  0  0  0  0
   10.1723    2.7154  -14.9635 C   0  0  0  0  0  0  0  0  0  0  0  0
    8.8945    2.5212  -14.4930 C   0  0  0  0  0  0  0  0  0  0  0  0
    7.9873    3.4373  -13.7755 C   0  0  0  0  0  0  0  0  0  0  0  0
    6.5833    3.3556  -13.9399 C   0  0  0  0  0  0  0  0  0  0  0  0
    5.7016    4.1726  -13.2087 C   0  0  0  0  0  0  0  0  0  0  0  0
    6.2148    5.1193  -12.3077 C   0  0  0  0  0  0  0  0  0  0  0  0
    7.6045    5.2496  -12.1563 C   0  0  0  0  0  0  0  0  0  0  0  0
    8.4891    4.4225  -12.8826 C   0  0  0  0  0  0  0  0  0  0  0  0
    9.9802    4.6351  -12.7010 C   0  0  0  0  0  0  0  0  0  0  0  0
   10.6482    5.0668  -14.0138 C   0  0  0  0  0  0  0  0  0  0  0  0
   11.1098    3.8995  -14.8999 C   0  0  0  0  0  0  0  0  0  0  0  0
    7.0036    0.7115  -13.4466 H   0  0  0  0  0  0  0  0  0  0  0  0
    7.6856   -0.6518  -14.3214 H   0  0  0  0  0  0  0  0  0  0  0  0
    6.6489    0.4897  -15.1806 H   0  0  0  0  0  0  0  0  0  0  0  0
   11.4319    1.1762  -16.0315 H   0  0  0  0  0  0  0  0  0  0  0  0
    6.1536    2.6603  -14.6416 H   0  0  0  0  0  0  0  0  0  0  0  0
    4.6342    4.0812  -13.3452 H   0  0  0  0  0  0  0  0  0  0  0  0
    5.5531    5.7563  -11.7382 H   0  0  0  0  0  0  0  0  0  0  0  0
    7.9804    5.9995  -11.4747 H   0  0  0  0  0  0  0  0  0  0  0  0
   10.1348    5.4116  -11.9514 H   0  0  0  0  0  0  0  0  0  0  0  0
   10.4409    3.7340  -12.2976 H   0  0  0  0  0  0  0  0  0  0  0  0
    9.9670    5.7143  -14.5670 H   0  0  0  0  0  0  0  0  0  0  0  0
   11.5206    5.6819  -13.7900 H   0  0  0  0  0  0  0  0  0  0  0  0
   12.0734    3.5598  -14.5161 H   0  0  0  0  0  0  0  0  0  0  0  0
   11.3220    4.2785  -15.9009 H   0  0  0  0  0  0  0  0  0  0  0  0
  2  1  1  0
  3  2  1  0
  4  3  2  0
  5  4  1  0
  6  2  1  0
  6  5  2  0
  7  6  1  0
  8  7  2  0
  9  8  1  0
 10  9  2  0
 11 10  1  0
 12  7  1  0
 12 11  2  0
 13 12  1  0
 14 13  1  0
 15  5  1  0
 15 14  1  0
 16  1  1  0
 17  1  1  0
 18  1  1  0
 19  4  1  0
 20  8  1  0
 21  9  1  0
 22 10  1  0
 23 11  1  0
 24 13  1  0
 25 13  1  0
 26 14  1  0
 27 14  1  0
 28 15  1  0
 29 15  1  0
M  END
>  <b_m_subgroup_collapsed>  (1479) 
0

>  <r_i_docking_score>  (1479) 
-5.5875472301446996

>  <s_m_subgroup_title>  (1479) 
glide-dock_SP_D22_pv

>  <s_m_subgroupid>  (1479) 
glide-dock_SP_D22_pv

>  <Molecule ChEMBL ID>  (1479) 
CHEMBL317597

>  <Standard Type>  (1479) 
Ki

>  <Standard Value>  (1479) 
10000.0

>  <label>  (1479) 
0

$$$$
CHEMBL5751862
     RDKit          3D

 86 89  0  0  1  0  0  0  0  0999 V2000
    6.7316    1.9079  -21.6201 C   0  0  0  0  0  0  0  0  0  0  0  0
    6.0020    0.6607  -21.0607 C   0  0  0  0  0  0  0  0  0  0  0  0
    5.4512   -0.0905  -22.2926 C   0  0  0  0  0  0  0  0  0  0  0  0
    4.8444    1.1058  -20.1414 C   0  0  0  0  0  0  0  0  0  0  0  0
    6.9598   -0.2486  -20.2697 C   0  0  0  0  0  0  0  0  0  0  0  0
    8.1145    0.2717  -19.8436 N   0  0  0  0  0  0  0  0  0  0  0  0
    8.9432   -0.5127  -19.1204 C   0  0  0  0  0  0  0  0  0  0  0  0
   10.2107   -0.0154  -18.7552 N   0  0  0  0  0  0  0  0  0  0  0  0
   10.6545    1.2836  -19.2600 C   0  0  0  0  0  0  0  0  0  0  0  0
   10.2355    2.4094  -18.2939 C   0  0  0  0  0  0  0  0  0  0  0  0
   10.8226    2.1674  -16.9682 N   0  0  0  0  0  0  0  0  0  0  0  0
   10.4993    3.2460  -16.0310 C   0  0  0  0  0  0  0  0  0  0  0  0
   11.3089    4.5245  -16.3315 C   0  0  0  0  0  0  0  0  0  0  0  0
   11.0809    5.6471  -15.3065 C   0  0  0  0  0  0  0  0  0  0  0  0
   11.7938    5.4166  -13.9657 C   0  0  0  0  0  0  0  0  0  0  0  0
   11.5923    6.5345  -13.0463 N   0  0  0  0  0  0  0  0  0  0  0  0
   10.5190    6.6903  -12.2467 C   0  0  0  0  0  0  0  0  0  0  0  0
    9.5339    5.9571  -12.3288 O   0  0  0  0  0  0  0  0  0  0  0  0
   10.5941    7.7605  -11.4169 N   0  0  0  0  0  0  0  0  0  0  0  0
    9.3978    8.2984  -10.7568 C   0  0  0  0  0  0  0  0  0  0  0  0
    9.4414    7.9984   -9.2496 C   0  0  0  0  0  0  0  0  0  0  0  0
   10.7363    8.5619   -8.6286 C   0  0  0  0  0  0  0  0  0  0  0  0
   10.7887    8.3402   -7.1555 N   0  0  0  0  0  0  0  0  0  0  0  0
   11.0656    6.9388   -6.7331 C   0  0  0  0  0  0  0  0  0  0  0  0
   10.8315    6.7887   -5.2250 C   0  0  0  0  0  0  0  0  0  0  0  0
   11.6707    7.7819   -4.4071 C   0  0  0  0  0  0  0  0  0  0  0  0
   11.4776    9.2147   -4.9186 C   0  0  0  0  0  0  0  0  0  0  0  0
   11.6615    9.3107   -6.4423 C   0  0  0  0  0  0  0  0  0  0  0  0
   11.9752    8.0466   -9.3908 C   0  0  0  0  0  0  0  0  0  0  0  0
   11.8490    8.3330  -10.8924 C   0  0  0  0  0  0  0  0  0  0  0  0
   10.2917    0.8961  -16.4595 C   0  0  0  0  0  0  0  0  0  0  0  0
   10.6985   -0.2576  -17.3998 C   0  0  0  0  0  0  0  0  0  0  0  0
    8.5644   -1.8261  -18.7859 C   0  0  0  0  0  0  0  0  0  0  0  0
    7.3085   -2.2715  -19.2416 C   0  0  0  0  0  0  0  0  0  0  0  0
    6.8098   -3.6879  -18.9761 C   0  0  0  0  0  0  0  0  0  0  0  0
    7.6843   -4.3848  -18.2424 F   0  0  0  0  0  0  0  0  0  0  0  0
    5.6372   -3.6578  -18.3315 F   0  0  0  0  0  0  0  0  0  0  0  0
    6.6473   -4.3290  -20.1388 F   0  0  0  0  0  0  0  0  0  0  0  0
    6.5102   -1.4698  -19.9758 N   0  0  0  0  0  0  0  0  0  0  0  0
    7.1138    2.5479  -20.8250 H   0  0  0  0  0  0  0  0  0  0  0  0
    7.5789    1.6199  -22.2422 H   0  0  0  0  0  0  0  0  0  0  0  0
    6.0740    2.5164  -22.2435 H   0  0  0  0  0  0  0  0  0  0  0  0
    4.8865   -0.9783  -22.0067 H   0  0  0  0  0  0  0  0  0  0  0  0
    4.7817    0.5400  -22.8787 H   0  0  0  0  0  0  0  0  0  0  0  0
    6.2592   -0.4144  -22.9493 H   0  0  0  0  0  0  0  0  0  0  0  0
    5.2190    1.6266  -19.2582 H   0  0  0  0  0  0  0  0  0  0  0  0
    4.1514    1.7723  -20.6490 H   0  0  0  0  0  0  0  0  0  0  0  0
    4.2681    0.2487  -19.7916 H   0  0  0  0  0  0  0  0  0  0  0  0
   11.7399    1.2670  -19.3558 H   0  0  0  0  0  0  0  0  0  0  0  0
   10.2697    1.4729  -20.2616 H   0  0  0  0  0  0  0  0  0  0  0  0
   10.5827    3.3558  -18.7017 H   0  0  0  0  0  0  0  0  0  0  0  0
    9.1485    2.4709  -18.2240 H   0  0  0  0  0  0  0  0  0  0  0  0
    9.4272    3.4508  -16.0433 H   0  0  0  0  0  0  0  0  0  0  0  0
   10.7420    2.9121  -15.0222 H   0  0  0  0  0  0  0  0  0  0  0  0
   12.3726    4.2906  -16.3879 H   0  0  0  0  0  0  0  0  0  0  0  0
   11.0288    4.9134  -17.3093 H   0  0  0  0  0  0  0  0  0  0  0  0
   11.4350    6.5852  -15.7365 H   0  0  0  0  0  0  0  0  0  0  0  0
   10.0098    5.7712  -15.1480 H   0  0  0  0  0  0  0  0  0  0  0  0
   11.4491    4.4937  -13.5018 H   0  0  0  0  0  0  0  0  0  0  0  0
   12.8641    5.2973  -14.1277 H   0  0  0  0  0  0  0  0  0  0  0  0
   12.3438    7.2038  -12.9745 H   0  0  0  0  0  0  0  0  0  0  0  0
    9.3271    9.3705  -10.9182 H   0  0  0  0  0  0  0  0  0  0  0  0
    8.4863    7.8887  -11.1870 H   0  0  0  0  0  0  0  0  0  0  0  0
    8.5629    8.4330   -8.7672 H   0  0  0  0  0  0  0  0  0  0  0  0
    9.3673    6.9207   -9.1053 H   0  0  0  0  0  0  0  0  0  0  0  0
   10.6898    9.6382   -8.7852 H   0  0  0  0  0  0  0  0  0  0  0  0
   10.4154    6.2424   -7.2635 H   0  0  0  0  0  0  0  0  0  0  0  0
   12.0870    6.6574   -6.9843 H   0  0  0  0  0  0  0  0  0  0  0  0
    9.7691    6.9315   -5.0468 H   0  0  0  0  0  0  0  0  0  0  0  0
   11.0610    5.7725   -4.9075 H   0  0  0  0  0  0  0  0  0  0  0  0
   11.3960    7.7189   -3.3540 H   0  0  0  0  0  0  0  0  0  0  0  0
   12.7228    7.5082   -4.4515 H   0  0  0  0  0  0  0  0  0  0  0  0
   10.4862    9.5723   -4.6492 H   0  0  0  0  0  0  0  0  0  0  0  0
   12.1798    9.8782   -4.4152 H   0  0  0  0  0  0  0  0  0  0  0  0
   12.7059    9.1387   -6.7077 H   0  0  0  0  0  0  0  0  0  0  0  0
   11.4272   10.3280   -6.7601 H   0  0  0  0  0  0  0  0  0  0  0  0
   12.8867    8.5019   -9.0045 H   0  0  0  0  0  0  0  0  0  0  0  0
   12.0786    6.9739   -9.2706 H   0  0  0  0  0  0  0  0  0  0  0  0
   12.7459    7.9753  -11.3979 H   0  0  0  0  0  0  0  0  0  0  0  0
   11.8487    9.4092  -11.0279 H   0  0  0  0  0  0  0  0  0  0  0  0
   10.6931    0.7039  -15.4634 H   0  0  0  0  0  0  0  0  0  0  0  0
    9.2060    0.9457  -16.3638 H   0  0  0  0  0  0  0  0  0  0  0  0
   10.3430   -1.2024  -16.9936 H   0  0  0  0  0  0  0  0  0  0  0  0
   11.7865   -0.3360  -17.4418 H   0  0  0  0  0  0  0  0  0  0  0  0
    9.2224   -2.4845  -18.2462 H   0  0  0  0  0  0  0  0  0  0  0  0
    9.8494    8.5359   -6.8364 H   0  0  0  0  0  0  0  0  0  0  0  0
  2  1  1  0
  3  2  1  0
  4  2  1  0
  5  2  1  0
  6  5  2  0
  7  6  1  0
  8  7  1  0
  9  8  1  0
 10  9  1  0
 11 10  1  0
 12 11  1  0
 13 12  1  0
 14 13  1  0
 15 14  1  0
 16 15  1  0
 17 16  1  0
 18 17  2  0
 19 17  1  0
 20 19  1  0
 21 20  1  0
 22 21  1  0
 23 22  1  0
 24 23  1  0
 25 24  1  0
 26 25  1  0
 27 26  1  0
 28 23  1  0
 28 27  1  0
 29 22  1  0
 30 19  1  0
 30 29  1  0
 31 11  1  0
 32  8  1  0
 32 31  1  0
 33  7  2  0
 34 33  1  0
 35 34  1  0
 36 35  1  0
 37 35  1  0
 38 35  1  0
 39  5  1  0
 39 34  2  0
 40  1  1  0
 41  1  1  0
 42  1  1  0
 43  3  1  0
 44  3  1  0
 45  3  1  0
 46  4  1  0
 47  4  1  0
 48  4  1  0
 49  9  1  0
 50  9  1  0
 51 10  1  0
 52 10  1  0
 53 12  1  0
 54 12  1  0
 55 13  1  0
 56 13  1  0
 57 14  1  0
 58 14  1  0
 59 15  1  0
 60 15  1  0
 61 16  1  0
 62 20  1  0
 63 20  1  0
 64 21  1  0
 65 21  1  0
 66 22  1  0
 67 24  1  0
 68 24  1  0
 69 25  1  0
 70 25  1  0
 71 26  1  0
 72 26  1  0
 73 27  1  0
 74 27  1  0
 75 28  1  0
 76 28  1  0
 77 29  1  0
 78 29  1  0
 79 30  1  0
 80 30  1  0
 81 31  1  0
 82 31  1  0
 83 32  1  0
 84 32  1  0
 85 33  1  0
 86 23  1  0
M  CHG  1  23   1
M  END
>  <b_m_subgroup_collapsed>  (1480) 
0

>  <r_i_docking_score>  (1480) 
-5.5811153188116602

>  <s_m_subgroup_title>  (1480) 
glide-dock_SP_D22_pv

>  <s_m_subgroupid>  (1480) 
glide-dock_SP_D22_pv

>  <Molecule ChEMBL ID>  (1480) 
CHEMBL5751862

>  <Standard Type>  (1480) 
Ki

>  <Standard Value>  (1480) 
59.3

>  <label>  (1480) 
1

$$$$
CHEMBL99054
     RDKit          3D

 29 31  0  0  1  0  0  0  0  0999 V2000
    6.9441    5.1775  -12.3167 C   0  0  0  0  0  0  0  0  0  0  0  0
    8.1279    4.6071  -13.0309 C   0  0  0  0  0  0  0  0  0  0  0  0
    9.6794    5.3662  -12.8199 S   0  0  0  0  0  0  0  0  0  0  0  0
   10.4601    4.2132  -13.8567 C   0  0  0  0  0  0  0  0  0  0  0  0
   11.9359    4.3425  -14.0745 C   0  0  0  0  0  0  0  0  0  0  0  0
    9.5381    3.3017  -14.3332 C   0  0  0  0  0  0  0  0  0  0  0  0
    8.1900    3.5043  -13.8549 C   0  0  0  0  0  0  0  0  0  0  0  0
    6.9326    2.7023  -14.1280 C   0  0  0  0  0  0  0  0  0  0  0  0
    7.0549    1.3754  -14.8945 C   0  0  0  0  0  0  0  0  0  0  0  0
    8.2812    0.5442  -14.5131 C   0  0  0  0  0  0  0  0  0  0  0  0
    9.4709    0.9957  -15.2831 C   0  0  0  0  0  0  0  0  0  0  0  0
   10.0805    0.2384  -16.1908 N   0  0  0  0  0  0  0  0  0  0  0  0
   11.0203    1.0769  -16.7731 C   0  0  0  0  0  0  0  0  0  0  0  0
   10.9300    2.3219  -16.2018 C   0  0  0  0  0  0  0  0  0  0  0  0
    9.9526    2.2531  -15.2075 N   0  0  0  0  0  0  0  0  0  0  0  0
    6.0123    4.9768  -12.8452 H   0  0  0  0  0  0  0  0  0  0  0  0
    7.0311    6.2612  -12.2096 H   0  0  0  0  0  0  0  0  0  0  0  0
    6.8702    4.7543  -11.3152 H   0  0  0  0  0  0  0  0  0  0  0  0
   12.4122    3.3726  -14.1907 H   0  0  0  0  0  0  0  0  0  0  0  0
   12.4168    4.8337  -13.2282 H   0  0  0  0  0  0  0  0  0  0  0  0
   12.1462    4.9419  -14.9614 H   0  0  0  0  0  0  0  0  0  0  0  0
    6.4696    2.4701  -13.1691 H   0  0  0  0  0  0  0  0  0  0  0  0
    6.2052    3.3284  -14.6459 H   0  0  0  0  0  0  0  0  0  0  0  0
    6.1516    0.7947  -14.7081 H   0  0  0  0  0  0  0  0  0  0  0  0
    7.0652    1.5601  -15.9693 H   0  0  0  0  0  0  0  0  0  0  0  0
    8.4882    0.5839  -13.4468 H   0  0  0  0  0  0  0  0  0  0  0  0
    8.0929   -0.5023  -14.7561 H   0  0  0  0  0  0  0  0  0  0  0  0
   11.6686    0.7303  -17.5651 H   0  0  0  0  0  0  0  0  0  0  0  0
   11.4786    3.2246  -16.4211 H   0  0  0  0  0  0  0  0  0  0  0  0
  2  1  1  0
  3  2  1  0
  4  3  1  0
  5  4  1  0
  6  4  2  0
  7  2  2  0
  7  6  1  0
  8  7  1  0
  9  8  1  0
 10  9  1  0
 11 10  1  0
 12 11  2  0
 13 12  1  0
 14 13  2  0
 15  6  1  0
 15 11  1  0
 15 14  1  0
 16  1  1  0
 17  1  1  0
 18  1  1  0
 19  5  1  0
 20  5  1  0
 21  5  1  0
 22  8  1  0
 23  8  1  0
 24  9  1  0
 25  9  1  0
 26 10  1  0
 27 10  1  0
 28 13  1  0
 29 14  1  0
M  END
>  <b_m_subgroup_collapsed>  (1481) 
0

>  <r_i_docking_score>  (1481) 
-5.5734142175275698

>  <s_m_subgroup_title>  (1481) 
glide-dock_SP_D22_pv

>  <s_m_subgroupid>  (1481) 
glide-dock_SP_D22_pv

>  <Molecule ChEMBL ID>  (1481) 
CHEMBL99054

>  <Standard Type>  (1481) 
Ki

>  <Standard Value>  (1481) 
10000.0

>  <label>  (1481) 
0

$$$$
CHEMBL15136
     RDKit          3D

 47 48  0  0  1  0  0  0  0  0999 V2000
   11.9424   10.7162   -6.2567 C   0  0  0  0  0  0  0  0  0  0  0  0
   10.7670   10.1620   -5.4860 C   0  0  0  0  0  0  0  0  0  0  0  0
   10.0775    9.0338   -6.2890 C   0  0  0  0  0  0  0  0  0  0  0  0
   10.9641    7.8754   -6.5865 N   0  0  0  0  0  0  0  0  0  0  0  0
   11.0690    6.8742   -5.4747 C   0  0  0  0  0  0  0  0  0  0  0  0
   11.8419    7.3631   -4.2267 C   0  0  0  0  0  0  0  0  0  0  0  0
   12.0860    6.2681   -3.1914 C   0  0  0  0  0  0  0  0  0  0  0  0
   10.7282    7.2654   -7.9463 C   0  0  2  0  0  0  0  0  0  0  0  0
   11.4369    8.0845   -9.0428 C   0  0  0  0  0  0  0  0  0  0  0  0
   11.2402    7.5135  -10.4392 C   0  0  0  0  0  0  0  0  0  0  0  0
   12.2129    7.7724  -11.4248 C   0  0  0  0  0  0  0  0  0  0  0  0
   12.0862    7.2365  -12.7196 C   0  0  0  0  0  0  0  0  0  0  0  0
   10.9719    6.4446  -13.0438 C   0  0  0  0  0  0  0  0  0  0  0  0
    9.9776    6.2011  -12.0772 C   0  0  0  0  0  0  0  0  0  0  0  0
    8.8963    5.4412  -12.4209 O   0  0  0  0  0  0  0  0  0  0  0  0
   10.1138    6.7188  -10.7656 C   0  0  0  0  0  0  0  0  0  0  0  0
    9.0948    6.3358   -9.7079 C   0  0  0  0  0  0  0  0  0  0  0  0
    9.2384    7.0376   -8.3428 C   0  0  1  0  0  0  0  0  0  0  0  0
    8.4936    6.1898   -7.3203 C   0  0  0  0  0  0  0  0  0  0  0  0
   12.0859   11.7713   -6.0449 H   0  0  0  0  0  0  0  0  0  0  0  0
   12.8669   10.1689   -6.0696 H   0  0  0  0  0  0  0  0  0  0  0  0
   11.6860   10.6297   -7.3065 H   0  0  0  0  0  0  0  0  0  0  0  0
   10.0861   10.9887   -5.3426 H   0  0  0  0  0  0  0  0  0  0  0  0
   11.0613    9.9221   -4.4739 H   0  0  0  0  0  0  0  0  0  0  0  0
    9.7575    9.4885   -7.2252 H   0  0  0  0  0  0  0  0  0  0  0  0
    9.1500    8.6926   -5.8488 H   0  0  0  0  0  0  0  0  0  0  0  0
   10.0824    6.5334   -5.1662 H   0  0  0  0  0  0  0  0  0  0  0  0
   11.5944    5.9945   -5.8467 H   0  0  0  0  0  0  0  0  0  0  0  0
   12.7899    7.8184   -4.5086 H   0  0  0  0  0  0  0  0  0  0  0  0
   11.2856    8.1118   -3.6799 H   0  0  0  0  0  0  0  0  0  0  0  0
   12.7873    6.5983   -2.4250 H   0  0  0  0  0  0  0  0  0  0  0  0
   11.1579    5.9993   -2.6886 H   0  0  0  0  0  0  0  0  0  0  0  0
   12.4860    5.3727   -3.6534 H   0  0  0  0  0  0  0  0  0  0  0  0
   11.2155    6.2893   -7.9591 H   0  0  0  0  0  0  0  0  0  0  0  0
   12.5052    8.1457   -8.8289 H   0  0  0  0  0  0  0  0  0  0  0  0
   11.0653    9.1088   -9.0651 H   0  0  0  0  0  0  0  0  0  0  0  0
   13.0725    8.3839  -11.1885 H   0  0  0  0  0  0  0  0  0  0  0  0
   12.8465    7.4296  -13.4625 H   0  0  0  0  0  0  0  0  0  0  0  0
   10.8749    6.0335  -14.0380 H   0  0  0  0  0  0  0  0  0  0  0  0
    8.2168    5.4493  -11.7627 H   0  0  0  0  0  0  0  0  0  0  0  0
    8.0867    6.4900  -10.0922 H   0  0  0  0  0  0  0  0  0  0  0  0
    9.2018    5.2581   -9.5721 H   0  0  0  0  0  0  0  0  0  0  0  0
    8.7290    7.9960   -8.4429 H   0  0  0  0  0  0  0  0  0  0  0  0
    9.1412    5.3721   -7.0469 H   0  0  0  0  0  0  0  0  0  0  0  0
    8.2191    6.7480   -6.4308 H   0  0  0  0  0  0  0  0  0  0  0  0
    7.5800    5.7659   -7.7288 H   0  0  0  0  0  0  0  0  0  0  0  0
   11.8915    8.2669   -6.6631 H   0  0  0  0  0  0  0  0  0  0  0  0
  2  1  1  0
  3  2  1  0
  4  3  1  0
  5  4  1  0
  6  5  1  0
  7  6  1  0
  8  4  1  0
  9  8  1  0
 10  9  1  0
 11 10  2  0
 12 11  1  0
 13 12  2  0
 14 13  1  0
 15 14  1  0
 16 10  1  0
 16 14  2  0
 17 16  1  0
 18  8  1  0
 18 17  1  0
 19 18  1  0
 20  1  1  0
 21  1  1  0
 22  1  1  0
 23  2  1  0
 24  2  1  0
 25  3  1  0
 26  3  1  0
 27  5  1  0
 28  5  1  0
 29  6  1  0
 30  6  1  0
 31  7  1  0
 32  7  1  0
 33  7  1  0
  8 34  1  1
 35  9  1  0
 36  9  1  0
 37 11  1  0
 38 12  1  0
 39 13  1  0
 40 15  1  0
 41 17  1  0
 42 17  1  0
 18 43  1  6
 44 19  1  0
 45 19  1  0
 46 19  1  0
 47  4  1  0
M  CHG  1   4   1
M  END
>  <b_m_subgroup_collapsed>  (1482) 
0

>  <r_i_docking_score>  (1482) 
-5.5690371697655499

>  <s_m_subgroup_title>  (1482) 
glide-dock_SP_D22_pv

>  <s_m_subgroupid>  (1482) 
glide-dock_SP_D22_pv

>  <Molecule ChEMBL ID>  (1482) 
CHEMBL15136

>  <Standard Type>  (1482) 
Ki

>  <Standard Value>  (1482) 
14.0

>  <label>  (1482) 
1

$$$$
CHEMBL4451666
     RDKit          3D

 47 50  0  0  1  0  0  0  0  0999 V2000
    5.0793    1.6216  -13.2729 C   0  0  0  0  0  0  0  0  0  0  0  0
    4.9651    3.0197  -13.0468 O   0  0  0  0  0  0  0  0  0  0  0  0
    6.1293    3.7513  -13.0077 C   0  0  0  0  0  0  0  0  0  0  0  0
    6.1198    4.9324  -12.2470 C   0  0  0  0  0  0  0  0  0  0  0  0
    7.2849    5.6968  -12.1071 C   0  0  0  0  0  0  0  0  0  0  0  0
    8.4746    5.2807  -12.7122 C   0  0  0  0  0  0  0  0  0  0  0  0
    8.5301    4.1024  -13.5041 C   0  0  0  0  0  0  0  0  0  0  0  0
    7.3252    3.3722  -13.6658 C   0  0  0  0  0  0  0  0  0  0  0  0
    9.8835    3.9410  -13.9578 C   0  0  0  0  0  0  0  0  0  0  0  0
   10.3003    2.8138  -14.7863 C   0  0  0  0  0  0  0  0  0  0  0  0
    9.8619    1.5042  -14.7576 C   0  0  0  0  0  0  0  0  0  0  0  0
   10.4882    0.8658  -15.8095 N   0  0  0  0  0  0  0  0  0  0  0  0
   11.2752    1.7712  -16.3965 C   0  0  0  0  0  0  0  0  0  0  0  0
   12.0766    1.4979  -17.5310 N   0  0  0  0  0  0  0  0  0  0  0  0
   12.0841    0.3757  -18.2734 C   0  0  0  0  0  0  0  0  0  0  0  0
   13.0759    0.3496  -19.4305 C   0  0  0  0  0  0  0  0  0  0  0  0
   11.3598   -0.6005  -18.0716 O   0  0  0  0  0  0  0  0  0  0  0  0
   11.2338    2.9652  -15.8187 N   0  0  0  0  0  0  0  0  0  0  0  0
   10.5930    5.0012  -13.4465 C   0  0  0  0  0  0  0  0  0  0  0  0
    9.7541    5.8013  -12.6765 N   0  0  0  0  0  0  0  0  0  0  0  0
   10.2176    7.2330  -11.8177 S   0  0  0  0  0  0  0  0  0  0  0  0
    9.2864    8.2876  -12.2468 O   0  0  0  0  0  0  0  0  0  0  0  0
   11.6686    7.3723  -12.0201 O   0  0  0  0  0  0  0  0  0  0  0  0
    9.9099    6.9237  -10.0833 C   0  0  0  0  0  0  0  0  0  0  0  0
    9.5794    5.6399   -9.6037 C   0  0  0  0  0  0  0  0  0  0  0  0
    9.2521    5.4742   -8.2468 C   0  0  0  0  0  0  0  0  0  0  0  0
    9.2865    6.5756   -7.3678 C   0  0  0  0  0  0  0  0  0  0  0  0
    9.6429    7.8508   -7.8462 C   0  0  0  0  0  0  0  0  0  0  0  0
    9.6873    8.9063   -6.9992 F   0  0  0  0  0  0  0  0  0  0  0  0
    9.9504    8.0273   -9.2078 C   0  0  0  0  0  0  0  0  0  0  0  0
    4.0873    1.1738  -13.2442 H   0  0  0  0  0  0  0  0  0  0  0  0
    5.5002    1.3832  -14.2471 H   0  0  0  0  0  0  0  0  0  0  0  0
    5.6851    1.1484  -12.4988 H   0  0  0  0  0  0  0  0  0  0  0  0
    5.2355    5.2355  -11.7118 H   0  0  0  0  0  0  0  0  0  0  0  0
    7.2858    6.5722  -11.4813 H   0  0  0  0  0  0  0  0  0  0  0  0
    7.3530    2.4868  -14.2781 H   0  0  0  0  0  0  0  0  0  0  0  0
    9.1651    0.9980  -14.1050 H   0  0  0  0  0  0  0  0  0  0  0  0
   14.0963    0.4534  -19.0598 H   0  0  0  0  0  0  0  0  0  0  0  0
   13.0070   -0.5929  -19.9758 H   0  0  0  0  0  0  0  0  0  0  0  0
   12.7000    2.2410  -17.8085 H   0  0  0  0  0  0  0  0  0  0  0  0
   11.6403    5.2427  -13.5595 H   0  0  0  0  0  0  0  0  0  0  0  0
    9.5465    4.7848  -10.2604 H   0  0  0  0  0  0  0  0  0  0  0  0
    8.9647    4.5014   -7.8795 H   0  0  0  0  0  0  0  0  0  0  0  0
    9.0306    6.4455   -6.3264 H   0  0  0  0  0  0  0  0  0  0  0  0
   10.1987    9.0089   -9.5834 H   0  0  0  0  0  0  0  0  0  0  0  0
   12.8725    1.1636  -20.1275 H   0  0  0  0  0  0  0  0  0  0  0  0
   10.3712   -0.0933  -16.1082 H   0  0  0  0  0  0  0  0  0  0  0  0
  2  1  1  0
  3  2  1  0
  4  3  2  0
  5  4  1  0
  6  5  2  0
  7  6  1  0
  8  3  1  0
  8  7  2  0
  9  7  1  0
 10  9  1  0
 11 10  2  0
 12 11  1  0
 13 12  1  0
 14 13  1  0
 15 14  1  0
 16 15  1  0
 17 15  2  0
 18 10  1  0
 18 13  2  0
 19  9  2  0
 20  6  1  0
 20 19  1  0
 21 20  1  0
 22 21  2  0
 23 21  2  0
 24 21  1  0
 25 24  2  0
 26 25  1  0
 27 26  2  0
 28 27  1  0
 29 28  1  0
 30 24  1  0
 30 28  2  0
 31  1  1  0
 32  1  1  0
 33  1  1  0
 34  4  1  0
 35  5  1  0
 36  8  1  0
 37 11  1  0
 38 16  1  0
 39 16  1  0
 40 14  1  0
 41 19  1  0
 42 25  1  0
 43 26  1  0
 44 27  1  0
 45 30  1  0
 46 16  1  0
 47 12  1  0
M  END
>  <b_m_subgroup_collapsed>  (1483) 
0

>  <r_i_docking_score>  (1483) 
-5.5589494506414097

>  <s_m_subgroup_title>  (1483) 
glide-dock_SP_D22_pv

>  <s_m_subgroupid>  (1483) 
glide-dock_SP_D22_pv

>  <Molecule ChEMBL ID>  (1483) 
CHEMBL4451666

>  <Standard Type>  (1483) 
Ki

>  <Standard Value>  (1483) 
10000.0

>  <label>  (1483) 
0

$$$$
CHEMBL201318
     RDKit          3D

 73 76  0  0  1  0  0  0  0  0999 V2000
    4.6939    0.7738  -20.3261 C   0  0  0  0  0  0  0  0  0  0  0  0
    6.1253    0.3808  -19.8999 C   0  0  0  0  0  0  0  0  0  0  0  0
    7.0920    1.3627  -20.6063 C   0  0  0  0  0  0  0  0  0  0  0  0
    6.4524   -1.0419  -20.3881 C   0  0  0  0  0  0  0  0  0  0  0  0
    6.2585    0.4417  -18.3653 C   0  0  0  0  0  0  0  0  0  0  0  0
    7.3547    1.0003  -17.8490 N   0  0  0  0  0  0  0  0  0  0  0  0
    7.5853    0.8797  -16.5208 C   0  0  0  0  0  0  0  0  0  0  0  0
    8.7856    1.4233  -16.0053 N   0  0  0  0  0  0  0  0  0  0  0  0
    9.0713    1.5478  -14.5759 C   0  0  0  0  0  0  0  0  0  0  0  0
    9.1474    3.0342  -14.1827 C   0  0  0  0  0  0  0  0  0  0  0  0
   10.1716    3.7238  -14.9820 N   0  0  0  0  0  0  0  0  0  0  0  0
   10.2460    5.1270  -14.5850 C   0  0  0  0  0  0  0  0  0  0  0  0
   11.1848    5.2754  -13.3800 C   0  0  0  0  0  0  0  0  0  0  0  0
   11.3278    6.7201  -12.8760 C   0  0  0  0  0  0  0  0  0  0  0  0
   10.1781    7.2823  -11.9884 C   0  0  0  0  0  0  0  0  0  0  0  0
   10.0868    6.7154  -10.6269 N   0  0  0  0  0  0  0  0  0  0  0  0
    9.3642    5.5749  -10.4343 C   0  0  0  0  0  0  0  0  0  0  0  0
    8.6906    5.0392  -11.3165 O   0  0  0  0  0  0  0  0  0  0  0  0
    9.4409    4.8893   -9.0662 C   0  0  0  0  0  0  0  0  0  0  0  0
    8.6696    5.6329   -7.9701 C   0  0  0  0  0  0  0  0  0  0  0  0
    8.6968    7.1525   -8.0673 C   0  0  0  0  0  0  0  0  0  0  0  0
   10.1045    7.6583   -8.2961 C   0  0  0  0  0  0  0  0  0  0  0  0
   10.7744    8.3534   -7.2598 C   0  0  0  0  0  0  0  0  0  0  0  0
   10.1785    8.5847   -6.0565 O   0  0  0  0  0  0  0  0  0  0  0  0
   12.0843    8.8119   -7.4466 C   0  0  0  0  0  0  0  0  0  0  0  0
   12.7290    8.5696   -8.6664 C   0  0  0  0  0  0  0  0  0  0  0  0
   12.0624    7.9113   -9.7124 C   0  0  0  0  0  0  0  0  0  0  0  0
   10.7458    7.4190   -9.5466 C   0  0  0  0  0  0  0  0  0  0  0  0
    9.8276    3.6232  -16.4039 C   0  0  0  0  0  0  0  0  0  0  0  0
    9.7452    2.1468  -16.8408 C   0  0  0  0  0  0  0  0  0  0  0  0
    6.6659    0.1810  -15.7100 C   0  0  0  0  0  0  0  0  0  0  0  0
    5.5389   -0.3735  -16.3461 C   0  0  0  0  0  0  0  0  0  0  0  0
    4.5530   -1.2479  -15.5846 C   0  0  0  0  0  0  0  0  0  0  0  0
    4.6202   -1.0211  -14.2696 F   0  0  0  0  0  0  0  0  0  0  0  0
    3.2968   -1.0276  -15.9797 F   0  0  0  0  0  0  0  0  0  0  0  0
    4.8764   -2.5216  -15.8139 F   0  0  0  0  0  0  0  0  0  0  0  0
    5.3462   -0.2395  -17.6744 N   0  0  0  0  0  0  0  0  0  0  0  0
    3.9480    0.0861  -19.9251 H   0  0  0  0  0  0  0  0  0  0  0  0
    4.4432    1.7720  -19.9727 H   0  0  0  0  0  0  0  0  0  0  0  0
    4.5806    0.7659  -21.4112 H   0  0  0  0  0  0  0  0  0  0  0  0
    8.1339    1.1301  -20.3818 H   0  0  0  0  0  0  0  0  0  0  0  0
    6.9815    1.3162  -21.6899 H   0  0  0  0  0  0  0  0  0  0  0  0
    6.9136    2.3934  -20.3048 H   0  0  0  0  0  0  0  0  0  0  0  0
    5.7655   -1.7755  -19.9669 H   0  0  0  0  0  0  0  0  0  0  0  0
    6.3816   -1.1174  -21.4738 H   0  0  0  0  0  0  0  0  0  0  0  0
    7.4620   -1.3360  -20.1011 H   0  0  0  0  0  0  0  0  0  0  0  0
   10.0278    1.0649  -14.3693 H   0  0  0  0  0  0  0  0  0  0  0  0
    8.3471    1.0521  -13.9360 H   0  0  0  0  0  0  0  0  0  0  0  0
    9.3884    3.1022  -13.1236 H   0  0  0  0  0  0  0  0  0  0  0  0
    8.1744    3.5095  -14.3179 H   0  0  0  0  0  0  0  0  0  0  0  0
    9.2498    5.5264  -14.3778 H   0  0  0  0  0  0  0  0  0  0  0  0
   10.6596    5.7241  -15.4035 H   0  0  0  0  0  0  0  0  0  0  0  0
   12.1721    4.9222  -13.6810 H   0  0  0  0  0  0  0  0  0  0  0  0
   10.8768    4.6117  -12.5716 H   0  0  0  0  0  0  0  0  0  0  0  0
   11.4562    7.3772  -13.7369 H   0  0  0  0  0  0  0  0  0  0  0  0
   12.2776    6.7751  -12.3514 H   0  0  0  0  0  0  0  0  0  0  0  0
    9.2208    7.1868  -12.5085 H   0  0  0  0  0  0  0  0  0  0  0  0
   10.3110    8.3569  -11.8683 H   0  0  0  0  0  0  0  0  0  0  0  0
   10.4867    4.8118   -8.7829 H   0  0  0  0  0  0  0  0  0  0  0  0
    9.0842    3.8635   -9.1259 H   0  0  0  0  0  0  0  0  0  0  0  0
    9.1587    5.3780   -7.0434 H   0  0  0  0  0  0  0  0  0  0  0  0
    7.6467    5.2839   -7.8951 H   0  0  0  0  0  0  0  0  0  0  0  0
    8.2228    7.5929   -7.1901 H   0  0  0  0  0  0  0  0  0  0  0  0
    8.0878    7.4724   -8.9053 H   0  0  0  0  0  0  0  0  0  0  0  0
    9.3107    8.2105   -6.0099 H   0  0  0  0  0  0  0  0  0  0  0  0
   12.5975    9.3413   -6.6562 H   0  0  0  0  0  0  0  0  0  0  0  0
   13.7398    8.9227   -8.8029 H   0  0  0  0  0  0  0  0  0  0  0  0
   12.6054    7.7841  -10.6292 H   0  0  0  0  0  0  0  0  0  0  0  0
    8.8931    4.1383  -16.6086 H   0  0  0  0  0  0  0  0  0  0  0  0
   10.5958    4.1227  -16.9946 H   0  0  0  0  0  0  0  0  0  0  0  0
   10.7212    1.6758  -16.7212 H   0  0  0  0  0  0  0  0  0  0  0  0
    9.5119    2.0916  -17.9036 H   0  0  0  0  0  0  0  0  0  0  0  0
    6.8141    0.0052  -14.6578 H   0  0  0  0  0  0  0  0  0  0  0  0
  2  1  1  0
  3  2  1  0
  4  2  1  0
  5  2  1  0
  6  5  2  0
  7  6  1  0
  8  7  1  0
  9  8  1  0
 10  9  1  0
 11 10  1  0
 12 11  1  0
 13 12  1  0
 14 13  1  0
 15 14  1  0
 16 15  1  0
 17 16  1  0
 18 17  2  0
 19 17  1  0
 20 19  1  0
 21 20  1  0
 22 21  1  0
 23 22  2  0
 24 23  1  0
 25 23  1  0
 26 25  2  0
 27 26  1  0
 28 16  1  0
 28 22  1  0
 28 27  2  0
 29 11  1  0
 30  8  1  0
 30 29  1  0
 31  7  2  0
 32 31  1  0
 33 32  1  0
 34 33  1  0
 35 33  1  0
 36 33  1  0
 37  5  1  0
 37 32  2  0
 38  1  1  0
 39  1  1  0
 40  1  1  0
 41  3  1  0
 42  3  1  0
 43  3  1  0
 44  4  1  0
 45  4  1  0
 46  4  1  0
 47  9  1  0
 48  9  1  0
 49 10  1  0
 50 10  1  0
 51 12  1  0
 52 12  1  0
 53 13  1  0
 54 13  1  0
 55 14  1  0
 56 14  1  0
 57 15  1  0
 58 15  1  0
 59 19  1  0
 60 19  1  0
 61 20  1  0
 62 20  1  0
 63 21  1  0
 64 21  1  0
 65 24  1  0
 66 25  1  0
 67 26  1  0
 68 27  1  0
 69 29  1  0
 70 29  1  0
 71 30  1  0
 72 30  1  0
 73 31  1  0
M  END
>  <b_m_subgroup_collapsed>  (1484) 
0

>  <r_i_docking_score>  (1484) 
-5.5496741333851602

>  <s_m_subgroup_title>  (1484) 
glide-dock_SP_D22_pv

>  <s_m_subgroupid>  (1484) 
glide-dock_SP_D22_pv

>  <Molecule ChEMBL ID>  (1484) 
CHEMBL201318

>  <Standard Type>  (1484) 
Ki

>  <Standard Value>  (1484) 
93.0

>  <label>  (1484) 
1

$$$$
CHEMBL4558202
     RDKit          3D

 30 32  0  0  1  0  0  0  0  0999 V2000
   12.5366    7.3580  -12.7658 C   0  0  0  0  0  0  0  0  0  0  0  0
   11.1240    7.3723  -12.7911 O   0  0  0  0  0  0  0  0  0  0  0  0
   10.4761    6.8721  -11.6923 C   0  0  0  0  0  0  0  0  0  0  0  0
    9.5094    5.8797  -11.9368 C   0  0  0  0  0  0  0  0  0  0  0  0
    8.8022    5.3066  -10.8714 C   0  0  0  0  0  0  0  0  0  0  0  0
    9.0454    5.7573   -9.5660 C   0  0  0  0  0  0  0  0  0  0  0  0
    8.4860    5.3979   -8.3665 N   0  0  0  0  0  0  0  0  0  0  0  0
    8.9871    6.1847   -7.3523 C   0  0  0  0  0  0  0  0  0  0  0  0
    9.9632    7.0181   -7.8345 C   0  0  0  0  0  0  0  0  0  0  0  0
   10.7089    8.0008   -7.0521 C   0  0  0  0  0  0  0  0  0  0  0  0
   11.0861    9.2751   -7.3918 C   0  0  0  0  0  0  0  0  0  0  0  0
   11.6855    9.9074   -6.3047 N   0  0  0  0  0  0  0  0  0  0  0  0
   11.6859    8.9722   -5.3662 C   0  0  0  0  0  0  0  0  0  0  0  0
   11.1589    7.7985   -5.7453 N   0  0  0  0  0  0  0  0  0  0  0  0
   11.1120    6.5909   -4.9472 C   0  0  0  0  0  0  0  0  0  0  0  0
    9.9943    6.7814   -9.2661 C   0  0  0  0  0  0  0  0  0  0  0  0
   10.7097    7.3260  -10.3668 C   0  0  0  0  0  0  0  0  0  0  0  0
   11.6154    8.3061  -10.1396 F   0  0  0  0  0  0  0  0  0  0  0  0
   12.9131    7.7179  -13.7230 H   0  0  0  0  0  0  0  0  0  0  0  0
   12.9685    7.9900  -11.9921 H   0  0  0  0  0  0  0  0  0  0  0  0
   12.8860    6.3345  -12.6438 H   0  0  0  0  0  0  0  0  0  0  0  0
    9.3193    5.5505  -12.9477 H   0  0  0  0  0  0  0  0  0  0  0  0
    8.0569    4.5463  -11.0525 H   0  0  0  0  0  0  0  0  0  0  0  0
    7.7173    4.7517   -8.2499 H   0  0  0  0  0  0  0  0  0  0  0  0
    8.5872    6.1094   -6.3527 H   0  0  0  0  0  0  0  0  0  0  0  0
   10.9313    9.7723   -8.3339 H   0  0  0  0  0  0  0  0  0  0  0  0
   12.1125    9.1368   -4.3873 H   0  0  0  0  0  0  0  0  0  0  0  0
   11.5406    5.7724   -5.5216 H   0  0  0  0  0  0  0  0  0  0  0  0
   11.6949    6.7156   -4.0344 H   0  0  0  0  0  0  0  0  0  0  0  0
   10.0860    6.3523   -4.6766 H   0  0  0  0  0  0  0  0  0  0  0  0
  2  1  1  0
  3  2  1  0
  4  3  2  0
  5  4  1  0
  6  5  2  0
  7  6  1  0
  8  7  1  0
  9  8  2  0
 10  9  1  0
 11 10  2  0
 12 11  1  0
 13 12  2  0
 14 10  1  0
 14 13  1  0
 15 14  1  0
 16  6  1  0
 16  9  1  0
 17  3  1  0
 17 16  2  0
 18 17  1  0
 19  1  1  0
 20  1  1  0
 21  1  1  0
 22  4  1  0
 23  5  1  0
 24  7  1  0
 25  8  1  0
 26 11  1  0
 27 13  1  0
 28 15  1  0
 29 15  1  0
 30 15  1  0
M  END
>  <b_m_subgroup_collapsed>  (1485) 
0

>  <r_i_docking_score>  (1485) 
-5.5457859991203504

>  <s_m_subgroup_title>  (1485) 
glide-dock_SP_D22_pv

>  <s_m_subgroupid>  (1485) 
glide-dock_SP_D22_pv

>  <Molecule ChEMBL ID>  (1485) 
CHEMBL4558202

>  <Standard Type>  (1485) 
Ki

>  <Standard Value>  (1485) 
10000.0

>  <label>  (1485) 
0

$$$$
CHEMBL198303
     RDKit          3D

 46 47  0  0  1  0  0  0  0  0999 V2000
   10.1595    6.6688   -7.1239 C   0  0  0  0  0  0  0  0  0  0  0  0
    9.2864    7.0497   -8.3201 C   0  0  0  0  0  0  0  0  0  0  0  0
    9.2300    5.9370   -9.3866 C   0  0  0  0  0  0  0  0  0  0  0  0
    8.4861    6.3441  -10.6102 N   0  0  0  0  0  0  0  0  0  0  0  0
    9.0801    7.4870  -11.3715 C   0  0  0  0  0  0  0  0  0  0  0  0
   10.5820    7.3508  -11.7402 C   0  0  0  0  0  0  0  0  0  0  0  0
   11.5613    8.0677  -10.7983 C   0  0  0  0  0  0  0  0  0  0  0  0
    7.9642    5.2051  -11.4306 C   0  0  1  0  0  0  0  0  0  0  0  0
    6.5320    5.4748  -11.9408 C   0  0  0  0  0  0  0  0  0  0  0  0
    5.9103    4.2423  -12.6251 C   0  0  0  0  0  0  0  0  0  0  0  0
    6.8801    3.5435  -13.4469 N   0  0  0  0  0  0  0  0  0  0  0  0
    6.4862    2.5351  -14.2512 N   0  0  0  0  0  0  0  0  0  0  0  0
    7.5945    2.1250  -14.8492 C   0  0  0  0  0  0  0  0  0  0  0  0
    8.7256    2.8627  -14.4052 C   0  0  0  0  0  0  0  0  0  0  0  0
   10.1226    2.7140  -14.8704 C   0  0  0  0  0  0  0  0  0  0  0  0
   11.0745    3.3267  -14.3837 O   0  0  0  0  0  0  0  0  0  0  0  0
   10.2112    1.8637  -15.9102 O   0  0  0  0  0  0  0  0  0  0  0  0
   11.4539    1.6757  -16.5617 C   0  0  0  0  0  0  0  0  0  0  0  0
    8.2467    3.7371  -13.4707 C   0  0  0  0  0  0  0  0  0  0  0  0
    8.8872    4.7618  -12.5955 C   0  0  0  0  0  0  0  0  0  0  0  0
   10.1706    7.4632   -6.3785 H   0  0  0  0  0  0  0  0  0  0  0  0
   11.1900    6.4748   -7.4259 H   0  0  0  0  0  0  0  0  0  0  0  0
    9.7732    5.7726   -6.6461 H   0  0  0  0  0  0  0  0  0  0  0  0
    8.2798    7.2632   -7.9627 H   0  0  0  0  0  0  0  0  0  0  0  0
    9.6608    7.9869   -8.7293 H   0  0  0  0  0  0  0  0  0  0  0  0
   10.2319    5.5999   -9.6522 H   0  0  0  0  0  0  0  0  0  0  0  0
    8.7384    5.0771   -8.9279 H   0  0  0  0  0  0  0  0  0  0  0  0
    8.4952    7.6314  -12.2792 H   0  0  0  0  0  0  0  0  0  0  0  0
    8.9165    8.4070  -10.8107 H   0  0  0  0  0  0  0  0  0  0  0  0
   10.8863    6.3120  -11.8415 H   0  0  0  0  0  0  0  0  0  0  0  0
   10.7239    7.7724  -12.7338 H   0  0  0  0  0  0  0  0  0  0  0  0
   12.5648    8.0709  -11.2253 H   0  0  0  0  0  0  0  0  0  0  0  0
   11.6316    7.5718   -9.8312 H   0  0  0  0  0  0  0  0  0  0  0  0
   11.2753    9.1077  -10.6310 H   0  0  0  0  0  0  0  0  0  0  0  0
    7.8605    4.3429  -10.7702 H   0  0  0  0  0  0  0  0  0  0  0  0
    5.8807    5.7721  -11.1194 H   0  0  0  0  0  0  0  0  0  0  0  0
    6.5413    6.3112  -12.6414 H   0  0  0  0  0  0  0  0  0  0  0  0
    5.5484    3.5432  -11.8709 H   0  0  0  0  0  0  0  0  0  0  0  0
    5.0562    4.5269  -13.2403 H   0  0  0  0  0  0  0  0  0  0  0  0
    7.5395    1.3271  -15.5760 H   0  0  0  0  0  0  0  0  0  0  0  0
   11.3633    0.8987  -17.3218 H   0  0  0  0  0  0  0  0  0  0  0  0
   12.2203    1.3728  -15.8516 H   0  0  0  0  0  0  0  0  0  0  0  0
   11.7763    2.5963  -17.0491 H   0  0  0  0  0  0  0  0  0  0  0  0
    9.1471    5.6008  -13.2403 H   0  0  0  0  0  0  0  0  0  0  0  0
    9.8181    4.3613  -12.1907 H   0  0  0  0  0  0  0  0  0  0  0  0
    7.6211    6.7679  -10.2483 H   0  0  0  0  0  0  0  0  0  0  0  0
  2  1  1  0
  3  2  1  0
  4  3  1  0
  5  4  1  0
  6  5  1  0
  7  6  1  0
  8  4  1  0
  9  8  1  0
 10  9  1  0
 11 10  1  0
 12 11  1  0
 13 12  2  0
 14 13  1  0
 15 14  1  0
 16 15  2  0
 17 15  1  0
 18 17  1  0
 19 11  1  0
 19 14  2  0
 20  8  1  0
 20 19  1  0
 21  1  1  0
 22  1  1  0
 23  1  1  0
 24  2  1  0
 25  2  1  0
 26  3  1  0
 27  3  1  0
 28  5  1  0
 29  5  1  0
 30  6  1  0
 31  6  1  0
 32  7  1  0
 33  7  1  0
 34  7  1  0
  8 35  1  1
 36  9  1  0
 37  9  1  0
 38 10  1  0
 39 10  1  0
 40 13  1  0
 41 18  1  0
 42 18  1  0
 43 18  1  0
 44 20  1  0
 45 20  1  0
 46  4  1  0
M  CHG  1   4   1
M  END
>  <b_m_subgroup_collapsed>  (1486) 
0

>  <r_i_docking_score>  (1486) 
-5.5454641521636798

>  <s_m_subgroup_title>  (1486) 
glide-dock_SP_D22_pv

>  <s_m_subgroupid>  (1486) 
glide-dock_SP_D22_pv

>  <Molecule ChEMBL ID>  (1486) 
CHEMBL198303

>  <Standard Type>  (1486) 
Ki

>  <Standard Value>  (1486) 
20000.0

>  <label>  (1486) 
0

$$$$
CHEMBL3976659
     RDKit          3D

 52 55  0  0  1  0  0  0  0  0999 V2000
   13.1611   -0.7835  -19.5960 C   0  0  0  0  0  0  0  0  0  0  0  0
   11.7089   -0.3215  -19.4071 C   0  0  0  0  0  0  0  0  0  0  0  0
   11.6188    1.0764  -18.7751 C   0  0  0  0  0  0  0  0  0  0  0  0
   10.2905    1.5931  -18.8251 O   0  0  0  0  0  0  0  0  0  0  0  0
    9.5441    1.4046  -17.6873 C   0  0  0  0  0  0  0  0  0  0  0  0
    8.6226    0.3403  -17.6317 C   0  0  0  0  0  0  0  0  0  0  0  0
    8.4810   -0.5138  -18.6875 O   0  0  0  0  0  0  0  0  0  0  0  0
    7.8321    0.1611  -16.4859 C   0  0  0  0  0  0  0  0  0  0  0  0
    7.9678    1.0073  -15.3741 C   0  0  0  0  0  0  0  0  0  0  0  0
    6.8861    0.6170  -13.8513 Br  0  0  0  0  0  0  0  0  0  0  0  0
    8.8754    2.0978  -15.4233 C   0  0  0  0  0  0  0  0  0  0  0  0
    9.6399    2.3091  -16.6005 C   0  0  0  0  0  0  0  0  0  0  0  0
   10.5096    3.5494  -16.7527 C   0  0  0  0  0  0  0  0  0  0  0  0
   10.8439    4.2238  -15.4781 N   0  0  1  0  0  0  0  0  0  0  0  0
   11.5700    5.4902  -15.7316 C   0  0  0  0  0  0  0  0  0  0  0  0
   12.1692    6.0251  -14.4362 C   0  0  0  0  0  0  0  0  0  0  0  0
   11.1363    6.1039  -13.3330 C   0  0  0  0  0  0  0  0  0  0  0  0
   11.3714    6.9724  -12.2473 C   0  0  0  0  0  0  0  0  0  0  0  0
   10.4796    7.0187  -11.1502 C   0  0  0  0  0  0  0  0  0  0  0  0
   10.6724    7.8070  -10.0336 O   0  0  0  0  0  0  0  0  0  0  0  0
   11.8909    8.5266   -9.9109 C   0  0  0  0  0  0  0  0  0  0  0  0
    9.3371    6.1924  -11.1805 C   0  0  0  0  0  0  0  0  0  0  0  0
    8.4860    6.1723  -10.1171 O   0  0  0  0  0  0  0  0  0  0  0  0
    9.0738    5.3588  -12.2847 C   0  0  0  0  0  0  0  0  0  0  0  0
    9.9705    5.2949  -13.3749 C   0  0  0  0  0  0  0  0  0  0  0  0
    9.6581    4.4087  -14.5966 C   0  0  2  0  0  0  0  0  0  0  0  0
    9.0625    3.0263  -14.2259 C   0  0  0  0  0  0  0  0  0  0  0  0
   13.2180   -1.7766  -20.0417 H   0  0  0  0  0  0  0  0  0  0  0  0
   13.6875   -0.8256  -18.6452 H   0  0  0  0  0  0  0  0  0  0  0  0
   13.7081   -0.1019  -20.2480 H   0  0  0  0  0  0  0  0  0  0  0  0
   11.2088   -0.3130  -20.3761 H   0  0  0  0  0  0  0  0  0  0  0  0
   11.1732   -1.0422  -18.7889 H   0  0  0  0  0  0  0  0  0  0  0  0
   12.0101    1.0516  -17.7558 H   0  0  0  0  0  0  0  0  0  0  0  0
   12.2530    1.7676  -19.3310 H   0  0  0  0  0  0  0  0  0  0  0  0
    7.8197   -1.1754  -18.5496 H   0  0  0  0  0  0  0  0  0  0  0  0
    7.1275   -0.6563  -16.4379 H   0  0  0  0  0  0  0  0  0  0  0  0
   11.4423    3.2961  -17.2549 H   0  0  0  0  0  0  0  0  0  0  0  0
    9.9784    4.2440  -17.4058 H   0  0  0  0  0  0  0  0  0  0  0  0
   12.3702    5.3359  -16.4571 H   0  0  0  0  0  0  0  0  0  0  0  0
   10.8864    6.2232  -16.1641 H   0  0  0  0  0  0  0  0  0  0  0  0
   12.9768    5.3732  -14.1010 H   0  0  0  0  0  0  0  0  0  0  0  0
   12.6084    7.0091  -14.6079 H   0  0  0  0  0  0  0  0  0  0  0  0
   12.2671    7.5745  -12.2589 H   0  0  0  0  0  0  0  0  0  0  0  0
   11.9257    9.0055   -8.9326 H   0  0  0  0  0  0  0  0  0  0  0  0
   11.9685    9.3127  -10.6617 H   0  0  0  0  0  0  0  0  0  0  0  0
   12.7582    7.8687   -9.9817 H   0  0  0  0  0  0  0  0  0  0  0  0
    7.7809    6.8228  -10.1714 H   0  0  0  0  0  0  0  0  0  0  0  0
    8.1717    4.7665  -12.2697 H   0  0  0  0  0  0  0  0  0  0  0  0
    8.9111    4.9556  -15.1748 H   0  0  0  0  0  0  0  0  0  0  0  0
    8.0956    3.1606  -13.7433 H   0  0  0  0  0  0  0  0  0  0  0  0
    9.7060    2.5195  -13.5051 H   0  0  0  0  0  0  0  0  0  0  0  0
   11.4764    3.6131  -14.9813 H   0  0  0  0  0  0  0  0  0  0  0  0
  2  1  1  0
  3  2  1  0
  4  3  1  0
  5  4  1  0
  6  5  2  0
  7  6  1  0
  8  6  1  0
  9  8  2  0
 10  9  1  0
 11  9  1  0
 12  5  1  0
 12 11  2  0
 13 12  1  0
 14 13  1  0
 15 14  1  0
 16 15  1  0
 17 16  1  0
 18 17  1  0
 19 18  2  0
 20 19  1  0
 21 20  1  0
 22 19  1  0
 23 22  1  0
 24 22  2  0
 25 17  2  0
 25 24  1  0
 26 14  1  0
 26 25  1  0
 27 11  1  0
 27 26  1  0
 28  1  1  0
 29  1  1  0
 30  1  1  0
 31  2  1  0
 32  2  1  0
 33  3  1  0
 34  3  1  0
 35  7  1  0
 36  8  1  0
 37 13  1  0
 38 13  1  0
 39 15  1  0
 40 15  1  0
 41 16  1  0
 42 16  1  0
 43 18  1  0
 44 21  1  0
 45 21  1  0
 46 21  1  0
 47 23  1  0
 48 24  1  0
 26 49  1  6
 50 27  1  0
 51 27  1  0
 14 52  1  1
M  CHG  1  14   1
M  END
>  <b_m_subgroup_collapsed>  (1487) 
0

>  <r_i_docking_score>  (1487) 
-5.5172992320715304

>  <s_m_subgroup_title>  (1487) 
glide-dock_SP_D22_pv

>  <s_m_subgroupid>  (1487) 
glide-dock_SP_D22_pv

>  <Molecule ChEMBL ID>  (1487) 
CHEMBL3976659

>  <Standard Type>  (1487) 
Ki

>  <Standard Value>  (1487) 
70.0

>  <label>  (1487) 
1

$$$$
CHEMBL562384
     RDKit          3D

 49 52  0  0  1  0  0  0  0  0999 V2000
    3.6865   -1.4696  -16.6818 C   0  0  0  0  0  0  0  0  0  0  0  0
    4.9053   -0.6018  -16.4612 C   0  0  0  0  0  0  0  0  0  0  0  0
    5.4410    0.1306  -17.4912 C   0  0  0  0  0  0  0  0  0  0  0  0
    6.5660    0.9422  -17.2071 C   0  0  0  0  0  0  0  0  0  0  0  0
    7.2793    1.7496  -17.9869 N   0  0  0  0  0  0  0  0  0  0  0  0
    8.2736    2.2659  -17.1800 C   0  0  0  0  0  0  0  0  0  0  0  0
    9.2911    3.2075  -17.7504 C   0  0  0  0  0  0  0  0  0  0  0  0
    8.1705    1.8135  -15.8893 C   0  0  0  0  0  0  0  0  0  0  0  0
    9.1206    2.1441  -14.7686 C   0  0  0  0  0  0  0  0  0  0  0  0
    9.2387    3.5777  -14.4831 N   0  0  0  0  0  0  0  0  0  0  0  0
   10.5746    3.8307  -13.9336 C   0  0  0  0  0  0  0  0  0  0  0  0
   10.7628    5.3197  -13.6034 C   0  0  0  0  0  0  0  0  0  0  0  0
    9.7566    5.7160  -12.6294 N   0  0  0  0  0  0  0  0  0  0  0  0
   10.0675    6.5791  -11.5595 C   0  0  0  0  0  0  0  0  0  0  0  0
    9.2855    6.5760  -10.3839 C   0  0  0  0  0  0  0  0  0  0  0  0
    9.6381    7.4255   -9.3190 C   0  0  0  0  0  0  0  0  0  0  0  0
   10.7753    8.2408   -9.4469 C   0  0  0  0  0  0  0  0  0  0  0  0
   11.5018    8.1717  -10.6475 C   0  0  0  0  0  0  0  0  0  0  0  0
   11.1619    7.3721  -11.6807 N   0  0  0  0  0  0  0  0  0  0  0  0
    8.3846    5.4632  -13.0605 C   0  0  0  0  0  0  0  0  0  0  0  0
    8.2263    3.9870  -13.4945 C   0  0  0  0  0  0  0  0  0  0  0  0
    7.0698    0.9412  -15.8736 N   0  0  0  0  0  0  0  0  0  0  0  0
    6.4377    0.1536  -14.9338 C   0  0  0  0  0  0  0  0  0  0  0  0
    6.9013    0.1110  -13.4963 C   0  0  0  0  0  0  0  0  0  0  0  0
    5.3945   -0.5829  -15.1855 N   0  0  0  0  0  0  0  0  0  0  0  0
    2.7869   -0.8617  -16.6517 H   0  0  0  0  0  0  0  0  0  0  0  0
    3.7329   -1.9801  -17.6451 H   0  0  0  0  0  0  0  0  0  0  0  0
    3.6077   -2.2271  -15.9022 H   0  0  0  0  0  0  0  0  0  0  0  0
    5.0258    0.1033  -18.4928 H   0  0  0  0  0  0  0  0  0  0  0  0
   10.2988    2.9351  -17.4366 H   0  0  0  0  0  0  0  0  0  0  0  0
    9.2750    3.2052  -18.8421 H   0  0  0  0  0  0  0  0  0  0  0  0
    9.1077    4.2289  -17.4187 H   0  0  0  0  0  0  0  0  0  0  0  0
   10.0949    1.7701  -15.0822 H   0  0  0  0  0  0  0  0  0  0  0  0
    8.9052    1.6139  -13.8481 H   0  0  0  0  0  0  0  0  0  0  0  0
   11.3316    3.5313  -14.6626 H   0  0  0  0  0  0  0  0  0  0  0  0
   10.7303    3.2173  -13.0477 H   0  0  0  0  0  0  0  0  0  0  0  0
   10.6517    5.9213  -14.5064 H   0  0  0  0  0  0  0  0  0  0  0  0
   11.7720    5.4824  -13.2230 H   0  0  0  0  0  0  0  0  0  0  0  0
    8.4139    5.9426  -10.2794 H   0  0  0  0  0  0  0  0  0  0  0  0
    9.0394    7.4481   -8.4189 H   0  0  0  0  0  0  0  0  0  0  0  0
   11.0784    8.9036   -8.6518 H   0  0  0  0  0  0  0  0  0  0  0  0
   12.3812    8.7866  -10.7893 H   0  0  0  0  0  0  0  0  0  0  0  0
    7.6625    5.6933  -12.2792 H   0  0  0  0  0  0  0  0  0  0  0  0
    8.1494    6.1236  -13.8950 H   0  0  0  0  0  0  0  0  0  0  0  0
    7.2257    3.8154  -13.8969 H   0  0  0  0  0  0  0  0  0  0  0  0
    8.3205    3.3724  -12.6005 H   0  0  0  0  0  0  0  0  0  0  0  0
    6.3499   -0.6302  -12.9179 H   0  0  0  0  0  0  0  0  0  0  0  0
    7.9529   -0.1553  -13.4357 H   0  0  0  0  0  0  0  0  0  0  0  0
    6.7179    1.0827  -13.0472 H   0  0  0  0  0  0  0  0  0  0  0  0
  2  1  1  0
  3  2  2  0
  4  3  1  0
  5  4  2  0
  6  5  1  0
  7  6  1  0
  8  6  2  0
  9  8  1  0
 10  9  1  0
 11 10  1  0
 12 11  1  0
 13 12  1  0
 14 13  1  0
 15 14  2  0
 16 15  1  0
 17 16  2  0
 18 17  1  0
 19 14  1  0
 19 18  2  0
 20 13  1  0
 21 10  1  0
 21 20  1  0
 22  4  1  0
 22  8  1  0
 23 22  1  0
 24 23  1  0
 25  2  1  0
 25 23  2  0
 26  1  1  0
 27  1  1  0
 28  1  1  0
 29  3  1  0
 30  7  1  0
 31  7  1  0
 32  7  1  0
 33  9  1  0
 34  9  1  0
 35 11  1  0
 36 11  1  0
 37 12  1  0
 38 12  1  0
 39 15  1  0
 40 16  1  0
 41 17  1  0
 42 18  1  0
 43 20  1  0
 44 20  1  0
 45 21  1  0
 46 21  1  0
 47 24  1  0
 48 24  1  0
 49 24  1  0
M  END
>  <b_m_subgroup_collapsed>  (1488) 
0

>  <r_i_docking_score>  (1488) 
-5.5152731924082001

>  <s_m_subgroup_title>  (1488) 
glide-dock_SP_D22_pv

>  <s_m_subgroupid>  (1488) 
glide-dock_SP_D22_pv

>  <Molecule ChEMBL ID>  (1488) 
CHEMBL562384

>  <Standard Type>  (1488) 
Ki

>  <Standard Value>  (1488) 
10000.0

>  <label>  (1488) 
0

$$$$
CHEMBL1223602
     RDKit          3D

 56 59  0  0  1  0  0  0  0  0999 V2000
   12.8479    8.3013   -8.6452 C   0  0  0  0  0  0  0  0  0  0  0  0
   11.7010    8.8736   -7.7894 C   0  0  0  0  0  0  0  0  0  0  0  0
   10.5652    7.8764   -7.4148 C   0  0  0  0  0  0  0  0  0  0  0  0
   11.1286    6.8853   -6.3647 C   0  0  0  0  0  0  0  0  0  0  0  0
    9.4226    8.6625   -6.7482 C   0  0  0  0  0  0  0  0  0  0  0  0
    9.9705    7.1573   -8.6407 C   0  0  0  0  0  0  0  0  0  0  0  0
    9.8428    7.8307   -9.8833 C   0  0  0  0  0  0  0  0  0  0  0  0
    9.2935    7.1818  -11.0055 C   0  0  0  0  0  0  0  0  0  0  0  0
    8.8431    5.8553  -10.8863 C   0  0  0  0  0  0  0  0  0  0  0  0
    8.1772    4.9981  -12.3007 S   0  0  0  0  0  0  0  0  0  0  0  0
    8.0702    5.9168  -13.4456 O   0  0  0  0  0  0  0  0  0  0  0  0
    7.0403    4.1723  -11.8733 O   0  0  0  0  0  0  0  0  0  0  0  0
    9.4467    3.8948  -12.7290 N   0  0  0  0  0  0  0  0  0  0  0  0
   10.4457    4.1312  -13.6749 C   0  0  0  0  0  0  0  0  0  0  0  0
   10.8546    3.0983  -14.5375 C   0  0  0  0  0  0  0  0  0  0  0  0
   11.7543    3.3713  -15.5864 C   0  0  0  0  0  0  0  0  0  0  0  0
   12.2655    4.6726  -15.7766 C   0  0  0  0  0  0  0  0  0  0  0  0
   13.1509    4.9977  -16.9432 C   0  0  2  0  0  0  0  0  0  0  0  0
   14.4847    5.6022  -16.5558 C   0  0  0  0  0  0  0  0  0  0  0  0
   14.4924    6.9516  -17.1613 N   0  0  0  0  0  0  0  0  0  0  0  0
   13.5707    6.9622  -18.3154 C   0  0  0  0  0  0  0  0  0  0  0  0
   12.5962    5.8393  -18.0596 C   0  0  1  0  0  0  0  0  0  0  0  0
   12.9280    4.3883  -18.3112 C   0  0  0  0  0  0  0  0  0  0  0  0
   11.8977    5.6871  -14.8709 C   0  0  0  0  0  0  0  0  0  0  0  0
   11.0050    5.4147  -13.8223 C   0  0  0  0  0  0  0  0  0  0  0  0
    8.9058    5.1856   -9.6527 C   0  0  0  0  0  0  0  0  0  0  0  0
    9.4692    5.8354   -8.5400 C   0  0  0  0  0  0  0  0  0  0  0  0
   13.6999    8.9728   -8.6488 H   0  0  0  0  0  0  0  0  0  0  0  0
   13.2276    7.3723   -8.2464 H   0  0  0  0  0  0  0  0  0  0  0  0
   12.5534    8.1281   -9.6793 H   0  0  0  0  0  0  0  0  0  0  0  0
   11.2857    9.7360   -8.3107 H   0  0  0  0  0  0  0  0  0  0  0  0
   12.1302    9.2858   -6.8757 H   0  0  0  0  0  0  0  0  0  0  0  0
   11.6362    7.4099   -5.5548 H   0  0  0  0  0  0  0  0  0  0  0  0
   10.3441    6.2950   -5.8910 H   0  0  0  0  0  0  0  0  0  0  0  0
   11.8457    6.1896   -6.8027 H   0  0  0  0  0  0  0  0  0  0  0  0
    9.7749    9.2211   -5.8792 H   0  0  0  0  0  0  0  0  0  0  0  0
    8.9783    9.3722   -7.4470 H   0  0  0  0  0  0  0  0  0  0  0  0
    8.6228    7.9977   -6.4159 H   0  0  0  0  0  0  0  0  0  0  0  0
   10.1636    8.8548   -9.9926 H   0  0  0  0  0  0  0  0  0  0  0  0
    9.2047    7.7080  -11.9442 H   0  0  0  0  0  0  0  0  0  0  0  0
    9.2401    2.9216  -12.5523 H   0  0  0  0  0  0  0  0  0  0  0  0
   10.4438    2.1057  -14.4306 H   0  0  0  0  0  0  0  0  0  0  0  0
   12.0325    2.5753  -16.2593 H   0  0  0  0  0  0  0  0  0  0  0  0
   14.6289    5.6531  -15.4748 H   0  0  0  0  0  0  0  0  0  0  0  0
   15.2874    4.9983  -16.9794 H   0  0  0  0  0  0  0  0  0  0  0  0
   15.4228    7.2345  -17.4286 H   0  0  0  0  0  0  0  0  0  0  0  0
   14.1121    6.7769  -19.2435 H   0  0  0  0  0  0  0  0  0  0  0  0
   13.0560    7.9207  -18.3970 H   0  0  0  0  0  0  0  0  0  0  0  0
   11.5434    6.1122  -18.0161 H   0  0  0  0  0  0  0  0  0  0  0  0
   13.7981    4.1811  -18.9308 H   0  0  0  0  0  0  0  0  0  0  0  0
   12.0918    3.7045  -18.4413 H   0  0  0  0  0  0  0  0  0  0  0  0
   12.2749    6.6929  -14.9884 H   0  0  0  0  0  0  0  0  0  0  0  0
   10.7209    6.2157  -13.1599 H   0  0  0  0  0  0  0  0  0  0  0  0
    8.5308    4.1775   -9.5606 H   0  0  0  0  0  0  0  0  0  0  0  0
    9.4907    5.2992   -7.6069 H   0  0  0  0  0  0  0  0  0  0  0  0
   14.1318    7.5997  -16.4760 H   0  0  0  0  0  0  0  0  0  0  0  0
  2  1  1  0
  3  2  1  0
  4  3  1  0
  5  3  1  0
  6  3  1  0
  7  6  1  0
  8  7  2  0
  9  8  1  0
 10  9  1  0
 11 10  2  0
 12 10  2  0
 13 10  1  0
 14 13  1  0
 15 14  1  0
 16 15  2  0
 17 16  1  0
 18 17  1  1
 19 18  1  0
 20 19  1  0
 21 20  1  0
 22 18  1  0
 22 21  1  0
 23 18  1  0
 23 22  1  0
 24 17  2  0
 25 14  2  0
 25 24  1  0
 26  9  2  0
 27  6  2  0
 27 26  1  0
 28  1  1  0
 29  1  1  0
 30  1  1  0
 31  2  1  0
 32  2  1  0
 33  4  1  0
 34  4  1  0
 35  4  1  0
 36  5  1  0
 37  5  1  0
 38  5  1  0
 39  7  1  0
 40  8  1  0
 41 13  1  0
 42 15  1  0
 43 16  1  0
 44 19  1  0
 45 19  1  0
 46 20  1  0
 47 21  1  0
 48 21  1  0
 22 49  1  1
 50 23  1  0
 51 23  1  0
 52 24  1  0
 53 25  1  0
 54 26  1  0
 55 27  1  0
 56 20  1  0
M  CHG  1  20   1
M  END
>  <b_m_subgroup_collapsed>  (1489) 
0

>  <r_i_docking_score>  (1489) 
-5.5134234165500899

>  <s_m_subgroup_title>  (1489) 
glide-dock_SP_D22_pv

>  <s_m_subgroupid>  (1489) 
glide-dock_SP_D22_pv

>  <Molecule ChEMBL ID>  (1489) 
CHEMBL1223602

>  <Standard Type>  (1489) 
Ki

>  <Standard Value>  (1489) 
50.12

>  <label>  (1489) 
1

$$$$
CHEMBL2030629
     RDKit          3D

 34 36  0  0  1  0  0  0  0  0999 V2000
   12.3484    8.0973   -2.0769 C   0  0  0  0  0  0  0  0  0  0  0  0
   12.2144    6.9764   -2.9121 C   0  0  0  0  0  0  0  0  0  0  0  0
   11.8868    7.1925   -4.2609 C   0  0  0  0  0  0  0  0  0  0  0  0
   11.7048    8.5203   -4.7067 C   0  0  0  0  0  0  0  0  0  0  0  0
   11.5061    8.8372   -6.1729 C   0  0  0  0  0  0  0  0  0  0  0  0
   10.2937    8.1275   -6.7724 C   0  0  0  0  0  0  0  0  0  0  0  0
   10.1849    8.4459   -8.2130 N   0  0  1  0  0  0  0  0  0  0  0  0
   11.0055    7.6826   -9.1632 C   0  0  1  0  0  0  0  0  0  0  0  0
   10.3606    6.2791   -9.1703 C   0  0  0  0  0  0  0  0  0  0  0  0
    8.8812    6.6013   -8.9029 C   0  0  0  0  0  0  0  0  0  0  0  0
    8.9034    8.1416   -8.8393 C   0  0  2  0  0  0  0  0  0  0  0  0
    9.1360    8.7024  -10.2519 C   0  0  0  0  0  0  0  0  0  0  0  0
   10.6328    8.3912  -10.4777 C   0  0  0  0  0  0  0  0  0  0  0  0
   11.7578    9.5883   -3.8889 N   0  0  0  0  0  0  0  0  0  0  0  0
   12.0860    9.3716   -2.6030 C   0  0  0  0  0  0  0  0  0  0  0  0
   12.6329    7.9885   -1.0465 H   0  0  0  0  0  0  0  0  0  0  0  0
   12.3866    5.9790   -2.5341 H   0  0  0  0  0  0  0  0  0  0  0  0
   11.8257    6.3540   -4.9409 H   0  0  0  0  0  0  0  0  0  0  0  0
   11.3931    9.9152   -6.2981 H   0  0  0  0  0  0  0  0  0  0  0  0
   12.4138    8.5746   -6.7131 H   0  0  0  0  0  0  0  0  0  0  0  0
   10.3504    7.0529   -6.6034 H   0  0  0  0  0  0  0  0  0  0  0  0
    9.3927    8.4732   -6.2581 H   0  0  0  0  0  0  0  0  0  0  0  0
   12.0772    7.6850   -8.9592 H   0  0  0  0  0  0  0  0  0  0  0  0
   10.7669    5.6384   -8.3877 H   0  0  0  0  0  0  0  0  0  0  0  0
   10.4863    5.7686  -10.1245 H   0  0  0  0  0  0  0  0  0  0  0  0
    8.5453    6.1716   -7.9589 H   0  0  0  0  0  0  0  0  0  0  0  0
    8.2197    6.2247   -9.6836 H   0  0  0  0  0  0  0  0  0  0  0  0
    8.0862    8.6071   -8.2977 H   0  0  0  0  0  0  0  0  0  0  0  0
    8.4875    8.2444  -11.0007 H   0  0  0  0  0  0  0  0  0  0  0  0
    8.9377    9.7726  -10.2494 H   0  0  0  0  0  0  0  0  0  0  0  0
   11.2074    9.3101  -10.5963 H   0  0  0  0  0  0  0  0  0  0  0  0
   10.8068    7.7698  -11.3572 H   0  0  0  0  0  0  0  0  0  0  0  0
   12.1307   10.2378   -1.9668 H   0  0  0  0  0  0  0  0  0  0  0  0
   10.3609    9.4316   -8.3304 H   0  0  0  0  0  0  0  0  0  0  0  0
  2  1  2  0
  3  2  1  0
  4  3  2  0
  5  4  1  0
  6  5  1  0
  7  6  1  0
  8  7  1  0
  9  8  1  0
 10  9  1  0
 11  7  1  0
 11 10  1  0
 12 11  1  0
 13  8  1  0
 13 12  1  0
 14  4  1  0
 15  1  1  0
 15 14  2  0
 16  1  1  0
 17  2  1  0
 18  3  1  0
 19  5  1  0
 20  5  1  0
 21  6  1  0
 22  6  1  0
  8 23  1  1
 24  9  1  0
 25  9  1  0
 26 10  1  0
 27 10  1  0
 11 28  1  1
 29 12  1  0
 30 12  1  0
 31 13  1  0
 32 13  1  0
 33 15  1  0
  7 34  1  1
M  CHG  1   7   1
M  END
>  <b_m_subgroup_collapsed>  (1490) 
0

>  <r_i_docking_score>  (1490) 
-5.5088905738386504

>  <s_m_subgroup_title>  (1490) 
glide-dock_SP_D22_pv

>  <s_m_subgroupid>  (1490) 
glide-dock_SP_D22_pv

>  <Molecule ChEMBL ID>  (1490) 
CHEMBL2030629

>  <Standard Type>  (1490) 
Ki

>  <Standard Value>  (1490) 
10000.0

>  <label>  (1490) 
0

$$$$
CHEMBL422344
     RDKit          3D

 31 33  0  0  1  0  0  0  0  0999 V2000
    7.3003    5.3701  -12.0283 C   0  0  0  0  0  0  0  0  0  0  0  0
    8.4214    4.5955  -11.5019 N   0  0  0  0  0  0  0  0  0  0  0  0
    9.1576    3.9864  -12.6039 C   0  0  0  0  0  0  0  0  0  0  0  0
    9.3051    5.3324  -10.5857 C   0  0  2  0  0  0  0  0  0  0  0  0
    8.6158    5.6472   -9.2295 C   0  0  0  0  0  0  0  0  0  0  0  0
    9.4409    6.5080   -8.2744 C   0  0  0  0  0  0  0  0  0  0  0  0
    9.3260    6.6883   -6.8784 C   0  0  0  0  0  0  0  0  0  0  0  0
   10.2355    7.5346   -6.1857 C   0  0  0  0  0  0  0  0  0  0  0  0
   11.2655    8.2373   -6.8655 C   0  0  0  0  0  0  0  0  0  0  0  0
   11.3626    8.0811   -8.2585 C   0  0  0  0  0  0  0  0  0  0  0  0
   12.2276    8.5719   -9.2287 N   0  0  0  0  0  0  0  0  0  0  0  0
   11.8933    8.0342  -10.4126 C   0  0  0  0  0  0  0  0  0  0  0  0
   12.5159    8.1723  -11.4583 O   0  0  0  0  0  0  0  0  0  0  0  0
   10.7857    7.2829  -10.2300 N   0  0  0  0  0  0  0  0  0  0  0  0
   10.4573    7.2497   -8.8759 C   0  0  0  0  0  0  0  0  0  0  0  0
   10.0025    6.5660  -11.2258 C   0  0  0  0  0  0  0  0  0  0  0  0
    6.6579    4.7325  -12.6370 H   0  0  0  0  0  0  0  0  0  0  0  0
    6.6772    5.7708  -11.2309 H   0  0  0  0  0  0  0  0  0  0  0  0
    7.6333    6.1975  -12.6554 H   0  0  0  0  0  0  0  0  0  0  0  0
    8.4976    3.3543  -13.1978 H   0  0  0  0  0  0  0  0  0  0  0  0
    9.5828    4.7352  -13.2730 H   0  0  0  0  0  0  0  0  0  0  0  0
    9.9668    3.3570  -12.2312 H   0  0  0  0  0  0  0  0  0  0  0  0
   10.0873    4.6235  -10.3245 H   0  0  0  0  0  0  0  0  0  0  0  0
    8.3514    4.7177   -8.7230 H   0  0  0  0  0  0  0  0  0  0  0  0
    7.6860    6.1722   -9.3914 H   0  0  0  0  0  0  0  0  0  0  0  0
    8.5466    6.1736   -6.3360 H   0  0  0  0  0  0  0  0  0  0  0  0
   10.1415    7.6412   -5.1171 H   0  0  0  0  0  0  0  0  0  0  0  0
   11.9531    8.8741   -6.3292 H   0  0  0  0  0  0  0  0  0  0  0  0
    9.2674    7.2702  -11.6146 H   0  0  0  0  0  0  0  0  0  0  0  0
   10.6421    6.2739  -12.0579 H   0  0  0  0  0  0  0  0  0  0  0  0
   13.0088    9.1942   -9.0642 H   0  0  0  0  0  0  0  0  0  0  0  0
  2  1  1  0
  3  2  1  0
  4  2  1  0
  5  4  1  0
  6  5  1  0
  7  6  1  0
  8  7  2  0
  9  8  1  0
 10  9  2  0
 11 10  1  0
 12 11  1  0
 13 12  2  0
 14 12  1  0
 15  6  2  0
 15 10  1  0
 15 14  1  0
 16  4  1  0
 16 14  1  0
 17  1  1  0
 18  1  1  0
 19  1  1  0
 20  3  1  0
 21  3  1  0
 22  3  1  0
  4 23  1  1
 24  5  1  0
 25  5  1  0
 26  7  1  0
 27  8  1  0
 28  9  1  0
 29 16  1  0
 30 16  1  0
 31 11  1  0
M  END
>  <b_m_subgroup_collapsed>  (1491) 
0

>  <r_i_docking_score>  (1491) 
-5.5070285652142097

>  <s_m_subgroup_title>  (1491) 
glide-dock_SP_D22_pv

>  <s_m_subgroupid>  (1491) 
glide-dock_SP_D22_pv

>  <Molecule ChEMBL ID>  (1491) 
CHEMBL422344

>  <Standard Type>  (1491) 
Ki

>  <Standard Value>  (1491) 
12.0

>  <label>  (1491) 
1

$$$$
CHEMBL102162
     RDKit          3D

 33 35  0  0  1  0  0  0  0  0999 V2000
    6.3416    5.2184  -12.4350 C   0  0  0  0  0  0  0  0  0  0  0  0
    6.5283    3.8939  -13.1085 C   0  0  0  0  0  0  0  0  0  0  0  0
    5.3090    2.6707  -12.9308 S   0  0  0  0  0  0  0  0  0  0  0  0
    6.2516    1.5287  -13.8472 C   0  0  0  0  0  0  0  0  0  0  0  0
    5.7526    0.1276  -13.9689 C   0  0  0  0  0  0  0  0  0  0  0  0
    7.4250    2.0866  -14.3121 C   0  0  0  0  0  0  0  0  0  0  0  0
    7.5970    3.4361  -13.8466 C   0  0  0  0  0  0  0  0  0  0  0  0
    8.8552    4.2296  -14.0519 C   0  0  0  0  0  0  0  0  0  0  0  0
   10.0301    3.5531  -13.3238 C   0  0  0  0  0  0  0  0  0  0  0  0
   10.7190    2.4302  -14.1186 C   0  0  0  0  0  0  0  0  0  0  0  0
    9.8262    1.5948  -14.9889 C   0  0  0  0  0  0  0  0  0  0  0  0
   10.3898    0.7644  -15.9237 N   0  0  0  0  0  0  0  0  0  0  0  0
    9.4543    0.1613  -16.6606 C   0  0  0  0  0  0  0  0  0  0  0  0
    8.2709    0.5950  -16.2167 N   0  0  0  0  0  0  0  0  0  0  0  0
    7.0280    0.1915  -16.8811 C   0  0  0  0  0  0  0  0  0  0  0  0
    8.4598    1.4329  -15.1399 C   0  0  0  0  0  0  0  0  0  0  0  0
    6.7058    6.0471  -13.0464 H   0  0  0  0  0  0  0  0  0  0  0  0
    6.8732    5.2448  -11.4792 H   0  0  0  0  0  0  0  0  0  0  0  0
    5.2863    5.4073  -12.2255 H   0  0  0  0  0  0  0  0  0  0  0  0
    6.5704   -0.5778  -14.1047 H   0  0  0  0  0  0  0  0  0  0  0  0
    5.0604    0.0329  -14.8045 H   0  0  0  0  0  0  0  0  0  0  0  0
    5.2222   -0.1625  -13.0630 H   0  0  0  0  0  0  0  0  0  0  0  0
    9.0751    4.3539  -15.1124 H   0  0  0  0  0  0  0  0  0  0  0  0
    8.7448    5.2407  -13.6605 H   0  0  0  0  0  0  0  0  0  0  0  0
   10.7832    4.3024  -13.0750 H   0  0  0  0  0  0  0  0  0  0  0  0
    9.6836    3.1677  -12.3657 H   0  0  0  0  0  0  0  0  0  0  0  0
   11.4589    2.8938  -14.7718 H   0  0  0  0  0  0  0  0  0  0  0  0
   11.2829    1.7798  -13.4481 H   0  0  0  0  0  0  0  0  0  0  0  0
    9.6238   -0.5197  -17.4758 H   0  0  0  0  0  0  0  0  0  0  0  0
    6.2535    0.9353  -16.6998 H   0  0  0  0  0  0  0  0  0  0  0  0
    6.7164   -0.7835  -16.5020 H   0  0  0  0  0  0  0  0  0  0  0  0
    7.1949    0.1213  -17.9547 H   0  0  0  0  0  0  0  0  0  0  0  0
   11.3867    0.6420  -16.0505 H   0  0  0  0  0  0  0  0  0  0  0  0
  2  1  1  0
  3  2  1  0
  4  3  1  0
  5  4  1  0
  6  4  2  0
  7  2  2  0
  7  6  1  0
  8  7  1  0
  9  8  1  0
 10  9  1  0
 11 10  1  0
 12 11  1  0
 13 12  2  0
 14 13  1  0
 15 14  1  0
 16  6  1  0
 16 11  2  0
 16 14  1  0
 17  1  1  0
 18  1  1  0
 19  1  1  0
 20  5  1  0
 21  5  1  0
 22  5  1  0
 23  8  1  0
 24  8  1  0
 25  9  1  0
 26  9  1  0
 27 10  1  0
 28 10  1  0
 29 13  1  0
 30 15  1  0
 31 15  1  0
 32 15  1  0
 33 12  1  0
M  CHG  1  12   1
M  END
>  <b_m_subgroup_collapsed>  (1492) 
0

>  <r_i_docking_score>  (1492) 
-5.4971089435672198

>  <s_m_subgroup_title>  (1492) 
glide-dock_SP_D22_pv

>  <s_m_subgroupid>  (1492) 
glide-dock_SP_D22_pv

>  <Molecule ChEMBL ID>  (1492) 
CHEMBL102162

>  <Standard Type>  (1492) 
Ki

>  <Standard Value>  (1492) 
10000.0

>  <label>  (1492) 
0

$$$$
CHEMBL99085
     RDKit          3D

 32 34  0  0  1  0  0  0  0  0999 V2000
    9.3928   -0.1157  -16.2089 C   0  0  0  0  0  0  0  0  0  0  0  0
    8.9401    0.8337  -15.0912 C   0  0  0  0  0  0  0  0  0  0  0  0
   10.0759    1.5941  -14.3763 C   0  0  0  0  0  0  0  0  0  0  0  0
   10.6581    2.6700  -15.1623 N   0  0  0  0  0  0  0  0  0  0  0  0
   11.4146    2.3506  -16.2374 N   0  0  0  0  0  0  0  0  0  0  0  0
   11.8847    3.4978  -16.6902 C   0  0  0  0  0  0  0  0  0  0  0  0
   11.4559    4.6041  -15.9093 C   0  0  0  0  0  0  0  0  0  0  0  0
   10.6596    4.0423  -14.9528 C   0  0  0  0  0  0  0  0  0  0  0  0
   10.0325    4.7512  -13.8375 C   0  0  0  0  0  0  0  0  0  0  0  0
    8.7516    4.6435  -13.3369 C   0  0  0  0  0  0  0  0  0  0  0  0
    7.4443    3.6539  -13.8469 Cl  0  0  0  0  0  0  0  0  0  0  0  0
    8.4232    5.7260  -12.0165 S   0  0  0  0  0  0  0  0  0  0  0  0
   10.0283    6.3661  -12.1472 C   0  0  0  0  0  0  0  0  0  0  0  0
   10.4966    7.6092  -11.0531 Cl  0  0  0  0  0  0  0  0  0  0  0  0
   10.7642    5.7721  -13.1428 C   0  0  0  0  0  0  0  0  0  0  0  0
   12.1971    6.1091  -13.4650 C   0  0  0  0  0  0  0  0  0  0  0  0
   12.4313    6.7414  -14.8570 C   0  0  0  0  0  0  0  0  0  0  0  0
   11.7723    6.0639  -16.0845 C   0  0  0  0  0  0  0  0  0  0  0  0
    8.5319   -0.6270  -16.6364 H   0  0  0  0  0  0  0  0  0  0  0  0
   10.0805   -0.8725  -15.8304 H   0  0  0  0  0  0  0  0  0  0  0  0
    9.8817    0.4141  -17.0252 H   0  0  0  0  0  0  0  0  0  0  0  0
    8.2177    1.5416  -15.4982 H   0  0  0  0  0  0  0  0  0  0  0  0
    8.4006    0.2471  -14.3464 H   0  0  0  0  0  0  0  0  0  0  0  0
    9.7008    2.0172  -13.4469 H   0  0  0  0  0  0  0  0  0  0  0  0
   10.8744    0.9045  -14.0979 H   0  0  0  0  0  0  0  0  0  0  0  0
   12.5271    3.4925  -17.5582 H   0  0  0  0  0  0  0  0  0  0  0  0
   12.6147    6.7734  -12.7090 H   0  0  0  0  0  0  0  0  0  0  0  0
   12.7961    5.1990  -13.3972 H   0  0  0  0  0  0  0  0  0  0  0  0
   12.1219    7.7869  -14.8370 H   0  0  0  0  0  0  0  0  0  0  0  0
   13.5101    6.7654  -15.0163 H   0  0  0  0  0  0  0  0  0  0  0  0
   12.3993    6.2286  -16.9609 H   0  0  0  0  0  0  0  0  0  0  0  0
   10.8453    6.5844  -16.3084 H   0  0  0  0  0  0  0  0  0  0  0  0
  2  1  1  0
  3  2  1  0
  4  3  1  0
  5  4  1  0
  6  5  2  0
  7  6  1  0
  8  4  1  0
  8  7  2  0
  9  8  1  0
 10  9  2  0
 11 10  1  0
 12 10  1  0
 13 12  1  0
 14 13  1  0
 15  9  1  0
 15 13  2  0
 16 15  1  0
 17 16  1  0
 18  7  1  0
 18 17  1  0
 19  1  1  0
 20  1  1  0
 21  1  1  0
 22  2  1  0
 23  2  1  0
 24  3  1  0
 25  3  1  0
 26  6  1  0
 27 16  1  0
 28 16  1  0
 29 17  1  0
 30 17  1  0
 31 18  1  0
 32 18  1  0
M  END
>  <b_m_subgroup_collapsed>  (1493) 
0

>  <r_i_docking_score>  (1493) 
-5.4967564266415003

>  <s_m_subgroup_title>  (1493) 
glide-dock_SP_D22_pv

>  <s_m_subgroupid>  (1493) 
glide-dock_SP_D22_pv

>  <Molecule ChEMBL ID>  (1493) 
CHEMBL99085

>  <Standard Type>  (1493) 
Ki

>  <Standard Value>  (1493) 
10000.0

>  <label>  (1493) 
0

$$$$
CHEMBL4104216
     RDKit          3D

 56 60  0  0  1  0  0  0  0  0999 V2000
    8.9925    0.6374  -17.8390 O   0  0  0  0  0  0  0  0  0  0  0  0
    9.1150    0.4030  -16.3921 S   0  0  0  0  0  0  0  0  0  0  0  0
   10.0288   -0.6277  -15.8778 O   0  0  0  0  0  0  0  0  0  0  0  0
    9.6462    1.8924  -15.7196 N   0  0  0  0  0  0  0  0  0  0  0  0
    8.8943    3.0980  -16.0419 C   0  0  0  0  0  0  0  0  0  0  0  0
    9.8205    4.3170  -16.1006 C   0  0  0  0  0  0  0  0  0  0  0  0
   10.3393    4.7163  -14.7920 N   0  0  0  0  0  0  0  0  0  0  0  0
    9.2534    5.1996  -13.9250 C   0  0  0  0  0  0  0  0  0  0  0  0
    9.7124    6.0747  -12.7675 C   0  0  0  0  0  0  0  0  0  0  0  0
   10.9571    6.5723  -12.6469 C   0  0  0  0  0  0  0  0  0  0  0  0
   11.3772    7.3476  -11.4635 C   0  0  0  0  0  0  0  0  0  0  0  0
   12.4860    8.1416  -11.4134 C   0  0  0  0  0  0  0  0  0  0  0  0
   12.6173    8.5723  -10.1123 N   0  0  0  0  0  0  0  0  0  0  0  0
   11.6216    8.0976   -9.3006 C   0  0  0  0  0  0  0  0  0  0  0  0
   11.3664    8.2816   -7.9307 C   0  0  0  0  0  0  0  0  0  0  0  0
   10.3057    7.5793   -7.3389 C   0  0  0  0  0  0  0  0  0  0  0  0
    9.5356    6.7159   -8.1366 C   0  0  0  0  0  0  0  0  0  0  0  0
    8.3035    5.7723   -7.4469 Cl  0  0  0  0  0  0  0  0  0  0  0  0
    9.7710    6.5724   -9.5089 C   0  0  0  0  0  0  0  0  0  0  0  0
   10.8185    7.2721  -10.1386 C   0  0  0  0  0  0  0  0  0  0  0  0
   11.9900    6.1825  -13.6918 C   0  0  0  0  0  0  0  0  0  0  0  0
   11.3492    5.7468  -15.0164 C   0  0  0  0  0  0  0  0  0  0  0  0
    7.4816    0.1723  -15.6281 C   0  0  0  0  0  0  0  0  0  0  0  0
    7.3708    0.5509  -14.2720 C   0  0  0  0  0  0  0  0  0  0  0  0
    6.1502    0.4276  -13.5852 C   0  0  0  0  0  0  0  0  0  0  0  0
    5.0244   -0.0866  -14.2465 C   0  0  0  0  0  0  0  0  0  0  0  0
    5.1177   -0.4920  -15.5915 C   0  0  0  0  0  0  0  0  0  0  0  0
    3.9703   -1.0277  -16.2130 C   0  0  0  0  0  0  0  0  0  0  0  0
    4.0226   -1.4513  -17.5509 C   0  0  0  0  0  0  0  0  0  0  0  0
    5.2289   -1.3565  -18.2633 C   0  0  0  0  0  0  0  0  0  0  0  0
    6.3792   -0.8303  -17.6446 C   0  0  0  0  0  0  0  0  0  0  0  0
    6.3457   -0.3693  -16.3041 C   0  0  0  0  0  0  0  0  0  0  0  0
    9.9305    1.8255  -14.7425 H   0  0  0  0  0  0  0  0  0  0  0  0
    8.0860    3.2185  -15.3236 H   0  0  0  0  0  0  0  0  0  0  0  0
    8.4264    2.9727  -17.0185 H   0  0  0  0  0  0  0  0  0  0  0  0
    9.2928    5.1568  -16.5557 H   0  0  0  0  0  0  0  0  0  0  0  0
   10.6515    4.0829  -16.7683 H   0  0  0  0  0  0  0  0  0  0  0  0
    8.7209    4.3445  -13.5087 H   0  0  0  0  0  0  0  0  0  0  0  0
    8.5292    5.7724  -14.5041 H   0  0  0  0  0  0  0  0  0  0  0  0
    8.9405    6.3298  -12.0608 H   0  0  0  0  0  0  0  0  0  0  0  0
   13.1968    8.4282  -12.1756 H   0  0  0  0  0  0  0  0  0  0  0  0
   13.3210    9.2648   -9.8502 H   0  0  0  0  0  0  0  0  0  0  0  0
   11.9971    8.9259   -7.3367 H   0  0  0  0  0  0  0  0  0  0  0  0
   10.0995    7.6752   -6.2829 H   0  0  0  0  0  0  0  0  0  0  0  0
    9.1482    5.8836  -10.0552 H   0  0  0  0  0  0  0  0  0  0  0  0
   12.6383    7.0311  -13.9070 H   0  0  0  0  0  0  0  0  0  0  0  0
   12.6237    5.3931  -13.2864 H   0  0  0  0  0  0  0  0  0  0  0  0
   10.8973    6.5989  -15.5221 H   0  0  0  0  0  0  0  0  0  0  0  0
   12.1290    5.3659  -15.6775 H   0  0  0  0  0  0  0  0  0  0  0  0
    8.2322    0.9341  -13.7470 H   0  0  0  0  0  0  0  0  0  0  0  0
    6.0799    0.7253  -12.5495 H   0  0  0  0  0  0  0  0  0  0  0  0
    4.0871   -0.1738  -13.7169 H   0  0  0  0  0  0  0  0  0  0  0  0
    3.0416   -1.1224  -15.6686 H   0  0  0  0  0  0  0  0  0  0  0  0
    3.1429   -1.8671  -18.0210 H   0  0  0  0  0  0  0  0  0  0  0  0
    5.2769   -1.7032  -19.2851 H   0  0  0  0  0  0  0  0  0  0  0  0
    7.2793   -0.8262  -18.2319 H   0  0  0  0  0  0  0  0  0  0  0  0
  2  1  2  0
  3  2  2  0
  4  2  1  0
  5  4  1  0
  6  5  1  0
  7  6  1  0
  8  7  1  0
  9  8  1  0
 10  9  2  0
 11 10  1  0
 12 11  2  0
 13 12  1  0
 14 13  1  0
 15 14  2  0
 16 15  1  0
 17 16  2  0
 18 17  1  0
 19 17  1  0
 20 11  1  0
 20 14  1  0
 20 19  2  0
 21 10  1  0
 22  7  1  0
 22 21  1  0
 23  2  1  0
 24 23  2  0
 25 24  1  0
 26 25  2  0
 27 26  1  0
 28 27  2  0
 29 28  1  0
 30 29  2  0
 31 30  1  0
 32 23  1  0
 32 27  1  0
 32 31  2  0
 33  4  1  0
 34  5  1  0
 35  5  1  0
 36  6  1  0
 37  6  1  0
 38  8  1  0
 39  8  1  0
 40  9  1  0
 41 12  1  0
 42 13  1  0
 43 15  1  0
 44 16  1  0
 45 19  1  0
 46 21  1  0
 47 21  1  0
 48 22  1  0
 49 22  1  0
 50 24  1  0
 51 25  1  0
 52 26  1  0
 53 28  1  0
 54 29  1  0
 55 30  1  0
 56 31  1  0
M  END
>  <b_m_subgroup_collapsed>  (1494) 
0

>  <r_i_docking_score>  (1494) 
-5.4904605056907503

>  <s_m_subgroup_title>  (1494) 
glide-dock_SP_D22_pv

>  <s_m_subgroupid>  (1494) 
glide-dock_SP_D22_pv

>  <Molecule ChEMBL ID>  (1494) 
CHEMBL4104216

>  <Standard Type>  (1494) 
Ki

>  <Standard Value>  (1494) 
37.0

>  <label>  (1494) 
1

$$$$
CHEMBL440390
     RDKit          3D

 33 33  0  0  1  0  0  0  0  0999 V2000
    9.0373    4.5222  -13.3147 C   0  0  0  0  0  0  0  0  0  0  0  0
    9.1467    4.7437  -11.8037 C   0  0  0  0  0  0  0  0  0  0  0  0
    9.4970    6.0946  -11.5513 O   0  0  0  0  0  0  0  0  0  0  0  0
    9.6862    6.4983  -10.2850 C   0  0  0  0  0  0  0  0  0  0  0  0
    9.6253    5.7729   -9.2908 O   0  0  0  0  0  0  0  0  0  0  0  0
   10.0249    7.9903  -10.1893 C   0  0  0  0  0  0  0  0  0  0  0  0
   11.3992    8.3029   -9.5511 C   0  0  0  0  0  0  0  0  0  0  0  0
   11.6159    7.8976   -8.0733 C   0  0  0  0  0  0  0  0  0  0  0  0
   10.8119    8.7034   -7.0311 C   0  0  1  0  0  0  0  0  0  0  0  0
    8.8944    8.1722   -7.0468 Br  0  0  0  0  0  0  0  0  0  0  0  0
   11.2825    8.4747   -5.6017 C   0  0  0  0  0  0  0  0  0  0  0  0
   11.2859    7.1749   -5.0471 C   0  0  0  0  0  0  0  0  0  0  0  0
   11.6899    6.9723   -3.7134 C   0  0  0  0  0  0  0  0  0  0  0  0
   12.0868    8.0664   -2.9227 C   0  0  0  0  0  0  0  0  0  0  0  0
   12.0860    9.3631   -3.4694 C   0  0  0  0  0  0  0  0  0  0  0  0
   11.6849    9.5673   -4.8048 C   0  0  0  0  0  0  0  0  0  0  0  0
    8.7678    3.4890  -13.5353 H   0  0  0  0  0  0  0  0  0  0  0  0
    8.2759    5.1687  -13.7520 H   0  0  0  0  0  0  0  0  0  0  0  0
    9.9853    4.7337  -13.8106 H   0  0  0  0  0  0  0  0  0  0  0  0
    9.9000    4.0767  -11.3814 H   0  0  0  0  0  0  0  0  0  0  0  0
    8.1961    4.5138  -11.3206 H   0  0  0  0  0  0  0  0  0  0  0  0
    9.2202    8.4993   -9.6614 H   0  0  0  0  0  0  0  0  0  0  0  0
   10.0092    8.4017  -11.1986 H   0  0  0  0  0  0  0  0  0  0  0  0
   11.5928    9.3713   -9.6537 H   0  0  0  0  0  0  0  0  0  0  0  0
   12.1689    7.8170  -10.1526 H   0  0  0  0  0  0  0  0  0  0  0  0
   12.6732    8.0687   -7.8655 H   0  0  0  0  0  0  0  0  0  0  0  0
   11.4656    6.8294   -7.9264 H   0  0  0  0  0  0  0  0  0  0  0  0
   10.8517    9.7671   -7.2668 H   0  0  0  0  0  0  0  0  0  0  0  0
   10.9658    6.3285   -5.6378 H   0  0  0  0  0  0  0  0  0  0  0  0
   11.6851    5.9772   -3.2938 H   0  0  0  0  0  0  0  0  0  0  0  0
   12.3878    7.9134   -1.8969 H   0  0  0  0  0  0  0  0  0  0  0  0
   12.3895   10.1996   -2.8580 H   0  0  0  0  0  0  0  0  0  0  0  0
   11.6798   10.5681   -5.2111 H   0  0  0  0  0  0  0  0  0  0  0  0
  2  1  1  0
  3  2  1  0
  4  3  1  0
  5  4  2  0
  6  4  1  0
  7  6  1  0
  8  7  1  0
  9  8  1  0
 10  9  1  0
 11  9  1  0
 12 11  2  0
 13 12  1  0
 14 13  2  0
 15 14  1  0
 16 11  1  0
 16 15  2  0
 17  1  1  0
 18  1  1  0
 19  1  1  0
 20  2  1  0
 21  2  1  0
 22  6  1  0
 23  6  1  0
 24  7  1  0
 25  7  1  0
 26  8  1  0
 27  8  1  0
  9 28  1  6
 29 12  1  0
 30 13  1  0
 31 14  1  0
 32 15  1  0
 33 16  1  0
M  END
>  <b_m_subgroup_collapsed>  (1495) 
0

>  <r_i_docking_score>  (1495) 
-5.4894798854063396

>  <s_m_subgroup_title>  (1495) 
glide-dock_SP_D22_pv

>  <s_m_subgroupid>  (1495) 
glide-dock_SP_D22_pv

>  <Molecule ChEMBL ID>  (1495) 
CHEMBL440390

>  <Standard Type>  (1495) 
Ki

>  <Standard Value>  (1495) 
10000.0

>  <label>  (1495) 
0

$$$$
CHEMBL1080556
     RDKit          3D

 57 61  0  0  1  0  0  0  0  0999 V2000
   11.1421    1.5396  -16.4323 C   0  0  0  0  0  0  0  0  0  0  0  0
   10.5478    2.2728  -17.6515 C   0  0  1  0  0  0  0  0  0  0  0  0
   10.8772    3.7842  -17.7224 C   0  0  0  0  0  0  0  0  0  0  0  0
   12.3031    4.0083  -18.0164 N   0  0  0  0  0  0  0  0  0  0  0  0
   13.1575    4.8128  -17.3254 C   0  0  0  0  0  0  0  0  0  0  0  0
   14.2811    5.1068  -17.7364 O   0  0  0  0  0  0  0  0  0  0  0  0
   12.7019    5.3793  -16.0079 C   0  0  0  0  0  0  0  0  0  0  0  0
   12.7375    6.7691  -15.7653 C   0  0  0  0  0  0  0  0  0  0  0  0
   12.2808    7.2887  -14.5340 C   0  0  0  0  0  0  0  0  0  0  0  0
   11.7534    6.4384  -13.5345 C   0  0  0  0  0  0  0  0  0  0  0  0
   11.2395    6.9723  -12.2527 C   0  0  0  0  0  0  0  0  0  0  0  0
   12.0856    7.7724  -11.4514 C   0  0  0  0  0  0  0  0  0  0  0  0
   11.6600    8.2755  -10.2079 C   0  0  0  0  0  0  0  0  0  0  0  0
   10.3653    7.9868   -9.7436 C   0  0  0  0  0  0  0  0  0  0  0  0
    9.5060    7.1936  -10.5250 C   0  0  0  0  0  0  0  0  0  0  0  0
    9.9337    6.6908  -11.7694 C   0  0  0  0  0  0  0  0  0  0  0  0
    8.8160    5.7329  -12.6769 Cl  0  0  0  0  0  0  0  0  0  0  0  0
   11.7696    5.0486  -13.7777 C   0  0  0  0  0  0  0  0  0  0  0  0
   12.2740    4.5266  -14.9751 C   0  0  0  0  0  0  0  0  0  0  0  0
   12.6671    3.3856  -19.2974 C   0  0  0  0  0  0  0  0  0  0  0  0
   12.3650    1.8732  -19.2605 C   0  0  0  0  0  0  0  0  0  0  0  0
   10.9521    1.6160  -18.9119 N   0  0  0  0  0  0  0  0  0  0  0  0
   10.1176    0.9543  -19.7614 C   0  0  0  0  0  0  0  0  0  0  0  0
   10.4487    0.6291  -20.9025 O   0  0  0  0  0  0  0  0  0  0  0  0
    8.7255    0.5995  -19.3015 C   0  0  0  0  0  0  0  0  0  0  0  0
    8.5161   -0.1419  -18.1168 C   0  0  0  0  0  0  0  0  0  0  0  0
    7.2160   -0.4837  -17.6971 C   0  0  0  0  0  0  0  0  0  0  0  0
    6.0861   -0.1511  -18.4734 C   0  0  0  0  0  0  0  0  0  0  0  0
    4.6742   -0.3768  -18.3439 C   0  0  0  0  0  0  0  0  0  0  0  0
    4.0857    0.1730  -19.4504 C   0  0  0  0  0  0  0  0  0  0  0  0
    5.0677    0.7341  -20.2515 N   0  0  0  0  0  0  0  0  0  0  0  0
    6.3158    0.5633  -19.6856 C   0  0  0  0  0  0  0  0  0  0  0  0
    7.6097    0.9389  -20.0976 C   0  0  0  0  0  0  0  0  0  0  0  0
   10.7003    1.9088  -15.5055 H   0  0  0  0  0  0  0  0  0  0  0  0
   10.9639    0.4655  -16.4645 H   0  0  0  0  0  0  0  0  0  0  0  0
   12.2221    1.6711  -16.3673 H   0  0  0  0  0  0  0  0  0  0  0  0
    9.4663    2.2420  -17.5274 H   0  0  0  0  0  0  0  0  0  0  0  0
   10.5207    4.2816  -16.8224 H   0  0  0  0  0  0  0  0  0  0  0  0
   10.2965    4.2384  -18.5275 H   0  0  0  0  0  0  0  0  0  0  0  0
   13.1021    7.4440  -16.5269 H   0  0  0  0  0  0  0  0  0  0  0  0
   12.3070    8.3569  -14.3721 H   0  0  0  0  0  0  0  0  0  0  0  0
   13.0824    8.0079  -11.7960 H   0  0  0  0  0  0  0  0  0  0  0  0
   12.3254    8.8873   -9.6151 H   0  0  0  0  0  0  0  0  0  0  0  0
   10.0249    8.3703   -8.7927 H   0  0  0  0  0  0  0  0  0  0  0  0
    8.5054    6.9746  -10.1735 H   0  0  0  0  0  0  0  0  0  0  0  0
   11.3950    4.3574  -13.0426 H   0  0  0  0  0  0  0  0  0  0  0  0
   12.3076    3.4613  -15.0997 H   0  0  0  0  0  0  0  0  0  0  0  0
   12.1037    3.8617  -20.1012 H   0  0  0  0  0  0  0  0  0  0  0  0
   13.7198    3.5263  -19.5442 H   0  0  0  0  0  0  0  0  0  0  0  0
   12.6474    1.4350  -20.2194 H   0  0  0  0  0  0  0  0  0  0  0  0
   13.0081    1.3845  -18.5273 H   0  0  0  0  0  0  0  0  0  0  0  0
    9.3515   -0.4625  -17.5158 H   0  0  0  0  0  0  0  0  0  0  0  0
    7.0807   -1.0290  -16.7742 H   0  0  0  0  0  0  0  0  0  0  0  0
    4.1824   -0.8937  -17.5318 H   0  0  0  0  0  0  0  0  0  0  0  0
    3.0408    0.2057  -19.7311 H   0  0  0  0  0  0  0  0  0  0  0  0
    4.8721    1.1675  -21.1424 H   0  0  0  0  0  0  0  0  0  0  0  0
    7.7478    1.4704  -21.0285 H   0  0  0  0  0  0  0  0  0  0  0  0
  2  1  1  0
  3  2  1  0
  4  3  1  0
  5  4  1  0
  6  5  2  0
  7  5  1  0
  8  7  1  0
  9  8  2  0
 10  9  1  0
 11 10  1  0
 12 11  2  0
 13 12  1  0
 14 13  2  0
 15 14  1  0
 16 11  1  0
 16 15  2  0
 17 16  1  0
 18 10  2  0
 19  7  2  0
 19 18  1  0
 20  4  1  0
 21 20  1  0
 22  2  1  0
 22 21  1  0
 23 22  1  0
 24 23  2  0
 25 23  1  0
 26 25  2  0
 27 26  1  0
 28 27  2  0
 29 28  1  0
 30 29  2  0
 31 30  1  0
 32 28  1  0
 32 31  1  0
 33 25  1  0
 33 32  2  0
 34  1  1  0
 35  1  1  0
 36  1  1  0
  2 37  1  1
 38  3  1  0
 39  3  1  0
 40  8  1  0
 41  9  1  0
 42 12  1  0
 43 13  1  0
 44 14  1  0
 45 15  1  0
 46 18  1  0
 47 19  1  0
 48 20  1  0
 49 20  1  0
 50 21  1  0
 51 21  1  0
 52 26  1  0
 53 27  1  0
 54 29  1  0
 55 30  1  0
 56 31  1  0
 57 33  1  0
M  END
>  <b_m_subgroup_collapsed>  (1496) 
0

>  <r_i_docking_score>  (1496) 
-5.4875784632941302

>  <s_m_subgroup_title>  (1496) 
glide-dock_SP_D22_pv

>  <s_m_subgroupid>  (1496) 
glide-dock_SP_D22_pv

>  <Molecule ChEMBL ID>  (1496) 
CHEMBL1080556

>  <Standard Type>  (1496) 
Ki

>  <Standard Value>  (1496) 
10000.0

>  <label>  (1496) 
0

$$$$
CHEMBL241099
     RDKit          3D

 40 43  0  0  1  0  0  0  0  0999 V2000
    7.4969    0.5497  -15.6490 C   0  0  0  0  0  0  0  0  0  0  0  0
    6.5030    1.2677  -14.9319 O   0  0  0  0  0  0  0  0  0  0  0  0
    6.8856    2.3989  -14.2446 C   0  0  0  0  0  0  0  0  0  0  0  0
    5.9173    2.9924  -13.4076 C   0  0  0  0  0  0  0  0  0  0  0  0
    6.2290    4.1200  -12.6255 C   0  0  0  0  0  0  0  0  0  0  0  0
    7.5223    4.6628  -12.6868 C   0  0  0  0  0  0  0  0  0  0  0  0
    8.1212    5.7246  -12.0272 N   0  0  0  0  0  0  0  0  0  0  0  0
    9.4288    5.8546  -12.4647 C   0  0  0  0  0  0  0  0  0  0  0  0
    9.7087    4.9041  -13.3934 C   0  0  0  0  0  0  0  0  0  0  0  0
    8.5240    4.1110  -13.5467 C   0  0  0  0  0  0  0  0  0  0  0  0
    8.1801    2.9733  -14.3136 C   0  0  0  0  0  0  0  0  0  0  0  0
   11.0745    4.8500  -13.9946 C   0  0  0  0  0  0  0  0  0  0  0  0
   11.7197    6.2650  -13.9216 C   0  0  0  0  0  0  0  0  0  0  0  0
   11.5029    6.9724  -12.6464 N   0  0  0  0  0  0  0  0  0  0  0  0
   10.4018    6.8345  -12.0037 C   0  0  0  0  0  0  0  0  0  0  0  0
   10.2111    7.5475  -10.7535 C   0  0  0  0  0  0  0  0  0  0  0  0
   10.8668    7.3328   -9.5730 C   0  0  0  0  0  0  0  0  0  0  0  0
   10.3085    8.2217   -8.6227 C   0  0  0  0  0  0  0  0  0  0  0  0
   10.7096    8.3078   -7.2132 N   0  0  0  0  0  0  0  0  0  0  0  0
   10.4588    9.3405   -6.6015 O   0  0  0  0  0  0  0  0  0  0  0  0
   11.2859    7.3405   -6.7279 O   0  0  0  0  0  0  0  0  0  0  0  0
    9.3461    8.9725   -9.2283 C   0  0  0  0  0  0  0  0  0  0  0  0
    9.2861    8.5716  -10.5555 N   0  0  0  0  0  0  0  0  0  0  0  0
    8.3833    9.1356  -11.5469 C   0  0  0  0  0  0  0  0  0  0  0  0
    7.0518   -0.3474  -16.0786 H   0  0  0  0  0  0  0  0  0  0  0  0
    8.3109    0.2320  -14.9947 H   0  0  0  0  0  0  0  0  0  0  0  0
    7.9022    1.1426  -16.4706 H   0  0  0  0  0  0  0  0  0  0  0  0
    4.9292    2.5602  -13.3482 H   0  0  0  0  0  0  0  0  0  0  0  0
    5.4917    4.5525  -11.9646 H   0  0  0  0  0  0  0  0  0  0  0  0
    7.6902    6.3282  -11.3315 H   0  0  0  0  0  0  0  0  0  0  0  0
    8.9461    2.5510  -14.9447 H   0  0  0  0  0  0  0  0  0  0  0  0
   11.6910    4.1361  -13.4488 H   0  0  0  0  0  0  0  0  0  0  0  0
   11.0366    4.5044  -15.0279 H   0  0  0  0  0  0  0  0  0  0  0  0
   12.7893    6.1828  -14.1169 H   0  0  0  0  0  0  0  0  0  0  0  0
   11.3221    6.8783  -14.7311 H   0  0  0  0  0  0  0  0  0  0  0  0
   11.6442    6.6047   -9.4150 H   0  0  0  0  0  0  0  0  0  0  0  0
    8.7071    9.7568   -8.8426 H   0  0  0  0  0  0  0  0  0  0  0  0
    7.6508    9.7737  -11.0541 H   0  0  0  0  0  0  0  0  0  0  0  0
    7.8387    8.3492  -12.0650 H   0  0  0  0  0  0  0  0  0  0  0  0
    8.9290    9.7184  -12.2864 H   0  0  0  0  0  0  0  0  0  0  0  0
  2  1  1  0
  3  2  1  0
  4  3  2  0
  5  4  1  0
  6  5  2  0
  7  6  1  0
  8  7  1  0
  9  8  2  0
 10  6  1  0
 10  9  1  0
 11  3  1  0
 11 10  2  0
 12  9  1  0
 13 12  1  0
 14 13  1  0
 15  8  1  0
 15 14  2  0
 16 15  1  0
 17 16  2  0
 18 17  1  0
 19 18  1  0
 20 19  2  0
 21 19  1  0
 22 18  2  0
 23 16  1  0
 23 22  1  0
 24 23  1  0
 25  1  1  0
 26  1  1  0
 27  1  1  0
 28  4  1  0
 29  5  1  0
 30  7  1  0
 31 11  1  0
 32 12  1  0
 33 12  1  0
 34 13  1  0
 35 13  1  0
 36 17  1  0
 37 22  1  0
 38 24  1  0
 39 24  1  0
 40 24  1  0
M  CHG  2  19   1  21  -1
M  END
>  <b_m_subgroup_collapsed>  (1497) 
0

>  <r_i_docking_score>  (1497) 
-5.4828314851863498

>  <s_m_subgroup_title>  (1497) 
glide-dock_SP_D22_pv

>  <s_m_subgroupid>  (1497) 
glide-dock_SP_D22_pv

>  <Molecule ChEMBL ID>  (1497) 
CHEMBL241099

>  <Standard Type>  (1497) 
Ki

>  <Standard Value>  (1497) 
200000.0

>  <label>  (1497) 
0

$$$$
CHEMBL404352
     RDKit          3D

 33 35  0  0  1  0  0  0  0  0999 V2000
    8.1142    0.7845  -16.3023 C   0  0  0  0  0  0  0  0  0  0  0  0
    8.8685    2.0312  -15.7451 C   0  0  1  0  0  0  0  0  0  0  0  0
    8.0483    2.7763  -14.6470 C   0  0  0  0  0  0  0  0  0  0  0  0
    6.7647    2.3192  -14.2470 C   0  0  0  0  0  0  0  0  0  0  0  0
    6.0063    3.0078  -13.2789 C   0  0  0  0  0  0  0  0  0  0  0  0
    6.5117    4.1707  -12.6734 C   0  0  0  0  0  0  0  0  0  0  0  0
    7.7840    4.6401  -13.0395 C   0  0  0  0  0  0  0  0  0  0  0  0
    8.2842    5.7707  -12.4587 O   0  0  0  0  0  0  0  0  0  0  0  0
    8.5411    3.9491  -14.0093 C   0  0  0  0  0  0  0  0  0  0  0  0
   10.2068    1.5315  -15.1329 C   0  0  0  0  0  0  0  0  0  0  0  0
   10.2900    0.4049  -14.6469 O   0  0  0  0  0  0  0  0  0  0  0  0
   11.2861    2.3280  -15.1700 N   0  0  0  0  0  0  0  0  0  0  0  0
   11.3661    3.5393  -15.8933 C   0  0  0  0  0  0  0  0  0  0  0  0
   12.5000    4.3550  -15.7184 C   0  0  0  0  0  0  0  0  0  0  0  0
   12.6263    5.5518  -16.4434 C   0  0  0  0  0  0  0  0  0  0  0  0
   14.0247    6.5411  -16.2466 Cl  0  0  0  0  0  0  0  0  0  0  0  0
   11.6146    5.9352  -17.3395 C   0  0  0  0  0  0  0  0  0  0  0  0
   10.4743    5.1282  -17.5251 C   0  0  0  0  0  0  0  0  0  0  0  0
    9.2860    5.6978  -18.6470 Cl  0  0  0  0  0  0  0  0  0  0  0  0
   10.3370    3.9155  -16.7916 C   0  0  0  0  0  0  0  0  0  0  0  0
    9.1855    2.9733  -16.9475 C   0  0  0  0  0  0  0  0  0  0  0  0
    8.4860    2.9271  -17.9611 O   0  0  0  0  0  0  0  0  0  0  0  0
    8.7001    0.2732  -17.0682 H   0  0  0  0  0  0  0  0  0  0  0  0
    7.9039    0.0449  -15.5273 H   0  0  0  0  0  0  0  0  0  0  0  0
    7.1602    1.0504  -16.7599 H   0  0  0  0  0  0  0  0  0  0  0  0
    6.3197    1.4329  -14.6710 H   0  0  0  0  0  0  0  0  0  0  0  0
    5.0304    2.6386  -12.9985 H   0  0  0  0  0  0  0  0  0  0  0  0
    5.9261    4.6909  -11.9284 H   0  0  0  0  0  0  0  0  0  0  0  0
    7.7063    6.1586  -11.8128 H   0  0  0  0  0  0  0  0  0  0  0  0
    9.5105    4.3501  -14.2530 H   0  0  0  0  0  0  0  0  0  0  0  0
   12.1245    1.9982  -14.7117 H   0  0  0  0  0  0  0  0  0  0  0  0
   13.2853    4.0657  -15.0357 H   0  0  0  0  0  0  0  0  0  0  0  0
   11.7154    6.8568  -17.8940 H   0  0  0  0  0  0  0  0  0  0  0  0
  2  1  1  6
  3  2  1  0
  4  3  2  0
  5  4  1  0
  6  5  2  0
  7  6  1  0
  8  7  1  0
  9  3  1  0
  9  7  2  0
 10  2  1  0
 11 10  2  0
 12 10  1  0
 13 12  1  0
 14 13  2  0
 15 14  1  0
 16 15  1  0
 17 15  2  0
 18 17  1  0
 19 18  1  0
 20 13  1  0
 20 18  2  0
 21  2  1  0
 21 20  1  0
 22 21  2  0
 23  1  1  0
 24  1  1  0
 25  1  1  0
 26  4  1  0
 27  5  1  0
 28  6  1  0
 29  8  1  0
 30  9  1  0
 31 12  1  0
 32 14  1  0
 33 17  1  0
M  END
>  <b_m_subgroup_collapsed>  (1498) 
0

>  <r_i_docking_score>  (1498) 
-5.4689949406244098

>  <s_m_subgroup_title>  (1498) 
glide-dock_SP_D22_pv

>  <s_m_subgroupid>  (1498) 
glide-dock_SP_D22_pv

>  <Molecule ChEMBL ID>  (1498) 
CHEMBL404352

>  <Standard Type>  (1498) 
Ki

>  <Standard Value>  (1498) 
10000.0

>  <label>  (1498) 
0

$$$$
CHEMBL4452121
     RDKit          3D

 29 31  0  0  1  0  0  0  0  0999 V2000
    3.9695   -0.0492  -14.0822 C   0  0  0  0  0  0  0  0  0  0  0  0
    5.4634   -0.0560  -13.7213 C   0  0  0  0  0  0  0  0  0  0  0  0
    6.2786    0.5148  -14.7813 N   0  0  0  0  0  0  0  0  0  0  0  0
    6.6156   -0.1184  -15.9152 C   0  0  0  0  0  0  0  0  0  0  0  0
    7.3916    0.5767  -16.7351 N   0  0  0  0  0  0  0  0  0  0  0  0
    7.5794    1.7788  -16.0644 C   0  0  0  0  0  0  0  0  0  0  0  0
    6.8861    1.7725  -14.8731 C   0  0  0  0  0  0  0  0  0  0  0  0
    6.7713    2.8268  -13.8652 C   0  0  0  0  0  0  0  0  0  0  0  0
    5.6866    3.1465  -13.0819 C   0  0  0  0  0  0  0  0  0  0  0  0
    6.0088    4.1989  -12.2470 N   0  0  0  0  0  0  0  0  0  0  0  0
    7.3064    4.6042  -12.4550 C   0  0  0  0  0  0  0  0  0  0  0  0
    8.0962    5.5940  -11.8470 C   0  0  0  0  0  0  0  0  0  0  0  0
    9.4211    5.7842  -12.2791 C   0  0  0  0  0  0  0  0  0  0  0  0
    9.9419    4.9795  -13.3108 C   0  0  0  0  0  0  0  0  0  0  0  0
   11.5654    5.2070  -13.8482 Cl  0  0  0  0  0  0  0  0  0  0  0  0
    9.1429    3.9824  -13.9046 C   0  0  0  0  0  0  0  0  0  0  0  0
    7.8050    3.7666  -13.4931 C   0  0  0  0  0  0  0  0  0  0  0  0
    3.3679   -0.5281  -13.3104 H   0  0  0  0  0  0  0  0  0  0  0  0
    3.5941    0.9651  -14.2108 H   0  0  0  0  0  0  0  0  0  0  0  0
    3.7867   -0.5873  -15.0128 H   0  0  0  0  0  0  0  0  0  0  0  0
    5.7991   -1.0816  -13.5599 H   0  0  0  0  0  0  0  0  0  0  0  0
    5.6483    0.4711  -12.7861 H   0  0  0  0  0  0  0  0  0  0  0  0
    6.2899   -1.1234  -16.1418 H   0  0  0  0  0  0  0  0  0  0  0  0
    8.1796    2.5639  -16.4999 H   0  0  0  0  0  0  0  0  0  0  0  0
    4.7046    2.7002  -13.0429 H   0  0  0  0  0  0  0  0  0  0  0  0
    5.3918    4.5747  -11.5381 H   0  0  0  0  0  0  0  0  0  0  0  0
    7.6860    6.1967  -11.0484 H   0  0  0  0  0  0  0  0  0  0  0  0
   10.0347    6.5451  -11.8199 H   0  0  0  0  0  0  0  0  0  0  0  0
    9.5677    3.3620  -14.6784 H   0  0  0  0  0  0  0  0  0  0  0  0
  2  1  1  0
  3  2  1  0
  4  3  1  0
  5  4  2  0
  6  5  1  0
  7  3  1  0
  7  6  2  0
  8  7  1  0
  9  8  2  0
 10  9  1  0
 11 10  1  0
 12 11  2  0
 13 12  1  0
 14 13  2  0
 15 14  1  0
 16 14  1  0
 17  8  1  0
 17 11  1  0
 17 16  2  0
 18  1  1  0
 19  1  1  0
 20  1  1  0
 21  2  1  0
 22  2  1  0
 23  4  1  0
 24  6  1  0
 25  9  1  0
 26 10  1  0
 27 12  1  0
 28 13  1  0
 29 16  1  0
M  END
>  <b_m_subgroup_collapsed>  (1499) 
0

>  <r_i_docking_score>  (1499) 
-5.4677521630038397

>  <s_m_subgroup_title>  (1499) 
glide-dock_SP_D22_pv

>  <s_m_subgroupid>  (1499) 
glide-dock_SP_D22_pv

>  <Molecule ChEMBL ID>  (1499) 
CHEMBL4452121

>  <Standard Type>  (1499) 
Ki

>  <Standard Value>  (1499) 
10000.0

>  <label>  (1499) 
0

$$$$
CHEMBL3745882
     RDKit          3D

 69 72  0  0  1  0  0  0  0  0999 V2000
   11.3435    9.5332  -10.1680 C   0  0  0  0  0  0  0  0  0  0  0  0
   12.0120    8.6700   -9.1134 C   0  0  0  0  0  0  0  0  0  0  0  0
   13.0770    7.7809   -9.7214 C   0  0  0  0  0  0  0  0  0  0  0  0
   11.0023    7.8819   -8.3051 C   0  0  0  0  0  0  0  0  0  0  0  0
   11.0216    8.0383   -6.9057 C   0  0  0  0  0  0  0  0  0  0  0  0
   10.0803    7.3711   -6.1154 C   0  0  0  0  0  0  0  0  0  0  0  0
    9.0997    6.5735   -6.7212 C   0  0  0  0  0  0  0  0  0  0  0  0
    9.0856    6.3829   -8.1091 C   0  0  0  0  0  0  0  0  0  0  0  0
   10.0492    7.0210   -8.9187 C   0  0  0  0  0  0  0  0  0  0  0  0
   10.0939    6.8520  -10.2841 O   0  0  0  0  0  0  0  0  0  0  0  0
    9.3070    5.8355  -10.8784 C   0  0  0  0  0  0  0  0  0  0  0  0
    9.8008    5.6905  -12.3239 C   0  0  0  0  0  0  0  0  0  0  0  0
    9.2767    4.4649  -12.9707 N   0  0  2  0  0  0  0  0  0  0  0  0
   10.2430    3.8530  -13.9247 C   0  0  0  0  0  0  0  0  0  0  0  0
    9.7131    2.5030  -14.4342 C   0  0  0  0  0  0  0  0  0  0  0  0
    8.3394    2.6915  -15.0996 C   0  0  1  0  0  0  0  0  0  0  0  0
    7.7721    1.4400  -15.6484 N   0  0  0  0  0  0  0  0  0  0  0  0
    7.5430    0.2868  -14.7577 C   0  0  0  0  0  0  0  0  0  0  0  0
    6.1932    0.3556  -14.0747 C   0  0  0  0  0  0  0  0  0  0  0  0
    5.3716   -0.8907  -13.8540 C   0  0  0  0  0  0  0  0  0  0  0  0
    6.0489   -0.2236  -12.6877 C   0  0  0  0  0  0  0  0  0  0  0  0
    7.7021    1.1847  -17.3615 S   0  0  0  0  0  0  0  0  0  0  0  0
    7.8173    2.4751  -18.0561 O   0  0  0  0  0  0  0  0  0  0  0  0
    6.6091    0.2466  -17.6566 O   0  0  0  0  0  0  0  0  0  0  0  0
    9.2189    0.3063  -17.7560 C   0  0  0  0  0  0  0  0  0  0  0  0
    9.3373   -1.0881  -17.9465 C   0  0  0  0  0  0  0  0  0  0  0  0
   10.5847   -1.4093  -18.2456 N   0  0  0  0  0  0  0  0  0  0  0  0
   11.2586   -0.2312  -18.2815 N   0  0  0  0  0  0  0  0  0  0  0  0
   12.6604   -0.2294  -18.6440 C   0  0  0  0  0  0  0  0  0  0  0  0
   10.4482    0.8453  -17.9751 C   0  0  0  0  0  0  0  0  0  0  0  0
    7.3600    3.3935  -14.1396 C   0  0  0  0  0  0  0  0  0  0  0  0
    7.9560    4.7011  -13.6063 C   0  0  0  0  0  0  0  0  0  0  0  0
   10.5990   10.1716   -9.6975 H   0  0  0  0  0  0  0  0  0  0  0  0
   12.0859   10.1691  -10.6446 H   0  0  0  0  0  0  0  0  0  0  0  0
   10.8581    8.9663  -10.9591 H   0  0  0  0  0  0  0  0  0  0  0  0
   12.5194    9.3552   -8.4347 H   0  0  0  0  0  0  0  0  0  0  0  0
   13.6995    7.3725   -8.9324 H   0  0  0  0  0  0  0  0  0  0  0  0
   12.6125    6.9723  -10.2807 H   0  0  0  0  0  0  0  0  0  0  0  0
   13.7319    8.3368  -10.3915 H   0  0  0  0  0  0  0  0  0  0  0  0
   11.7533    8.6764   -6.4320 H   0  0  0  0  0  0  0  0  0  0  0  0
   10.0954    7.4951   -5.0474 H   0  0  0  0  0  0  0  0  0  0  0  0
    8.3439    6.0937   -6.1244 H   0  0  0  0  0  0  0  0  0  0  0  0
    8.3060    5.7624   -8.5242 H   0  0  0  0  0  0  0  0  0  0  0  0
    8.2473    6.0955  -10.8450 H   0  0  0  0  0  0  0  0  0  0  0  0
    9.4528    4.8920  -10.3482 H   0  0  0  0  0  0  0  0  0  0  0  0
   10.8860    5.6579  -12.3074 H   0  0  0  0  0  0  0  0  0  0  0  0
    9.5443    6.5745  -12.9079 H   0  0  0  0  0  0  0  0  0  0  0  0
   11.2090    3.6968  -13.4438 H   0  0  0  0  0  0  0  0  0  0  0  0
   10.4169    4.5331  -14.7619 H   0  0  0  0  0  0  0  0  0  0  0  0
    9.6527    1.8186  -13.5916 H   0  0  0  0  0  0  0  0  0  0  0  0
   10.4204    2.0676  -15.1409 H   0  0  0  0  0  0  0  0  0  0  0  0
    8.5022    3.3722  -15.9313 H   0  0  0  0  0  0  0  0  0  0  0  0
    7.5824   -0.6270  -15.3501 H   0  0  0  0  0  0  0  0  0  0  0  0
    8.3340    0.1863  -14.0168 H   0  0  0  0  0  0  0  0  0  0  0  0
    5.6168    1.2545  -14.2774 H   0  0  0  0  0  0  0  0  0  0  0  0
    4.2911   -0.7903  -13.9427 H   0  0  0  0  0  0  0  0  0  0  0  0
    5.7793   -1.8386  -14.2064 H   0  0  0  0  0  0  0  0  0  0  0  0
    6.8861   -0.7606  -12.2474 H   0  0  0  0  0  0  0  0  0  0  0  0
    5.4220    0.3223  -11.9820 H   0  0  0  0  0  0  0  0  0  0  0  0
    8.5799   -1.8551  -17.8801 H   0  0  0  0  0  0  0  0  0  0  0  0
   13.1485    0.6597  -18.2455 H   0  0  0  0  0  0  0  0  0  0  0  0
   13.1547   -1.1152  -18.2474 H   0  0  0  0  0  0  0  0  0  0  0  0
   12.7557   -0.2281  -19.7300 H   0  0  0  0  0  0  0  0  0  0  0  0
   10.8011    1.8649  -17.9573 H   0  0  0  0  0  0  0  0  0  0  0  0
    6.4147    3.5998  -14.6451 H   0  0  0  0  0  0  0  0  0  0  0  0
    7.1182    2.7520  -13.2938 H   0  0  0  0  0  0  0  0  0  0  0  0
    7.2689    5.1555  -12.8924 H   0  0  0  0  0  0  0  0  0  0  0  0
    8.0859    5.4118  -14.4248 H   0  0  0  0  0  0  0  0  0  0  0  0
    9.1433    3.7820  -12.2355 H   0  0  0  0  0  0  0  0  0  0  0  0
  2  1  1  0
  3  2  1  0
  4  2  1  0
  5  4  2  0
  6  5  1  0
  7  6  2  0
  8  7  1  0
  9  4  1  0
  9  8  2  0
 10  9  1  0
 11 10  1  0
 12 11  1  0
 13 12  1  0
 14 13  1  0
 15 14  1  0
 16 15  1  0
 17 16  1  0
 18 17  1  0
 19 18  1  0
 20 19  1  0
 21 19  1  0
 21 20  1  0
 22 17  1  0
 23 22  2  0
 24 22  2  0
 25 22  1  0
 26 25  1  0
 27 26  2  0
 28 27  1  0
 29 28  1  0
 30 25  2  0
 30 28  1  0
 31 16  1  0
 32 13  1  0
 32 31  1  0
 33  1  1  0
 34  1  1  0
 35  1  1  0
 36  2  1  0
 37  3  1  0
 38  3  1  0
 39  3  1  0
 40  5  1  0
 41  6  1  0
 42  7  1  0
 43  8  1  0
 44 11  1  0
 45 11  1  0
 46 12  1  0
 47 12  1  0
 48 14  1  0
 49 14  1  0
 50 15  1  0
 51 15  1  0
 16 52  1  6
 53 18  1  0
 54 18  1  0
 55 19  1  0
 56 20  1  0
 57 20  1  0
 58 21  1  0
 59 21  1  0
 60 26  1  0
 61 29  1  0
 62 29  1  0
 63 29  1  0
 64 30  1  0
 65 31  1  0
 66 31  1  0
 67 32  1  0
 68 32  1  0
 13 69  1  1
M  CHG  1  13   1
M  END
>  <b_m_subgroup_collapsed>  (1500) 
0

>  <r_i_docking_score>  (1500) 
-5.46498588461818

>  <s_m_subgroup_title>  (1500) 
glide-dock_SP_D22_pv

>  <s_m_subgroupid>  (1500) 
glide-dock_SP_D22_pv

>  <Molecule ChEMBL ID>  (1500) 
CHEMBL3745882

>  <Standard Type>  (1500) 
Ki

>  <Standard Value>  (1500) 
18.0

>  <label>  (1500) 
1

$$$$
CHEMBL498775
     RDKit          3D

 46 47  0  0  1  0  0  0  0  0999 V2000
    8.8673    8.4300   -7.7544 C   0  0  0  0  0  0  0  0  0  0  0  0
   10.2920    8.3767   -8.0865 N   0  0  0  0  0  0  0  0  0  0  0  0
   10.4619    7.4776   -9.2320 C   0  0  0  0  0  0  0  0  0  0  0  0
    9.8861    8.0355  -10.5484 C   0  0  0  0  0  0  0  0  0  0  0  0
    9.9980    7.0226  -11.6691 C   0  0  0  0  0  0  0  0  0  0  0  0
   11.1682    6.9715  -12.4525 C   0  0  0  0  0  0  0  0  0  0  0  0
   11.2871    5.9940  -13.4580 C   0  0  0  0  0  0  0  0  0  0  0  0
   10.2264    5.1007  -13.7064 C   0  0  0  0  0  0  0  0  0  0  0  0
    9.0303    5.1627  -12.9611 C   0  0  0  0  0  0  0  0  0  0  0  0
    8.0331    4.2787  -13.3273 O   0  0  0  0  0  0  0  0  0  0  0  0
    6.8161    4.2540  -12.7146 C   0  0  0  0  0  0  0  0  0  0  0  0
    5.9903    3.4268  -13.4019 F   0  0  0  0  0  0  0  0  0  0  0  0
    6.8863    3.7741  -11.4493 F   0  0  0  0  0  0  0  0  0  0  0  0
    6.2217    5.4729  -12.7067 F   0  0  0  0  0  0  0  0  0  0  0  0
    8.9338    6.1212  -11.9189 C   0  0  0  0  0  0  0  0  0  0  0  0
   11.0583    7.8317   -6.9651 C   0  0  0  0  0  0  0  0  0  0  0  0
   11.0888    8.7956   -5.7591 C   0  0  0  0  0  0  0  0  0  0  0  0
   11.9447    8.3189   -4.6470 N   0  0  0  0  0  0  0  0  0  0  0  0
   11.8905    9.1789   -3.4464 C   0  0  0  0  0  0  0  0  0  0  0  0
   12.3087    8.3030   -2.2645 C   0  0  0  0  0  0  0  0  0  0  0  0
   12.1879    6.8507   -2.7499 C   0  0  0  0  0  0  0  0  0  0  0  0
   11.6858    6.9317   -4.1971 C   0  0  0  0  0  0  0  0  0  0  0  0
    8.6530    8.9723   -6.8397 H   0  0  0  0  0  0  0  0  0  0  0  0
    8.3081    8.9515   -8.5250 H   0  0  0  0  0  0  0  0  0  0  0  0
    8.4482    7.4320   -7.6434 H   0  0  0  0  0  0  0  0  0  0  0  0
   10.0081    6.5093   -9.0123 H   0  0  0  0  0  0  0  0  0  0  0  0
   11.5259    7.2927   -9.3894 H   0  0  0  0  0  0  0  0  0  0  0  0
   10.4096    8.9500  -10.8268 H   0  0  0  0  0  0  0  0  0  0  0  0
    8.8361    8.3039  -10.4586 H   0  0  0  0  0  0  0  0  0  0  0  0
   11.9836    7.6587  -12.2696 H   0  0  0  0  0  0  0  0  0  0  0  0
   12.1889    5.9380  -14.0506 H   0  0  0  0  0  0  0  0  0  0  0  0
   10.3233    4.3682  -14.4946 H   0  0  0  0  0  0  0  0  0  0  0  0
    8.0461    6.1912  -11.3066 H   0  0  0  0  0  0  0  0  0  0  0  0
   10.6451    6.8615   -6.6846 H   0  0  0  0  0  0  0  0  0  0  0  0
   12.0839    7.6569   -7.2911 H   0  0  0  0  0  0  0  0  0  0  0  0
   11.4507    9.7735   -6.0790 H   0  0  0  0  0  0  0  0  0  0  0  0
   10.0860    8.9468   -5.3712 H   0  0  0  0  0  0  0  0  0  0  0  0
   12.5350   10.0512   -3.5516 H   0  0  0  0  0  0  0  0  0  0  0  0
   10.8750    9.5405   -3.2832 H   0  0  0  0  0  0  0  0  0  0  0  0
   13.3311    8.5426   -1.9746 H   0  0  0  0  0  0  0  0  0  0  0  0
   11.6864    8.4908   -1.3901 H   0  0  0  0  0  0  0  0  0  0  0  0
   13.1613    6.3606   -2.7088 H   0  0  0  0  0  0  0  0  0  0  0  0
   11.5100    6.2655   -2.1275 H   0  0  0  0  0  0  0  0  0  0  0  0
   10.6206    6.7100   -4.2460 H   0  0  0  0  0  0  0  0  0  0  0  0
   12.1702    6.2013   -4.8432 H   0  0  0  0  0  0  0  0  0  0  0  0
   12.9034    8.3410   -4.9639 H   0  0  0  0  0  0  0  0  0  0  0  0
  2  1  1  0
  3  2  1  0
  4  3  1  0
  5  4  1  0
  6  5  2  0
  7  6  1  0
  8  7  2  0
  9  8  1  0
 10  9  1  0
 11 10  1  0
 12 11  1  0
 13 11  1  0
 14 11  1  0
 15  5  1  0
 15  9  2  0
 16  2  1  0
 17 16  1  0
 18 17  1  0
 19 18  1  0
 20 19  1  0
 21 20  1  0
 22 18  1  0
 22 21  1  0
 23  1  1  0
 24  1  1  0
 25  1  1  0
 26  3  1  0
 27  3  1  0
 28  4  1  0
 29  4  1  0
 30  6  1  0
 31  7  1  0
 32  8  1  0
 33 15  1  0
 34 16  1  0
 35 16  1  0
 36 17  1  0
 37 17  1  0
 38 19  1  0
 39 19  1  0
 40 20  1  0
 41 20  1  0
 42 21  1  0
 43 21  1  0
 44 22  1  0
 45 22  1  0
 46 18  1  0
M  CHG  1  18   1
M  END
>  <b_m_subgroup_collapsed>  (1501) 
0

>  <r_i_docking_score>  (1501) 
-5.4388215121181203

>  <s_m_subgroup_title>  (1501) 
glide-dock_SP_D22_pv

>  <s_m_subgroupid>  (1501) 
glide-dock_SP_D22_pv

>  <Molecule ChEMBL ID>  (1501) 
CHEMBL498775

>  <Standard Type>  (1501) 
Ki

>  <Standard Value>  (1501) 
10000.0

>  <label>  (1501) 
0

$$$$
CHEMBL317051
     RDKit          3D

 31 33  0  0  1  0  0  0  0  0999 V2000
    7.1628    4.2615  -12.7048 C   0  0  0  0  0  0  0  0  0  0  0  0
    8.4439    4.0204  -13.4382 C   0  0  0  0  0  0  0  0  0  0  0  0
    9.8452    4.9931  -13.0439 S   0  0  0  0  0  0  0  0  0  0  0  0
   10.8428    4.1711  -14.2100 C   0  0  0  0  0  0  0  0  0  0  0  0
   12.2963    4.5019  -14.3254 C   0  0  0  0  0  0  0  0  0  0  0  0
   10.0776    3.2497  -14.8786 C   0  0  0  0  0  0  0  0  0  0  0  0
    8.7356    3.1014  -14.4221 C   0  0  0  0  0  0  0  0  0  0  0  0
    7.8118    2.0593  -14.9996 C   0  0  0  0  0  0  0  0  0  0  0  0
    8.2715    0.6002  -14.7475 C   0  0  0  0  0  0  0  0  0  0  0  0
    9.7836    0.3004  -14.9021 C   0  0  0  0  0  0  0  0  0  0  0  0
   10.4754    1.0793  -15.9774 C   0  0  0  0  0  0  0  0  0  0  0  0
   10.9895    0.5530  -17.0904 N   0  0  0  0  0  0  0  0  0  0  0  0
   11.4546    1.6304  -17.8179 N   0  0  0  0  0  0  0  0  0  0  0  0
   11.1600    2.7113  -17.0882 C   0  0  0  0  0  0  0  0  0  0  0  0
   11.3547    4.1097  -17.5812 C   0  0  0  0  0  0  0  0  0  0  0  0
   10.5852    2.4193  -15.9029 N   0  0  0  0  0  0  0  0  0  0  0  0
    6.3365    3.6798  -13.1095 H   0  0  0  0  0  0  0  0  0  0  0  0
    6.8824    5.3142  -12.7629 H   0  0  0  0  0  0  0  0  0  0  0  0
    7.2675    4.0044  -11.6500 H   0  0  0  0  0  0  0  0  0  0  0  0
   12.8302    3.7729  -14.9339 H   0  0  0  0  0  0  0  0  0  0  0  0
   12.7699    4.5140  -13.3439 H   0  0  0  0  0  0  0  0  0  0  0  0
   12.4347    5.4860  -14.7714 H   0  0  0  0  0  0  0  0  0  0  0  0
    6.7919    2.1770  -14.6383 H   0  0  0  0  0  0  0  0  0  0  0  0
    7.7401    2.2157  -16.0771 H   0  0  0  0  0  0  0  0  0  0  0  0
    7.9776    0.2963  -13.7423 H   0  0  0  0  0  0  0  0  0  0  0  0
    7.7121   -0.0444  -15.4269 H   0  0  0  0  0  0  0  0  0  0  0  0
   10.3016    0.5090  -13.9685 H   0  0  0  0  0  0  0  0  0  0  0  0
    9.9290   -0.7636  -15.0868 H   0  0  0  0  0  0  0  0  0  0  0  0
   10.4300    4.6756  -17.4654 H   0  0  0  0  0  0  0  0  0  0  0  0
   11.6209    4.1022  -18.6377 H   0  0  0  0  0  0  0  0  0  0  0  0
   12.1513    4.6125  -17.0375 H   0  0  0  0  0  0  0  0  0  0  0  0
  2  1  1  0
  3  2  1  0
  4  3  1  0
  5  4  1  0
  6  4  2  0
  7  2  2  0
  7  6  1  0
  8  7  1  0
  9  8  1  0
 10  9  1  0
 11 10  1  0
 12 11  2  0
 13 12  1  0
 14 13  2  0
 15 14  1  0
 16  6  1  0
 16 11  1  0
 16 14  1  0
 17  1  1  0
 18  1  1  0
 19  1  1  0
 20  5  1  0
 21  5  1  0
 22  5  1  0
 23  8  1  0
 24  8  1  0
 25  9  1  0
 26  9  1  0
 27 10  1  0
 28 10  1  0
 29 15  1  0
 30 15  1  0
 31 15  1  0
M  END
>  <b_m_subgroup_collapsed>  (1502) 
0

>  <r_i_docking_score>  (1502) 
-5.4340831035523998

>  <s_m_subgroup_title>  (1502) 
glide-dock_SP_D22_pv

>  <s_m_subgroupid>  (1502) 
glide-dock_SP_D22_pv

>  <Molecule ChEMBL ID>  (1502) 
CHEMBL317051

>  <Standard Type>  (1502) 
Ki

>  <Standard Value>  (1502) 
10000.0

>  <label>  (1502) 
0

$$$$
CHEMBL49
     RDKit          3D

 59 62  0  0  1  0  0  0  0  0999 V2000
   12.7743    3.8309  -16.2934 O   0  0  0  0  0  0  0  0  0  0  0  0
   13.0348    5.0125  -16.5226 C   0  0  0  0  0  0  0  0  0  0  0  0
   13.5454    5.3639  -17.9288 C   0  0  0  0  0  0  0  0  0  0  0  0
   13.0718    6.7559  -18.3815 C   0  0  0  0  0  0  0  0  0  0  0  0
   11.5542    6.8002  -18.6726 C   0  0  0  0  0  0  0  0  0  0  0  0
   11.3403    7.8964  -19.7282 C   0  0  0  0  0  0  0  0  0  0  0  0
   12.7260    8.2297  -20.2951 C   0  0  0  0  0  0  0  0  0  0  0  0
   13.6683    7.1582  -19.7394 C   0  0  0  0  0  0  0  0  0  0  0  0
   13.4886    7.7580  -17.2831 C   0  0  0  0  0  0  0  0  0  0  0  0
   13.0634    7.3182  -15.8734 C   0  0  0  0  0  0  0  0  0  0  0  0
   12.8859    8.2045  -15.0371 O   0  0  0  0  0  0  0  0  0  0  0  0
   12.8920    5.9959  -15.5911 N   0  0  0  0  0  0  0  0  0  0  0  0
   12.4403    5.6296  -14.2328 C   0  0  0  0  0  0  0  0  0  0  0  0
   10.9079    5.7203  -14.1142 C   0  0  0  0  0  0  0  0  0  0  0  0
   10.2309    4.3658  -13.9167 C   0  0  0  0  0  0  0  0  0  0  0  0
    8.7117    4.4848  -14.1165 C   0  0  0  0  0  0  0  0  0  0  0  0
    8.0408    3.2210  -13.8468 N   0  0  0  0  0  0  0  0  0  0  0  0
    6.5930    3.4137  -13.7068 C   0  0  0  0  0  0  0  0  0  0  0  0
    5.8960    2.1065  -13.2668 C   0  0  0  0  0  0  0  0  0  0  0  0
    6.3064    0.9794  -14.1056 N   0  0  0  0  0  0  0  0  0  0  0  0
    5.3888    0.1338  -14.7011 C   0  0  0  0  0  0  0  0  0  0  0  0
    4.2472   -0.0808  -14.0414 N   0  0  0  0  0  0  0  0  0  0  0  0
    3.3334   -0.8528  -14.6551 C   0  0  0  0  0  0  0  0  0  0  0  0
    3.5819   -1.4282  -15.9110 C   0  0  0  0  0  0  0  0  0  0  0  0
    4.8199   -1.1528  -16.5020 C   0  0  0  0  0  0  0  0  0  0  0  0
    5.7142   -0.3549  -15.8981 N   0  0  0  0  0  0  0  0  0  0  0  0
    7.7405    0.8703  -14.3629 C   0  0  0  0  0  0  0  0  0  0  0  0
    8.2886    2.2068  -14.8746 C   0  0  0  0  0  0  0  0  0  0  0  0
   14.6362    5.3240  -17.9085 H   0  0  0  0  0  0  0  0  0  0  0  0
   13.2218    4.5972  -18.6351 H   0  0  0  0  0  0  0  0  0  0  0  0
   11.2366    5.8496  -19.1009 H   0  0  0  0  0  0  0  0  0  0  0  0
   10.9419    6.9584  -17.7854 H   0  0  0  0  0  0  0  0  0  0  0  0
   10.6661    7.5494  -20.5118 H   0  0  0  0  0  0  0  0  0  0  0  0
   10.8868    8.7834  -19.2869 H   0  0  0  0  0  0  0  0  0  0  0  0
   12.7336    8.2575  -21.3857 H   0  0  0  0  0  0  0  0  0  0  0  0
   13.0356    9.2144  -19.9412 H   0  0  0  0  0  0  0  0  0  0  0  0
   14.6989    7.5080  -19.6689 H   0  0  0  0  0  0  0  0  0  0  0  0
   13.6653    6.3008  -20.4138 H   0  0  0  0  0  0  0  0  0  0  0  0
   14.5729    7.8753  -17.2728 H   0  0  0  0  0  0  0  0  0  0  0  0
   13.0741    8.7470  -17.4827 H   0  0  0  0  0  0  0  0  0  0  0  0
   12.8860    6.2919  -13.4888 H   0  0  0  0  0  0  0  0  0  0  0  0
   12.7993    4.6413  -13.9376 H   0  0  0  0  0  0  0  0  0  0  0  0
   10.4885    6.1723  -15.0149 H   0  0  0  0  0  0  0  0  0  0  0  0
   10.6429    6.3800  -13.2870 H   0  0  0  0  0  0  0  0  0  0  0  0
   10.4566    3.9769  -12.9227 H   0  0  0  0  0  0  0  0  0  0  0  0
   10.6559    3.6634  -14.6310 H   0  0  0  0  0  0  0  0  0  0  0  0
    8.4858    4.8358  -15.1203 H   0  0  0  0  0  0  0  0  0  0  0  0
    8.3345    5.2399  -13.4248 H   0  0  0  0  0  0  0  0  0  0  0  0
    6.1677    3.7663  -14.6469 H   0  0  0  0  0  0  0  0  0  0  0  0
    6.3923    4.1886  -12.9658 H   0  0  0  0  0  0  0  0  0  0  0  0
    4.8202    2.2634  -13.3337 H   0  0  0  0  0  0  0  0  0  0  0  0
    6.0860    1.8781  -12.2208 H   0  0  0  0  0  0  0  0  0  0  0  0
    2.4116   -1.0273  -14.1241 H   0  0  0  0  0  0  0  0  0  0  0  0
    2.8859   -2.0996  -16.3893 H   0  0  0  0  0  0  0  0  0  0  0  0
    5.0903   -1.5686  -17.4609 H   0  0  0  0  0  0  0  0  0  0  0  0
    8.2511    0.5798  -13.4469 H   0  0  0  0  0  0  0  0  0  0  0  0
    7.9701    0.0840  -15.0821 H   0  0  0  0  0  0  0  0  0  0  0  0
    7.8210    2.4878  -15.8195 H   0  0  0  0  0  0  0  0  0  0  0  0
    9.3522    2.0840  -15.0667 H   0  0  0  0  0  0  0  0  0  0  0  0
  2  1  2  0
  3  2  1  0
  4  3  1  0
  5  4  1  0
  6  5  1  0
  7  6  1  0
  8  4  1  0
  8  7  1  0
  9  4  1  0
 10  9  1  0
 11 10  2  0
 12  2  1  0
 12 10  1  0
 13 12  1  0
 14 13  1  0
 15 14  1  0
 16 15  1  0
 17 16  1  0
 18 17  1  0
 19 18  1  0
 20 19  1  0
 21 20  1  0
 22 21  2  0
 23 22  1  0
 24 23  2  0
 25 24  1  0
 26 21  1  0
 26 25  2  0
 27 20  1  0
 28 17  1  0
 28 27  1  0
 29  3  1  0
 30  3  1  0
 31  5  1  0
 32  5  1  0
 33  6  1  0
 34  6  1  0
 35  7  1  0
 36  7  1  0
 37  8  1  0
 38  8  1  0
 39  9  1  0
 40  9  1  0
 41 13  1  0
 42 13  1  0
 43 14  1  0
 44 14  1  0
 45 15  1  0
 46 15  1  0
 47 16  1  0
 48 16  1  0
 49 18  1  0
 50 18  1  0
 51 19  1  0
 52 19  1  0
 53 23  1  0
 54 24  1  0
 55 25  1  0
 56 27  1  0
 57 27  1  0
 58 28  1  0
 59 28  1  0
M  END
>  <b_m_subgroup_collapsed>  (1503) 
0

>  <r_i_docking_score>  (1503) 
-5.4331986923885696

>  <s_m_subgroup_title>  (1503) 
glide-dock_SP_D22_pv

>  <s_m_subgroupid>  (1503) 
glide-dock_SP_D22_pv

>  <Molecule ChEMBL ID>  (1503) 
CHEMBL49

>  <Standard Type>  (1503) 
Ki

>  <Standard Value>  (1503) 
13.0

>  <label>  (1503) 
1

$$$$
CHEMBL3797740
     RDKit          3D

 37 39  0  0  1  0  0  0  0  0999 V2000
    8.1523    5.1615  -13.1532 C   0  0  0  0  0  0  0  0  0  0  0  0
    8.7223    4.1537  -14.1583 C   0  0  0  0  0  0  0  0  0  0  0  0
    7.7629    2.9731  -14.3949 C   0  0  0  0  0  0  0  0  0  0  0  0
    8.3768    1.8684  -15.1363 N   0  0  0  0  0  0  0  0  0  0  0  0
    9.2735    1.1032  -14.2717 C   0  0  0  0  0  0  0  0  0  0  0  0
    7.3945    0.9572  -15.7424 C   0  0  2  0  0  0  0  0  0  0  0  0
    6.9219    1.4926  -17.1183 C   0  0  0  0  0  0  0  0  0  0  0  0
    5.9443    0.5522  -17.8165 C   0  0  0  0  0  0  0  0  0  0  0  0
    5.6560    0.3679  -19.1883 C   0  0  0  0  0  0  0  0  0  0  0  0
    4.6588   -0.5675  -19.5878 C   0  0  0  0  0  0  0  0  0  0  0  0
    3.9317   -1.3315  -18.6340 C   0  0  0  0  0  0  0  0  0  0  0  0
    4.2143   -1.1416  -17.2677 C   0  0  0  0  0  0  0  0  0  0  0  0
    3.6860   -1.6506  -16.0830 N   0  0  0  0  0  0  0  0  0  0  0  0
    4.2389   -0.9915  -15.0470 C   0  0  0  0  0  0  0  0  0  0  0  0
    3.8695   -1.0274  -13.8736 O   0  0  0  0  0  0  0  0  0  0  0  0
    5.2376   -0.2287  -15.5438 N   0  0  0  0  0  0  0  0  0  0  0  0
    5.1879   -0.2313  -16.9418 C   0  0  0  0  0  0  0  0  0  0  0  0
    6.2145    0.5583  -14.8076 C   0  0  0  0  0  0  0  0  0  0  0  0
    8.8016    6.0323  -13.0608 H   0  0  0  0  0  0  0  0  0  0  0  0
    7.1637    5.5110  -13.4456 H   0  0  0  0  0  0  0  0  0  0  0  0
    8.0588    4.7131  -12.1637 H   0  0  0  0  0  0  0  0  0  0  0  0
    9.6867    3.8180  -13.7809 H   0  0  0  0  0  0  0  0  0  0  0  0
    8.9240    4.6527  -15.1062 H   0  0  0  0  0  0  0  0  0  0  0  0
    6.8954    3.3477  -14.9371 H   0  0  0  0  0  0  0  0  0  0  0  0
    7.3811    2.6015  -13.4475 H   0  0  0  0  0  0  0  0  0  0  0  0
    9.7716    0.3125  -14.8344 H   0  0  0  0  0  0  0  0  0  0  0  0
   10.0596    1.7252  -13.8467 H   0  0  0  0  0  0  0  0  0  0  0  0
    8.7311    0.6366  -13.4500 H   0  0  0  0  0  0  0  0  0  0  0  0
    7.9233    0.0320  -15.9822 H   0  0  0  0  0  0  0  0  0  0  0  0
    7.7822    1.6454  -17.7707 H   0  0  0  0  0  0  0  0  0  0  0  0
    6.4349    2.4611  -17.0088 H   0  0  0  0  0  0  0  0  0  0  0  0
    6.1868    0.9391  -19.9353 H   0  0  0  0  0  0  0  0  0  0  0  0
    4.4426   -0.6953  -20.6390 H   0  0  0  0  0  0  0  0  0  0  0  0
    3.1662   -2.0268  -18.9458 H   0  0  0  0  0  0  0  0  0  0  0  0
    2.9769   -2.3768  -16.0440 H   0  0  0  0  0  0  0  0  0  0  0  0
    5.6873    1.4205  -14.4032 H   0  0  0  0  0  0  0  0  0  0  0  0
    6.5767   -0.0210  -13.9569 H   0  0  0  0  0  0  0  0  0  0  0  0
  2  1  1  0
  3  2  1  0
  4  3  1  0
  5  4  1  0
  6  4  1  0
  7  6  1  0
  8  7  1  0
  9  8  1  0
 10  9  2  0
 11 10  1  0
 12 11  2  0
 13 12  1  0
 14 13  1  0
 15 14  2  0
 16 14  1  0
 17  8  2  0
 17 12  1  0
 17 16  1  0
 18  6  1  0
 18 16  1  0
 19  1  1  0
 20  1  1  0
 21  1  1  0
 22  2  1  0
 23  2  1  0
 24  3  1  0
 25  3  1  0
 26  5  1  0
 27  5  1  0
 28  5  1  0
  6 29  1  6
 30  7  1  0
 31  7  1  0
 32  9  1  0
 33 10  1  0
 34 11  1  0
 35 13  1  0
 36 18  1  0
 37 18  1  0
M  END
>  <b_m_subgroup_collapsed>  (1504) 
0

>  <r_i_docking_score>  (1504) 
-5.4305509221642003

>  <s_m_subgroup_title>  (1504) 
glide-dock_SP_D22_pv

>  <s_m_subgroupid>  (1504) 
glide-dock_SP_D22_pv

>  <Molecule ChEMBL ID>  (1504) 
CHEMBL3797740

>  <Standard Type>  (1504) 
Ki

>  <Standard Value>  (1504) 
12.5

>  <label>  (1504) 
1

$$$$
CHEMBL379662
     RDKit          3D

 45 47  0  0  1  0  0  0  0  0999 V2000
    5.2493    3.2049  -12.9612 C   0  0  0  0  0  0  0  0  0  0  0  0
    6.4856    2.9012  -13.5959 O   0  0  0  0  0  0  0  0  0  0  0  0
    7.5393    3.7770  -13.4415 C   0  0  0  0  0  0  0  0  0  0  0  0
    7.3624    5.0537  -12.8544 C   0  0  0  0  0  0  0  0  0  0  0  0
    8.4543    5.9048  -12.6471 C   0  0  0  0  0  0  0  0  0  0  0  0
    9.7379    5.4872  -13.0190 C   0  0  0  0  0  0  0  0  0  0  0  0
    9.9487    4.2219  -13.6054 C   0  0  0  0  0  0  0  0  0  0  0  0
    8.8404    3.3538  -13.8447 C   0  0  0  0  0  0  0  0  0  0  0  0
    9.0130    1.9296  -14.4042 C   0  0  0  0  0  0  0  0  0  0  0  0
    8.6871    1.7524  -15.8941 C   0  0  0  0  0  0  0  0  0  0  0  0
    7.3321    1.5625  -16.2533 C   0  0  0  0  0  0  0  0  0  0  0  0
    6.9445    1.3729  -17.5911 C   0  0  0  0  0  0  0  0  0  0  0  0
    7.9160    1.3677  -18.6043 C   0  0  0  0  0  0  0  0  0  0  0  0
    9.2705    1.5219  -18.2666 C   0  0  0  0  0  0  0  0  0  0  0  0
    9.6720    1.6979  -16.9226 C   0  0  0  0  0  0  0  0  0  0  0  0
   11.1748    1.7779  -16.6726 C   0  0  0  0  0  0  0  0  0  0  0  0
   11.7824    3.1215  -17.1077 C   0  0  0  0  0  0  0  0  0  0  0  0
   11.2091    4.2835  -16.3729 N   0  0  2  0  0  0  0  0  0  0  0  0
   11.0346    5.4693  -17.2487 C   0  0  0  0  0  0  0  0  0  0  0  0
   11.9481    4.6165  -15.1271 C   0  0  0  0  0  0  0  0  0  0  0  0
   11.3980    3.8686  -13.9067 C   0  0  0  0  0  0  0  0  0  0  0  0
    4.5707    2.3572  -13.0492 H   0  0  0  0  0  0  0  0  0  0  0  0
    4.7655    4.0635  -13.4277 H   0  0  0  0  0  0  0  0  0  0  0  0
    5.3841    3.3998  -11.8965 H   0  0  0  0  0  0  0  0  0  0  0  0
    6.3958    5.4081  -12.5278 H   0  0  0  0  0  0  0  0  0  0  0  0
    8.3034    6.8708  -12.1840 H   0  0  0  0  0  0  0  0  0  0  0  0
   10.5724    6.1480  -12.8357 H   0  0  0  0  0  0  0  0  0  0  0  0
    9.9732    1.5003  -14.1486 H   0  0  0  0  0  0  0  0  0  0  0  0
    8.3371    1.2778  -13.8490 H   0  0  0  0  0  0  0  0  0  0  0  0
    6.5635    1.5378  -15.4993 H   0  0  0  0  0  0  0  0  0  0  0  0
    5.9039    1.2233  -17.8345 H   0  0  0  0  0  0  0  0  0  0  0  0
    7.6286    1.2153  -19.6339 H   0  0  0  0  0  0  0  0  0  0  0  0
   10.0106    1.4757  -19.0491 H   0  0  0  0  0  0  0  0  0  0  0  0
   11.4501    1.5166  -15.6559 H   0  0  0  0  0  0  0  0  0  0  0  0
   11.6393    0.9888  -17.2642 H   0  0  0  0  0  0  0  0  0  0  0  0
   12.8688    3.0970  -17.0064 H   0  0  0  0  0  0  0  0  0  0  0  0
   11.5968    3.2390  -18.1771 H   0  0  0  0  0  0  0  0  0  0  0  0
   11.9996    5.8354  -17.6104 H   0  0  0  0  0  0  0  0  0  0  0  0
   10.5373    6.2773  -16.7074 H   0  0  0  0  0  0  0  0  0  0  0  0
   10.4064    5.2268  -18.1089 H   0  0  0  0  0  0  0  0  0  0  0  0
   13.0186    4.4310  -15.2435 H   0  0  0  0  0  0  0  0  0  0  0  0
   11.8650    5.6861  -14.9231 H   0  0  0  0  0  0  0  0  0  0  0  0
   11.9915    4.1750  -13.0473 H   0  0  0  0  0  0  0  0  0  0  0  0
   11.5842    2.8008  -13.9666 H   0  0  0  0  0  0  0  0  0  0  0  0
   10.2681    4.0224  -16.0938 H   0  0  0  0  0  0  0  0  0  0  0  0
  2  1  1  0
  3  2  1  0
  4  3  1  0
  5  4  2  0
  6  5  1  0
  7  6  2  0
  8  3  2  0
  8  7  1  0
  9  8  1  0
 10  9  1  0
 11 10  2  0
 12 11  1  0
 13 12  2  0
 14 13  1  0
 15 10  1  0
 15 14  2  0
 16 15  1  0
 17 16  1  0
 18 17  1  0
 19 18  1  0
 20 18  1  0
 21  7  1  0
 21 20  1  0
 22  1  1  0
 23  1  1  0
 24  1  1  0
 25  4  1  0
 26  5  1  0
 27  6  1  0
 28  9  1  0
 29  9  1  0
 30 11  1  0
 31 12  1  0
 32 13  1  0
 33 14  1  0
 34 16  1  0
 35 16  1  0
 36 17  1  0
 37 17  1  0
 38 19  1  0
 39 19  1  0
 40 19  1  0
 41 20  1  0
 42 20  1  0
 43 21  1  0
 44 21  1  0
 18 45  1  1
M  CHG  1  18   1
M  END
>  <b_m_subgroup_collapsed>  (1505) 
0

>  <r_i_docking_score>  (1505) 
-5.4213677575184596

>  <s_m_subgroup_title>  (1505) 
glide-dock_SP_D22_pv

>  <s_m_subgroupid>  (1505) 
glide-dock_SP_D22_pv

>  <Molecule ChEMBL ID>  (1505) 
CHEMBL379662

>  <Standard Type>  (1505) 
Ki

>  <Standard Value>  (1505) 
39.9

>  <label>  (1505) 
1

$$$$
CHEMBL1201192
     RDKit          3D

 34 35  0  0  1  0  0  0  0  0999 V2000
    8.4863    6.8579   -7.2139 N   0  0  0  0  0  0  0  0  0  0  0  0
    9.4672    6.2631   -7.8910 C   0  0  0  0  0  0  0  0  0  0  0  0
   10.6002    6.1731   -7.4259 O   0  0  0  0  0  0  0  0  0  0  0  0
    9.1531    5.6790   -9.2661 C   0  0  0  0  0  0  0  0  0  0  0  0
    9.8988    6.7131  -10.6148 S   0  0  0  0  0  0  0  0  0  0  0  0
   11.3523    6.9988  -10.2326 O   0  0  0  0  0  0  0  0  0  0  0  0
    9.8688    5.4487  -11.9986 C   0  0  0  0  0  0  0  0  0  0  0  0
   10.8837    5.7372  -13.1203 C   0  0  0  0  0  0  0  0  0  0  0  0
   11.2015    4.7161  -14.0476 C   0  0  0  0  0  0  0  0  0  0  0  0
   12.1316    4.9346  -15.0825 C   0  0  0  0  0  0  0  0  0  0  0  0
   12.7672    6.1829  -15.2055 C   0  0  0  0  0  0  0  0  0  0  0  0
   12.4858    7.2005  -14.2775 C   0  0  0  0  0  0  0  0  0  0  0  0
   11.5660    6.9712  -13.2371 C   0  0  0  0  0  0  0  0  0  0  0  0
    8.4427    5.1908  -12.4900 C   0  0  0  0  0  0  0  0  0  0  0  0
    7.4188    6.1507  -12.3349 C   0  0  0  0  0  0  0  0  0  0  0  0
    6.0863    5.8300  -12.6468 C   0  0  0  0  0  0  0  0  0  0  0  0
    5.7653    4.5736  -13.1924 C   0  0  0  0  0  0  0  0  0  0  0  0
    6.7857    3.6348  -13.4178 C   0  0  0  0  0  0  0  0  0  0  0  0
    8.1113    3.9369  -13.0508 C   0  0  0  0  0  0  0  0  0  0  0  0
    8.6785    7.2265   -6.2958 H   0  0  0  0  0  0  0  0  0  0  0  0
    7.5407    6.9734   -7.6102 H   0  0  0  0  0  0  0  0  0  0  0  0
    8.0791    5.5878   -9.4261 H   0  0  0  0  0  0  0  0  0  0  0  0
    9.5750    4.6745   -9.3045 H   0  0  0  0  0  0  0  0  0  0  0  0
   10.1922    4.5110  -11.5478 H   0  0  0  0  0  0  0  0  0  0  0  0
   10.7441    3.7431  -13.9730 H   0  0  0  0  0  0  0  0  0  0  0  0
   12.3583    4.1431  -15.7816 H   0  0  0  0  0  0  0  0  0  0  0  0
   13.4803    6.3546  -15.9979 H   0  0  0  0  0  0  0  0  0  0  0  0
   12.9829    8.1562  -14.3577 H   0  0  0  0  0  0  0  0  0  0  0  0
   11.3814    7.7722  -12.5445 H   0  0  0  0  0  0  0  0  0  0  0  0
    7.6189    7.1301  -11.9280 H   0  0  0  0  0  0  0  0  0  0  0  0
    5.3130    6.5648  -12.4755 H   0  0  0  0  0  0  0  0  0  0  0  0
    4.7430    4.3355  -13.4443 H   0  0  0  0  0  0  0  0  0  0  0  0
    6.5472    2.6678  -13.8355 H   0  0  0  0  0  0  0  0  0  0  0  0
    8.8638    3.1725  -13.1671 H   0  0  0  0  0  0  0  0  0  0  0  0
  2  1  1  0
  3  2  2  0
  4  2  1  0
  5  4  1  1
  6  5  2  0
  7  5  1  0
  8  7  1  0
  9  8  2  0
 10  9  1  0
 11 10  2  0
 12 11  1  0
 13  8  1  0
 13 12  2  0
 14  7  1  0
 15 14  2  0
 16 15  1  0
 17 16  2  0
 18 17  1  0
 19 14  1  0
 19 18  2  0
 20  1  1  0
 21  1  1  0
 22  4  1  0
 23  4  1  0
 24  7  1  0
 25  9  1  0
 26 10  1  0
 27 11  1  0
 28 12  1  0
 29 13  1  0
 30 15  1  0
 31 16  1  0
 32 17  1  0
 33 18  1  0
 34 19  1  0
M  END
>  <b_m_subgroup_collapsed>  (1506) 
0

>  <r_i_docking_score>  (1506) 
-5.4108928377098104

>  <s_m_subgroup_title>  (1506) 
glide-dock_SP_D22_pv

>  <s_m_subgroupid>  (1506) 
glide-dock_SP_D22_pv

>  <Molecule ChEMBL ID>  (1506) 
CHEMBL1201192

>  <Standard Type>  (1506) 
Ki

>  <Standard Value>  (1506) 
100000.0

>  <label>  (1506) 
0

$$$$
CHEMBL561262
     RDKit          3D

 51 54  0  0  1  0  0  0  0  0999 V2000
    5.3066    0.8921  -13.0244 C   0  0  0  0  0  0  0  0  0  0  0  0
    6.0806    2.0047  -13.4431 O   0  0  0  0  0  0  0  0  0  0  0  0
    6.9758    1.8292  -14.4761 C   0  0  0  0  0  0  0  0  0  0  0  0
    6.8530    0.7491  -15.3889 C   0  0  0  0  0  0  0  0  0  0  0  0
    7.7803    0.5709  -16.4294 C   0  0  0  0  0  0  0  0  0  0  0  0
    8.8443    1.4740  -16.5781 C   0  0  0  0  0  0  0  0  0  0  0  0
    8.9760    2.5500  -15.6831 C   0  0  0  0  0  0  0  0  0  0  0  0
    8.0576    2.7457  -14.6249 C   0  0  0  0  0  0  0  0  0  0  0  0
    8.2889    3.8439  -13.7638 N   0  0  0  0  0  0  0  0  0  0  0  0
    7.2362    4.4769  -12.9719 C   0  0  0  0  0  0  0  0  0  0  0  0
    7.6438    5.9178  -12.5772 C   0  0  0  0  0  0  0  0  0  0  0  0
    8.9436    5.9679  -11.8936 N   0  0  0  0  0  0  0  0  0  0  0  0
    9.2807    7.3780  -11.6820 C   0  0  0  0  0  0  0  0  0  0  0  0
   10.5108    7.6541  -10.8648 C   0  0  0  0  0  0  0  0  0  0  0  0
   11.8281    7.7723  -11.2322 C   0  0  0  0  0  0  0  0  0  0  0  0
   12.4596    7.5864  -12.5794 C   0  0  0  0  0  0  0  0  0  0  0  0
   12.6123    8.1638  -10.1589 N   0  0  0  0  0  0  0  0  0  0  0  0
   11.7904    8.2819   -9.1251 C   0  0  0  0  0  0  0  0  0  0  0  0
   11.9963    8.6748   -7.7804 C   0  0  0  0  0  0  0  0  0  0  0  0
   10.9008    8.6989   -6.9558 C   0  0  0  0  0  0  0  0  0  0  0  0
   11.0294    9.1376   -5.5129 C   0  0  0  0  0  0  0  0  0  0  0  0
    9.6379    8.3491   -7.3540 N   0  0  0  0  0  0  0  0  0  0  0  0
    9.4581    7.9820   -8.5907 C   0  0  0  0  0  0  0  0  0  0  0  0
   10.4719    7.9485   -9.5051 N   0  0  0  0  0  0  0  0  0  0  0  0
    9.9367    5.3403  -12.7662 C   0  0  0  0  0  0  0  0  0  0  0  0
    9.5724    3.8823  -13.0764 C   0  0  0  0  0  0  0  0  0  0  0  0
    4.8860    1.1140  -12.0448 H   0  0  0  0  0  0  0  0  0  0  0  0
    4.4832    0.6983  -13.7128 H   0  0  0  0  0  0  0  0  0  0  0  0
    5.9122   -0.0092  -12.9167 H   0  0  0  0  0  0  0  0  0  0  0  0
    6.0453    0.0372  -15.3132 H   0  0  0  0  0  0  0  0  0  0  0  0
    7.6736   -0.2608  -17.1112 H   0  0  0  0  0  0  0  0  0  0  0  0
    9.5596    1.3428  -17.3765 H   0  0  0  0  0  0  0  0  0  0  0  0
    9.7962    3.2394  -15.8206 H   0  0  0  0  0  0  0  0  0  0  0  0
    6.3067    4.5080  -13.5412 H   0  0  0  0  0  0  0  0  0  0  0  0
    7.0500    3.8901  -12.0712 H   0  0  0  0  0  0  0  0  0  0  0  0
    7.6859    6.5441  -13.4665 H   0  0  0  0  0  0  0  0  0  0  0  0
    6.8777    6.3435  -11.9278 H   0  0  0  0  0  0  0  0  0  0  0  0
    9.3787    7.8771  -12.6465 H   0  0  0  0  0  0  0  0  0  0  0  0
    8.4430    7.8729  -11.1992 H   0  0  0  0  0  0  0  0  0  0  0  0
   11.7501    7.7718  -13.3857 H   0  0  0  0  0  0  0  0  0  0  0  0
   13.3016    8.2661  -12.7207 H   0  0  0  0  0  0  0  0  0  0  0  0
   12.8374    6.5721  -12.6997 H   0  0  0  0  0  0  0  0  0  0  0  0
   12.9873    8.9690   -7.4504 H   0  0  0  0  0  0  0  0  0  0  0  0
   12.0743    9.2175   -5.2105 H   0  0  0  0  0  0  0  0  0  0  0  0
   10.5549   10.1090   -5.3710 H   0  0  0  0  0  0  0  0  0  0  0  0
   10.5395    8.4168   -4.8588 H   0  0  0  0  0  0  0  0  0  0  0  0
    8.4848    7.6836   -8.9541 H   0  0  0  0  0  0  0  0  0  0  0  0
   10.0551    5.9010  -13.6942 H   0  0  0  0  0  0  0  0  0  0  0  0
   10.8860    5.3502  -12.2538 H   0  0  0  0  0  0  0  0  0  0  0  0
    9.5075    3.3098  -12.1506 H   0  0  0  0  0  0  0  0  0  0  0  0
   10.3665    3.4258  -13.6661 H   0  0  0  0  0  0  0  0  0  0  0  0
  2  1  1  0
  3  2  1  0
  4  3  2  0
  5  4  1  0
  6  5  2  0
  7  6  1  0
  8  3  1  0
  8  7  2  0
  9  8  1  0
 10  9  1  0
 11 10  1  0
 12 11  1  0
 13 12  1  0
 14 13  1  0
 15 14  2  0
 16 15  1  0
 17 15  1  0
 18 17  2  0
 19 18  1  0
 20 19  2  0
 21 20  1  0
 22 20  1  0
 23 22  2  0
 24 14  1  0
 24 18  1  0
 24 23  1  0
 25 12  1  0
 26  9  1  0
 26 25  1  0
 27  1  1  0
 28  1  1  0
 29  1  1  0
 30  4  1  0
 31  5  1  0
 32  6  1  0
 33  7  1  0
 34 10  1  0
 35 10  1  0
 36 11  1  0
 37 11  1  0
 38 13  1  0
 39 13  1  0
 40 16  1  0
 41 16  1  0
 42 16  1  0
 43 19  1  0
 44 21  1  0
 45 21  1  0
 46 21  1  0
 47 23  1  0
 48 25  1  0
 49 25  1  0
 50 26  1  0
 51 26  1  0
M  END
>  <b_m_subgroup_collapsed>  (1507) 
0

>  <r_i_docking_score>  (1507) 
-5.4031949655769997

>  <s_m_subgroup_title>  (1507) 
glide-dock_SP_D22_pv

>  <s_m_subgroupid>  (1507) 
glide-dock_SP_D22_pv

>  <Molecule ChEMBL ID>  (1507) 
CHEMBL561262

>  <Standard Type>  (1507) 
Ki

>  <Standard Value>  (1507) 
40000.0

>  <label>  (1507) 
0

$$$$
CHEMBL2368633
     RDKit          3D

 76 79  0  0  1  0  0  0  0  0999 V2000
    8.9789    4.7804   -8.8630 C   0  0  0  0  0  0  0  0  0  0  0  0
    8.6520    6.1555   -8.9657 O   0  0  0  0  0  0  0  0  0  0  0  0
    9.6364    7.0038   -8.5292 C   0  0  0  0  0  0  0  0  0  0  0  0
    9.6108    7.4351   -7.1877 C   0  0  0  0  0  0  0  0  0  0  0  0
   10.6073    8.3001   -6.7008 C   0  0  0  0  0  0  0  0  0  0  0  0
   11.6265    8.7437   -7.5615 C   0  0  0  0  0  0  0  0  0  0  0  0
   11.6407    8.3370   -8.9114 C   0  0  0  0  0  0  0  0  0  0  0  0
   10.6448    7.4661   -9.4122 C   0  0  0  0  0  0  0  0  0  0  0  0
   10.6528    6.9844  -10.8069 C   0  0  0  0  0  0  0  0  0  0  0  0
   11.5780    7.2282  -11.7558 C   0  0  0  0  0  0  0  0  0  0  0  0
   11.4609    6.5721  -13.0476 C   0  0  0  0  0  0  0  0  0  0  0  0
   10.5735    5.7752  -13.3606 O   0  0  0  0  0  0  0  0  0  0  0  0
   12.4834    6.8909  -13.8599 N   0  0  0  0  0  0  0  0  0  0  0  0
   12.7792    6.2778  -15.1544 C   0  0  1  0  0  0  0  0  0  0  0  0
   12.9369    4.7536  -15.0415 C   0  0  0  0  0  0  0  0  0  0  0  0
   13.2675    4.1195  -16.3940 C   0  0  0  0  0  0  0  0  0  0  0  0
   12.2231    4.4752  -17.4700 C   0  0  2  0  0  0  0  0  0  0  0  0
   12.5365    3.8188  -18.8307 C   0  0  0  0  0  0  0  0  0  0  0  0
   12.7228    2.2765  -18.8519 C   0  0  0  0  0  0  0  0  0  0  0  0
   11.5050    1.4512  -18.6004 N   0  0  2  0  0  0  0  0  0  0  0  0
   10.3535    1.8262  -19.4621 C   0  0  0  0  0  0  0  0  0  0  0  0
    9.3416    0.6863  -19.6506 C   0  0  0  0  0  0  0  0  0  0  0  0
    8.3812    0.5503  -18.4850 C   0  0  0  0  0  0  0  0  0  0  0  0
    7.0036    0.7580  -18.7103 C   0  0  0  0  0  0  0  0  0  0  0  0
    6.0861    0.6678  -17.6493 C   0  0  0  0  0  0  0  0  0  0  0  0
    6.5338    0.3514  -16.3519 C   0  0  0  0  0  0  0  0  0  0  0  0
    5.6583    0.3299  -15.3005 O   0  0  0  0  0  0  0  0  0  0  0  0
    4.7531   -1.0603  -14.9537 S   0  0  0  0  0  0  0  0  0  0  0  0
    3.9401   -1.4276  -16.5567 C   0  0  0  0  0  0  0  0  0  0  0  0
    5.6848   -2.1524  -14.6470 O   0  0  0  0  0  0  0  0  0  0  0  0
    3.7295   -0.6638  -13.9734 O   0  0  0  0  0  0  0  0  0  0  0  0
    7.9104    0.1725  -16.1192 C   0  0  0  0  0  0  0  0  0  0  0  0
    8.8400    0.2493  -17.1806 C   0  0  0  0  0  0  0  0  0  0  0  0
   10.3128    0.0073  -16.8932 C   0  0  0  0  0  0  0  0  0  0  0  0
   11.2009    1.2336  -17.1588 C   0  0  0  0  0  0  0  0  0  0  0  0
   12.1030    6.0084  -17.5880 C   0  0  0  0  0  0  0  0  0  0  0  0
   11.7434    6.6382  -16.2299 C   0  0  0  0  0  0  0  0  0  0  0  0
    8.1068    4.1744   -9.1114 H   0  0  0  0  0  0  0  0  0  0  0  0
    9.7896    4.5070   -9.5397 H   0  0  0  0  0  0  0  0  0  0  0  0
    9.2826    4.5307   -7.8509 H   0  0  0  0  0  0  0  0  0  0  0  0
    8.8222    7.0935   -6.5327 H   0  0  0  0  0  0  0  0  0  0  0  0
   10.5875    8.6185   -5.6697 H   0  0  0  0  0  0  0  0  0  0  0  0
   12.3998    9.3971   -7.1874 H   0  0  0  0  0  0  0  0  0  0  0  0
   12.4321    8.7011   -9.5482 H   0  0  0  0  0  0  0  0  0  0  0  0
    9.8184    6.3492  -11.0687 H   0  0  0  0  0  0  0  0  0  0  0  0
   12.4172    7.8781  -11.5568 H   0  0  0  0  0  0  0  0  0  0  0  0
   13.1850    7.5215  -13.4990 H   0  0  0  0  0  0  0  0  0  0  0  0
   13.7403    6.6910  -15.4644 H   0  0  0  0  0  0  0  0  0  0  0  0
   13.7068    4.5454  -14.3037 H   0  0  0  0  0  0  0  0  0  0  0  0
   12.0266    4.2826  -14.6728 H   0  0  0  0  0  0  0  0  0  0  0  0
   14.2628    4.4242  -16.7173 H   0  0  0  0  0  0  0  0  0  0  0  0
   13.2859    3.0434  -16.2491 H   0  0  0  0  0  0  0  0  0  0  0  0
   11.2473    4.1244  -17.1405 H   0  0  0  0  0  0  0  0  0  0  0  0
   11.7812    4.1170  -19.5580 H   0  0  0  0  0  0  0  0  0  0  0  0
   13.4632    4.2581  -19.2014 H   0  0  0  0  0  0  0  0  0  0  0  0
   13.0672    2.0096  -19.8519 H   0  0  0  0  0  0  0  0  0  0  0  0
   13.5364    1.9685  -18.1961 H   0  0  0  0  0  0  0  0  0  0  0  0
    9.8612    2.7263  -19.0889 H   0  0  0  0  0  0  0  0  0  0  0  0
   10.7429    2.0720  -20.4516 H   0  0  0  0  0  0  0  0  0  0  0  0
    8.7657    0.8801  -20.5563 H   0  0  0  0  0  0  0  0  0  0  0  0
    9.8466   -0.2650  -19.8227 H   0  0  0  0  0  0  0  0  0  0  0  0
    6.6372    0.9906  -19.6999 H   0  0  0  0  0  0  0  0  0  0  0  0
    5.0379    0.8483  -17.8365 H   0  0  0  0  0  0  0  0  0  0  0  0
    3.2898   -2.2784  -16.4054 H   0  0  0  0  0  0  0  0  0  0  0  0
    3.3099   -0.6184  -16.8900 H   0  0  0  0  0  0  0  0  0  0  0  0
    4.6815   -1.6863  -17.3096 H   0  0  0  0  0  0  0  0  0  0  0  0
    8.2444   -0.0479  -15.1152 H   0  0  0  0  0  0  0  0  0  0  0  0
   10.4214   -0.2763  -15.8455 H   0  0  0  0  0  0  0  0  0  0  0  0
   10.6548   -0.8569  -17.4637 H   0  0  0  0  0  0  0  0  0  0  0  0
   12.1435    1.0541  -16.6418 H   0  0  0  0  0  0  0  0  0  0  0  0
   10.7565    2.1124  -16.6961 H   0  0  0  0  0  0  0  0  0  0  0  0
   13.0398    6.4334  -17.9520 H   0  0  0  0  0  0  0  0  0  0  0  0
   11.3423    6.2718  -18.3232 H   0  0  0  0  0  0  0  0  0  0  0  0
   10.7537    6.2901  -15.9343 H   0  0  0  0  0  0  0  0  0  0  0  0
   11.6862    7.7206  -16.3117 H   0  0  0  0  0  0  0  0  0  0  0  0
   11.7795    0.5362  -18.9278 H   0  0  0  0  0  0  0  0  0  0  0  0
  2  1  1  0
  3  2  1  0
  4  3  2  0
  5  4  1  0
  6  5  2  0
  7  6  1  0
  8  3  1  0
  8  7  2  0
  9  8  1  0
 10  9  2  0
 11 10  1  0
 12 11  2  0
 13 11  1  0
 14 13  1  0
 15 14  1  0
 16 15  1  0
 17 16  1  0
 18 17  1  0
 19 18  1  0
 20 19  1  0
 21 20  1  0
 22 21  1  0
 23 22  1  0
 24 23  1  0
 25 24  2  0
 26 25  1  0
 27 26  1  0
 28 27  1  0
 29 28  1  0
 30 28  2  0
 31 28  2  0
 32 26  2  0
 33 23  2  0
 33 32  1  0
 34 33  1  0
 35 20  1  0
 35 34  1  0
 36 17  1  0
 37 14  1  0
 37 36  1  0
 38  1  1  0
 39  1  1  0
 40  1  1  0
 41  4  1  0
 42  5  1  0
 43  6  1  0
 44  7  1  0
 45  9  1  0
 46 10  1  0
 47 13  1  0
 14 48  1  6
 49 15  1  0
 50 15  1  0
 51 16  1  0
 52 16  1  0
 17 53  1  1
 54 18  1  0
 55 18  1  0
 56 19  1  0
 57 19  1  0
 58 21  1  0
 59 21  1  0
 60 22  1  0
 61 22  1  0
 62 24  1  0
 63 25  1  0
 64 29  1  0
 65 29  1  0
 66 29  1  0
 67 32  1  0
 68 34  1  0
 69 34  1  0
 70 35  1  0
 71 35  1  0
 72 36  1  0
 73 36  1  0
 74 37  1  0
 75 37  1  0
 20 76  1  6
M  CHG  1  20   1
M  END
>  <b_m_subgroup_collapsed>  (1508) 
0

>  <r_i_docking_score>  (1508) 
-5.3944232147646201

>  <s_m_subgroup_title>  (1508) 
glide-dock_SP_D22_pv

>  <s_m_subgroupid>  (1508) 
glide-dock_SP_D22_pv

>  <Molecule ChEMBL ID>  (1508) 
CHEMBL2368633

>  <Standard Type>  (1508) 
Ki

>  <Standard Value>  (1508) 
100.0

>  <label>  (1508) 
1

$$$$
CHEMBL5597355
     RDKit          3D

 51 54  0  0  1  0  0  0  0  0999 V2000
    9.7448    4.1723  -10.7219 O   0  0  0  0  0  0  0  0  0  0  0  0
    9.1523    5.3633  -11.3180 S   0  0  0  0  0  0  0  0  0  0  0  0
    8.4860    6.3106  -10.4373 O   0  0  0  0  0  0  0  0  0  0  0  0
    8.0056    4.7796  -12.5114 C   0  0  0  0  0  0  0  0  0  0  0  0
    6.6904    5.2707  -12.5499 C   0  0  0  0  0  0  0  0  0  0  0  0
    5.7606    4.5952  -13.3544 C   0  0  0  0  0  0  0  0  0  0  0  0
    6.1609    3.4643  -14.0812 C   0  0  0  0  0  0  0  0  0  0  0  0
    7.4906    3.0039  -14.0868 C   0  0  0  0  0  0  0  0  0  0  0  0
    7.9373    1.8950  -14.8205 N   0  0  0  0  0  0  0  0  0  0  0  0
    7.0417    1.1060  -15.6505 C   0  0  0  0  0  0  0  0  0  0  0  0
    7.8266    0.3335  -16.7218 C   0  0  0  0  0  0  0  0  0  0  0  0
    6.8731   -0.5106  -17.5841 C   0  0  0  0  0  0  0  0  0  0  0  0
    6.0860   -1.4277  -16.7328 N   0  0  0  0  0  0  0  0  0  0  0  0
    5.2911   -0.7316  -15.6989 C   0  0  0  0  0  0  0  0  0  0  0  0
    6.2047    0.1228  -14.8052 C   0  0  0  0  0  0  0  0  0  0  0  0
    8.4131    3.6808  -13.2860 C   0  0  0  0  0  0  0  0  0  0  0  0
   10.4184    6.1881  -12.2028 N   0  0  0  0  0  0  0  0  0  0  0  0
   10.8856    5.7723  -13.4467 C   0  0  0  0  0  0  0  0  0  0  0  0
   11.9939    6.4930  -13.7680 C   0  0  0  0  0  0  0  0  0  0  0  0
   12.2363    7.3723  -12.6868 C   0  0  0  0  0  0  0  0  0  0  0  0
   11.2347    7.2401  -11.7642 C   0  0  0  0  0  0  0  0  0  0  0  0
   11.0937    7.9005  -10.4639 C   0  0  0  0  0  0  0  0  0  0  0  0
   12.1751    7.8993   -9.5580 C   0  0  0  0  0  0  0  0  0  0  0  0
   12.0404    8.4310   -8.2612 C   0  0  0  0  0  0  0  0  0  0  0  0
   10.7990    8.9339   -7.8368 C   0  0  0  0  0  0  0  0  0  0  0  0
    9.7253    8.9724   -8.7434 C   0  0  0  0  0  0  0  0  0  0  0  0
    9.9047    8.5503  -10.0722 C   0  0  0  0  0  0  0  0  0  0  0  0
    6.3885    6.1093  -11.9360 H   0  0  0  0  0  0  0  0  0  0  0  0
    4.7412    4.9356  -13.4314 H   0  0  0  0  0  0  0  0  0  0  0  0
    5.4172    2.9723  -14.6469 H   0  0  0  0  0  0  0  0  0  0  0  0
    8.8929    1.5848  -14.7072 H   0  0  0  0  0  0  0  0  0  0  0  0
    6.3841    1.7895  -16.1848 H   0  0  0  0  0  0  0  0  0  0  0  0
    8.3787    1.0279  -17.3566 H   0  0  0  0  0  0  0  0  0  0  0  0
    8.5689   -0.3126  -16.2502 H   0  0  0  0  0  0  0  0  0  0  0  0
    6.1960    0.1327  -18.1482 H   0  0  0  0  0  0  0  0  0  0  0  0
    7.4387   -1.0949  -18.3106 H   0  0  0  0  0  0  0  0  0  0  0  0
    5.4670   -1.9830  -17.3077 H   0  0  0  0  0  0  0  0  0  0  0  0
    4.5359   -0.1087  -16.1806 H   0  0  0  0  0  0  0  0  0  0  0  0
    4.7586   -1.4715  -15.0998 H   0  0  0  0  0  0  0  0  0  0  0  0
    6.8671   -0.5290  -14.2325 H   0  0  0  0  0  0  0  0  0  0  0  0
    5.5987    0.6581  -14.0740 H   0  0  0  0  0  0  0  0  0  0  0  0
    9.4158    3.2904  -13.1889 H   0  0  0  0  0  0  0  0  0  0  0  0
   10.4265    4.9804  -14.0087 H   0  0  0  0  0  0  0  0  0  0  0  0
   12.5886    6.3748  -14.6622 H   0  0  0  0  0  0  0  0  0  0  0  0
   13.0624    8.0635  -12.6004 H   0  0  0  0  0  0  0  0  0  0  0  0
   13.1201    7.4702   -9.8468 H   0  0  0  0  0  0  0  0  0  0  0  0
   12.8830    8.4326   -7.5878 H   0  0  0  0  0  0  0  0  0  0  0  0
   10.6744    9.3048   -6.8303 H   0  0  0  0  0  0  0  0  0  0  0  0
    8.7699    9.3721   -8.4355 H   0  0  0  0  0  0  0  0  0  0  0  0
    9.0747    8.6293  -10.7602 H   0  0  0  0  0  0  0  0  0  0  0  0
    6.7391   -2.0552  -16.2626 H   0  0  0  0  0  0  0  0  0  0  0  0
  2  1  2  0
  3  2  2  0
  4  2  1  0
  5  4  2  0
  6  5  1  0
  7  6  2  0
  8  7  1  0
  9  8  1  0
 10  9  1  0
 11 10  1  0
 12 11  1  0
 13 12  1  0
 14 13  1  0
 15 10  1  0
 15 14  1  0
 16  4  1  0
 16  8  2  0
 17  2  1  0
 18 17  1  0
 19 18  2  0
 20 19  1  0
 21 17  1  0
 21 20  2  0
 22 21  1  0
 23 22  2  0
 24 23  1  0
 25 24  2  0
 26 25  1  0
 27 22  1  0
 27 26  2  0
 28  5  1  0
 29  6  1  0
 30  7  1  0
 31  9  1  0
 32 10  1  0
 33 11  1  0
 34 11  1  0
 35 12  1  0
 36 12  1  0
 37 13  1  0
 38 14  1  0
 39 14  1  0
 40 15  1  0
 41 15  1  0
 42 16  1  0
 43 18  1  0
 44 19  1  0
 45 20  1  0
 46 23  1  0
 47 24  1  0
 48 25  1  0
 49 26  1  0
 50 27  1  0
 51 13  1  0
M  CHG  1  13   1
M  END
>  <b_m_subgroup_collapsed>  (1509) 
0

>  <r_i_docking_score>  (1509) 
-5.3894452350154696

>  <s_m_subgroup_title>  (1509) 
glide-dock_SP_D22_pv

>  <s_m_subgroupid>  (1509) 
glide-dock_SP_D22_pv

>  <Molecule ChEMBL ID>  (1509) 
CHEMBL5597355

>  <Standard Type>  (1509) 
Ki

>  <Standard Value>  (1509) 
10770.0

>  <label>  (1509) 
0

$$$$
CHEMBL104751
     RDKit          3D

 58 61  0  0  1  0  0  0  0  0999 V2000
   12.7126    7.3701  -12.7793 C   0  0  0  0  0  0  0  0  0  0  0  0
   11.4276    7.6638  -12.2879 O   0  0  0  0  0  0  0  0  0  0  0  0
   11.2359    7.9175  -10.9496 C   0  0  0  0  0  0  0  0  0  0  0  0
   12.2517    7.9381   -9.9672 C   0  0  0  0  0  0  0  0  0  0  0  0
   11.9301    8.1857   -8.6178 C   0  0  0  0  0  0  0  0  0  0  0  0
   10.5946    8.4222   -8.2425 C   0  0  0  0  0  0  0  0  0  0  0  0
   10.2045    8.7061   -6.5893 Cl  0  0  0  0  0  0  0  0  0  0  0  0
    9.5838    8.4305   -9.2196 C   0  0  0  0  0  0  0  0  0  0  0  0
    9.9065    8.1855  -10.5719 C   0  0  0  0  0  0  0  0  0  0  0  0
    8.8291    8.2295  -11.6412 C   0  0  0  0  0  0  0  0  0  0  0  0
    8.1806    6.9116  -11.8457 N   0  0  0  0  0  0  0  0  0  0  0  0
    9.0537    5.8097  -12.3209 C   0  0  0  0  0  0  0  0  0  0  0  0
    8.2672    4.4900  -12.4009 C   0  0  0  0  0  0  0  0  0  0  0  0
    7.1225    4.6702  -13.3000 N   0  0  0  0  0  0  0  0  0  0  0  0
    6.3941    3.4108  -13.5441 C   0  0  0  0  0  0  0  0  0  0  0  0
    7.1060    2.4054  -14.4801 C   0  0  0  0  0  0  0  0  0  0  0  0
    8.1938    2.7116  -14.9668 O   0  0  0  0  0  0  0  0  0  0  0  0
    6.4867    1.2260  -14.7380 N   0  0  0  0  0  0  0  0  0  0  0  0
    6.6791    0.4467  -15.9104 C   0  0  0  0  0  0  0  0  0  0  0  0
    7.6985    0.5124  -16.8883 C   0  0  0  0  0  0  0  0  0  0  0  0
    7.6185   -0.3451  -18.0058 C   0  0  0  0  0  0  0  0  0  0  0  0
    6.5414   -1.2535  -18.1447 C   0  0  0  0  0  0  0  0  0  0  0  0
    5.5348   -1.3194  -17.1581 C   0  0  0  0  0  0  0  0  0  0  0  0
    5.6317   -0.4584  -16.0520 C   0  0  0  0  0  0  0  0  0  0  0  0
    4.6653   -0.3568  -14.9117 C   0  0  0  0  0  0  0  0  0  0  0  0
    5.2963    0.7342  -14.0104 C   0  0  1  0  0  0  0  0  0  0  0  0
    5.6823    0.1722  -12.6426 C   0  0  0  0  0  0  0  0  0  0  0  0
    6.2258    5.6747  -12.7188 C   0  0  0  0  0  0  0  0  0  0  0  0
    6.9600    7.0236  -12.6516 C   0  0  0  0  0  0  0  0  0  0  0  0
   12.7260    7.5171  -13.8595 H   0  0  0  0  0  0  0  0  0  0  0  0
   13.5017    7.9927  -12.3612 H   0  0  0  0  0  0  0  0  0  0  0  0
   12.8859    6.3130  -12.5945 H   0  0  0  0  0  0  0  0  0  0  0  0
   13.2858    7.7726  -10.2130 H   0  0  0  0  0  0  0  0  0  0  0  0
   12.7110    8.1974   -7.8732 H   0  0  0  0  0  0  0  0  0  0  0  0
    8.5593    8.6238   -8.9312 H   0  0  0  0  0  0  0  0  0  0  0  0
    9.2242    8.6066  -12.5852 H   0  0  0  0  0  0  0  0  0  0  0  0
    8.0864    8.9673  -11.3327 H   0  0  0  0  0  0  0  0  0  0  0  0
    9.8880    5.6609  -11.6361 H   0  0  0  0  0  0  0  0  0  0  0  0
    9.4726    6.0603  -13.2961 H   0  0  0  0  0  0  0  0  0  0  0  0
    7.9305    4.1752  -11.4110 H   0  0  0  0  0  0  0  0  0  0  0  0
    8.9388    3.7100  -12.7613 H   0  0  0  0  0  0  0  0  0  0  0  0
    5.4520    3.6524  -14.0368 H   0  0  0  0  0  0  0  0  0  0  0  0
    6.1390    2.9610  -12.5869 H   0  0  0  0  0  0  0  0  0  0  0  0
    8.5279    1.1978  -16.8101 H   0  0  0  0  0  0  0  0  0  0  0  0
    8.3870   -0.3082  -18.7644 H   0  0  0  0  0  0  0  0  0  0  0  0
    6.4935   -1.9043  -19.0046 H   0  0  0  0  0  0  0  0  0  0  0  0
    4.7116   -2.0142  -17.2505 H   0  0  0  0  0  0  0  0  0  0  0  0
    3.6828   -0.0577  -15.2809 H   0  0  0  0  0  0  0  0  0  0  0  0
    4.5658   -1.3216  -14.4149 H   0  0  0  0  0  0  0  0  0  0  0  0
    4.5600    1.5204  -13.8467 H   0  0  0  0  0  0  0  0  0  0  0  0
    4.7943   -0.2257  -12.1655 H   0  0  0  0  0  0  0  0  0  0  0  0
    6.4150   -0.6320  -12.7280 H   0  0  0  0  0  0  0  0  0  0  0  0
    6.0858    0.9195  -11.9668 H   0  0  0  0  0  0  0  0  0  0  0  0
    5.3405    5.7919  -13.3436 H   0  0  0  0  0  0  0  0  0  0  0  0
    5.8778    5.3713  -11.7296 H   0  0  0  0  0  0  0  0  0  0  0  0
    6.2930    7.7854  -12.2473 H   0  0  0  0  0  0  0  0  0  0  0  0
    7.2860    7.3748  -13.6228 H   0  0  0  0  0  0  0  0  0  0  0  0
    7.8287    6.6717  -10.9236 H   0  0  0  0  0  0  0  0  0  0  0  0
  2  1  1  0
  3  2  1  0
  4  3  1  0
  5  4  2  0
  6  5  1  0
  7  6  1  0
  8  6  2  0
  9  3  2  0
  9  8  1  0
 10  9  1  0
 11 10  1  0
 12 11  1  0
 13 12  1  0
 14 13  1  0
 15 14  1  0
 16 15  1  0
 17 16  2  0
 18 16  1  0
 19 18  1  0
 20 19  2  0
 21 20  1  0
 22 21  2  0
 23 22  1  0
 24 19  1  0
 24 23  2  0
 25 24  1  0
 26 18  1  0
 26 25  1  0
 27 26  1  0
 28 14  1  0
 29 11  1  0
 29 28  1  0
 30  1  1  0
 31  1  1  0
 32  1  1  0
 33  4  1  0
 34  5  1  0
 35  8  1  0
 36 10  1  0
 37 10  1  0
 38 12  1  0
 39 12  1  0
 40 13  1  0
 41 13  1  0
 42 15  1  0
 43 15  1  0
 44 20  1  0
 45 21  1  0
 46 22  1  0
 47 23  1  0
 48 25  1  0
 49 25  1  0
 26 50  1  1
 51 27  1  0
 52 27  1  0
 53 27  1  0
 54 28  1  0
 55 28  1  0
 56 29  1  0
 57 29  1  0
 58 11  1  0
M  CHG  1  11   1
M  END
>  <b_m_subgroup_collapsed>  (1510) 
0

>  <r_i_docking_score>  (1510) 
-5.38705229539746

>  <s_m_subgroup_title>  (1510) 
glide-dock_SP_D22_pv

>  <s_m_subgroupid>  (1510) 
glide-dock_SP_D22_pv

>  <Molecule ChEMBL ID>  (1510) 
CHEMBL104751

>  <Standard Type>  (1510) 
Ki

>  <Standard Value>  (1510) 
28.0

>  <label>  (1510) 
1

$$$$
CHEMBL137781
     RDKit          3D

 50 54  0  0  1  0  0  0  0  0999 V2000
   10.5496    9.0241   -9.6979 C   0  0  0  0  0  0  0  0  0  0  0  0
    9.4958    8.1756   -8.9872 C   0  0  2  0  0  0  0  0  0  0  0  0
    9.4545    8.1486   -7.4577 C   0  0  0  0  0  0  0  0  0  0  0  0
    9.9271    6.6928   -7.4686 C   0  0  2  0  0  0  0  0  0  0  0  0
   11.3318    6.3654   -6.9745 C   0  0  0  0  0  0  0  0  0  0  0  0
    9.8999    6.7709   -8.9265 N   0  0  0  0  0  0  0  0  0  0  0  0
    9.3027    5.7593   -9.7063 C   0  0  0  0  0  0  0  0  0  0  0  0
    9.1534    4.6223   -9.2556 O   0  0  0  0  0  0  0  0  0  0  0  0
    8.7622    6.1280  -11.1065 C   0  0  2  0  0  0  0  0  0  0  0  0
    7.8777    5.0892  -11.7646 C   0  0  0  0  0  0  0  0  0  0  0  0
    8.2006    4.4451  -12.9023 C   0  0  0  0  0  0  0  0  0  0  0  0
    7.3589    3.3719  -13.4468 C   0  0  0  0  0  0  0  0  0  0  0  0
    6.0239    3.0965  -13.0622 C   0  0  0  0  0  0  0  0  0  0  0  0
    5.3960    1.8970  -13.4464 C   0  0  0  0  0  0  0  0  0  0  0  0
    6.0880    0.9743  -14.2516 C   0  0  0  0  0  0  0  0  0  0  0  0
    7.3810    1.2428  -14.6580 C   0  0  0  0  0  0  0  0  0  0  0  0
    8.2680    0.5155  -15.4008 N   0  0  0  0  0  0  0  0  0  0  0  0
    9.4906    1.1679  -15.4621 C   0  0  0  0  0  0  0  0  0  0  0  0
    9.3222    2.3146  -14.7298 C   0  0  0  0  0  0  0  0  0  0  0  0
    8.0015    2.4117  -14.2470 C   0  0  0  0  0  0  0  0  0  0  0  0
   10.2039    3.4342  -14.2261 C   0  0  0  0  0  0  0  0  0  0  0  0
    9.5189    4.7190  -13.6446 C   0  0  2  0  0  0  0  0  0  0  0  0
   10.4860    5.4680  -12.8225 N   0  0  0  0  0  0  0  0  0  0  0  0
   11.6163    5.9776  -13.5970 C   0  0  0  0  0  0  0  0  0  0  0  0
    9.8828    6.5671  -12.0670 C   0  0  0  0  0  0  0  0  0  0  0  0
   10.4502   10.0758   -9.4468 H   0  0  0  0  0  0  0  0  0  0  0  0
   11.5656    8.7245   -9.4353 H   0  0  0  0  0  0  0  0  0  0  0  0
   10.4498    8.9703  -10.7797 H   0  0  0  0  0  0  0  0  0  0  0  0
    8.4868    8.3339   -9.3628 H   0  0  0  0  0  0  0  0  0  0  0  0
    8.4467    8.2679   -7.0537 H   0  0  0  0  0  0  0  0  0  0  0  0
   10.1554    8.8380   -6.9856 H   0  0  0  0  0  0  0  0  0  0  0  0
    9.1532    6.0347   -7.0686 H   0  0  0  0  0  0  0  0  0  0  0  0
   11.3799    6.3959   -5.8854 H   0  0  0  0  0  0  0  0  0  0  0  0
   11.6521    5.3727   -7.2848 H   0  0  0  0  0  0  0  0  0  0  0  0
   12.0644    7.0753   -7.3601 H   0  0  0  0  0  0  0  0  0  0  0  0
    8.0918    6.9726  -11.0018 H   0  0  0  0  0  0  0  0  0  0  0  0
    6.9716    4.8555  -11.2259 H   0  0  0  0  0  0  0  0  0  0  0  0
    5.4855    3.7801  -12.4220 H   0  0  0  0  0  0  0  0  0  0  0  0
    4.3866    1.6898  -13.1233 H   0  0  0  0  0  0  0  0  0  0  0  0
    5.6093    0.0538  -14.5510 H   0  0  0  0  0  0  0  0  0  0  0  0
    8.0836   -0.3999  -15.7920 H   0  0  0  0  0  0  0  0  0  0  0  0
   10.3563    0.7517  -15.9574 H   0  0  0  0  0  0  0  0  0  0  0  0
   10.8405    3.0127  -13.4478 H   0  0  0  0  0  0  0  0  0  0  0  0
   10.8814    3.7216  -15.0295 H   0  0  0  0  0  0  0  0  0  0  0  0
    9.2240    5.3371  -14.4940 H   0  0  0  0  0  0  0  0  0  0  0  0
   12.2952    6.5499  -12.9638 H   0  0  0  0  0  0  0  0  0  0  0  0
   12.2058    5.1684  -14.0255 H   0  0  0  0  0  0  0  0  0  0  0  0
   11.2864    6.6255  -14.4086 H   0  0  0  0  0  0  0  0  0  0  0  0
   10.6929    7.0137  -11.4953 H   0  0  0  0  0  0  0  0  0  0  0  0
    9.4954    7.3596  -12.6946 H   0  0  0  0  0  0  0  0  0  0  0  0
  2  1  1  0
  3  2  1  0
  4  3  1  0
  5  4  1  0
  6  2  1  0
  6  4  1  0
  7  6  1  0
  8  7  2  0
  9  7  1  0
 10  9  1  0
 11 10  2  0
 12 11  1  0
 13 12  1  0
 14 13  2  0
 15 14  1  0
 16 15  2  0
 17 16  1  0
 18 17  1  0
 19 18  2  0
 20 12  2  0
 20 16  1  0
 20 19  1  0
 21 19  1  0
 22 11  1  0
 22 21  1  0
 23 22  1  0
 24 23  1  0
 25  9  1  0
 25 23  1  0
 26  1  1  0
 27  1  1  0
 28  1  1  0
  2 29  1  6
 30  3  1  0
 31  3  1  0
  4 32  1  1
 33  5  1  0
 34  5  1  0
 35  5  1  0
  9 36  1  1
 37 10  1  0
 38 13  1  0
 39 14  1  0
 40 15  1  0
 41 17  1  0
 42 18  1  0
 43 21  1  0
 44 21  1  0
 22 45  1  6
 46 24  1  0
 47 24  1  0
 48 24  1  0
 49 25  1  0
 50 25  1  0
M  END
>  <b_m_subgroup_collapsed>  (1511) 
0

>  <r_i_docking_score>  (1511) 
-5.3827702696613997

>  <s_m_subgroup_title>  (1511) 
glide-dock_SP_D22_pv

>  <s_m_subgroupid>  (1511) 
glide-dock_SP_D22_pv

>  <Molecule ChEMBL ID>  (1511) 
CHEMBL137781

>  <Standard Type>  (1511) 
Ki

>  <Standard Value>  (1511) 
60.0

>  <label>  (1511) 
1

$$$$
CHEMBL3906408
     RDKit          3D

 92 96  0  0  1  0  0  0  0  0999 V2000
    4.9895   -2.8182  -18.9051 O   0  0  0  0  0  0  0  0  0  0  0  0
    4.5313   -1.7596  -19.3309 C   0  0  0  0  0  0  0  0  0  0  0  0
    3.4246   -1.0261  -18.5759 C   0  0  0  0  0  0  0  0  0  0  0  0
    3.4778   -1.1881  -17.0442 C   0  0  0  0  0  0  0  0  0  0  0  0
    4.7936   -0.7406  -16.3948 C   0  0  0  0  0  0  0  0  0  0  0  0
    4.7326   -0.8349  -14.8632 C   0  0  0  0  0  0  0  0  0  0  0  0
    6.1043   -0.6067  -14.2104 C   0  0  0  0  0  0  0  0  0  0  0  0
    6.6310    0.7459  -14.4998 N   0  0  0  0  0  0  0  0  0  0  0  0
    8.1135    0.8084  -14.4496 C   0  0  0  0  0  0  0  0  0  0  0  0
    8.6453    2.1824  -14.8797 C   0  0  0  0  0  0  0  0  0  0  0  0
    7.9266    3.2724  -14.2240 N   0  0  0  0  0  0  0  0  0  0  0  0
    8.6241    4.2344  -13.4552 C   0  0  0  0  0  0  0  0  0  0  0  0
    8.0889    4.6203  -12.1984 C   0  0  0  0  0  0  0  0  0  0  0  0
    8.7235    5.5809  -11.3906 C   0  0  0  0  0  0  0  0  0  0  0  0
    9.9236    6.1658  -11.8195 C   0  0  0  0  0  0  0  0  0  0  0  0
   10.4853    5.7779  -13.0468 C   0  0  0  0  0  0  0  0  0  0  0  0
    9.8514    4.8343  -13.8872 C   0  0  0  0  0  0  0  0  0  0  0  0
   10.5023    4.5756  -15.1864 C   0  0  0  0  0  0  0  0  0  0  0  0
   11.7987    4.0205  -15.2458 C   0  0  0  0  0  0  0  0  0  0  0  0
   12.4262    3.7836  -16.4852 C   0  0  0  0  0  0  0  0  0  0  0  0
   11.7610    4.0966  -17.6853 C   0  0  0  0  0  0  0  0  0  0  0  0
   10.4734    4.6646  -17.6417 C   0  0  0  0  0  0  0  0  0  0  0  0
    9.8627    4.9131  -16.3992 C   0  0  0  0  0  0  0  0  0  0  0  0
    6.4623    3.2057  -14.1998 C   0  0  0  0  0  0  0  0  0  0  0  0
    5.9713    1.8309  -13.7221 C   0  0  0  0  0  0  0  0  0  0  0  0
    4.9622   -1.1749  -20.4566 N   0  0  0  0  0  0  0  0  0  0  0  0
    6.0583   -1.6637  -21.2808 C   0  0  0  0  0  0  0  0  0  0  0  0
    7.4071   -1.1076  -20.8490 C   0  0  0  0  0  0  0  0  0  0  0  0
    8.0679   -0.1563  -21.6527 C   0  0  0  0  0  0  0  0  0  0  0  0
    9.3261    0.3415  -21.2692 C   0  0  0  0  0  0  0  0  0  0  0  0
    9.9470   -0.1021  -20.0844 C   0  0  0  0  0  0  0  0  0  0  0  0
   11.1967    0.4012  -19.8072 O   0  0  0  0  0  0  0  0  0  0  0  0
   12.0593   -0.3719  -18.9827 C   0  0  0  0  0  0  0  0  0  0  0  0
   13.4797   -0.2494  -19.5354 C   0  0  0  0  0  0  0  0  0  0  0  0
   14.0815    1.1490  -19.3184 C   0  0  0  0  0  0  0  0  0  0  0  0
   15.3594    1.4107  -19.9789 N   0  0  0  0  0  0  0  0  0  0  0  0
   16.3879    0.4069  -19.7157 C   0  0  0  0  0  0  0  0  0  0  0  0
   17.7314    0.8315  -20.3156 C   0  0  0  0  0  0  0  0  0  0  0  0
   17.5740    1.0078  -21.7206 O   0  0  0  0  0  0  0  0  0  0  0  0
   16.6027    2.0011  -22.0440 C   0  0  0  0  0  0  0  0  0  0  0  0
   15.2440    1.6344  -21.4158 C   0  0  0  0  0  0  0  0  0  0  0  0
    9.2645   -1.0274  -19.2572 C   0  0  0  0  0  0  0  0  0  0  0  0
    8.0078   -1.5312  -19.6455 C   0  0  0  0  0  0  0  0  0  0  0  0
    2.4851   -1.4298  -18.9446 H   0  0  0  0  0  0  0  0  0  0  0  0
    3.4318    0.0319  -18.8339 H   0  0  0  0  0  0  0  0  0  0  0  0
    3.2860   -2.2276  -16.7871 H   0  0  0  0  0  0  0  0  0  0  0  0
    2.6555   -0.6286  -16.6013 H   0  0  0  0  0  0  0  0  0  0  0  0
    5.0159    0.2789  -16.7073 H   0  0  0  0  0  0  0  0  0  0  0  0
    5.6130   -1.3606  -16.7573 H   0  0  0  0  0  0  0  0  0  0  0  0
    4.3849   -1.8274  -14.5879 H   0  0  0  0  0  0  0  0  0  0  0  0
    3.9836   -0.1466  -14.4771 H   0  0  0  0  0  0  0  0  0  0  0  0
    6.7868   -1.3585  -14.6072 H   0  0  0  0  0  0  0  0  0  0  0  0
    6.0680   -0.7677  -13.1324 H   0  0  0  0  0  0  0  0  0  0  0  0
    8.5426    0.0460  -15.1008 H   0  0  0  0  0  0  0  0  0  0  0  0
    8.4533    0.5721  -13.4461 H   0  0  0  0  0  0  0  0  0  0  0  0
    8.5511    2.3027  -15.9592 H   0  0  0  0  0  0  0  0  0  0  0  0
    9.7084    2.2118  -14.6471 H   0  0  0  0  0  0  0  0  0  0  0  0
    7.1803    4.1799  -11.8188 H   0  0  0  0  0  0  0  0  0  0  0  0
    8.2880    5.8633  -10.4425 H   0  0  0  0  0  0  0  0  0  0  0  0
   10.4184    6.9002  -11.2009 H   0  0  0  0  0  0  0  0  0  0  0  0
   11.4090    6.2396  -13.3661 H   0  0  0  0  0  0  0  0  0  0  0  0
   12.3182    3.7735  -14.3321 H   0  0  0  0  0  0  0  0  0  0  0  0
   13.4232    3.3724  -16.5193 H   0  0  0  0  0  0  0  0  0  0  0  0
   12.2419    3.9149  -18.6363 H   0  0  0  0  0  0  0  0  0  0  0  0
    9.9627    4.9202  -18.5578 H   0  0  0  0  0  0  0  0  0  0  0  0
    8.8881    5.3699  -16.3739 H   0  0  0  0  0  0  0  0  0  0  0  0
    6.0150    4.0006  -13.6043 H   0  0  0  0  0  0  0  0  0  0  0  0
    6.0874    3.3725  -15.2093 H   0  0  0  0  0  0  0  0  0  0  0  0
    4.8898    1.7869  -13.8466 H   0  0  0  0  0  0  0  0  0  0  0  0
    6.1217    1.6977  -12.6500 H   0  0  0  0  0  0  0  0  0  0  0  0
    4.5006   -0.3327  -20.7661 H   0  0  0  0  0  0  0  0  0  0  0  0
    6.0990   -2.7556  -21.2710 H   0  0  0  0  0  0  0  0  0  0  0  0
    5.8549   -1.3816  -22.3150 H   0  0  0  0  0  0  0  0  0  0  0  0
    7.6191    0.1863  -22.5725 H   0  0  0  0  0  0  0  0  0  0  0  0
    9.8350    1.0542  -21.9020 H   0  0  0  0  0  0  0  0  0  0  0  0
   12.0060   -0.0396  -17.9466 H   0  0  0  0  0  0  0  0  0  0  0  0
   11.8043   -1.4286  -19.0027 H   0  0  0  0  0  0  0  0  0  0  0  0
   14.1076   -0.9950  -19.0464 H   0  0  0  0  0  0  0  0  0  0  0  0
   13.4704   -0.5043  -20.5966 H   0  0  0  0  0  0  0  0  0  0  0  0
   13.3666    1.9020  -19.6500 H   0  0  0  0  0  0  0  0  0  0  0  0
   14.1923    1.3187  -18.2488 H   0  0  0  0  0  0  0  0  0  0  0  0
   16.5030    0.2446  -18.6490 H   0  0  0  0  0  0  0  0  0  0  0  0
   16.1026   -0.5519  -20.1485 H   0  0  0  0  0  0  0  0  0  0  0  0
   18.0846    1.7522  -19.8589 H   0  0  0  0  0  0  0  0  0  0  0  0
   18.4893    0.0840  -20.1070 H   0  0  0  0  0  0  0  0  0  0  0  0
   16.9446    2.9735  -21.6842 H   0  0  0  0  0  0  0  0  0  0  0  0
   16.5152    2.0751  -23.1269 H   0  0  0  0  0  0  0  0  0  0  0  0
   14.8577    0.7379  -21.9042 H   0  0  0  0  0  0  0  0  0  0  0  0
   14.5297    2.4337  -21.6116 H   0  0  0  0  0  0  0  0  0  0  0  0
    9.6930   -1.3713  -18.3290 H   0  0  0  0  0  0  0  0  0  0  0  0
    7.5128   -2.2561  -19.0154 H   0  0  0  0  0  0  0  0  0  0  0  0
    6.4044    0.9209  -15.4699 H   0  0  0  0  0  0  0  0  0  0  0  0
  2  1  2  0
  3  2  1  0
  4  3  1  0
  5  4  1  0
  6  5  1  0
  7  6  1  0
  8  7  1  0
  9  8  1  0
 10  9  1  0
 11 10  1  0
 12 11  1  0
 13 12  2  0
 14 13  1  0
 15 14  2  0
 16 15  1  0
 17 12  1  0
 17 16  2  0
 18 17  1  0
 19 18  2  0
 20 19  1  0
 21 20  2  0
 22 21  1  0
 23 18  1  0
 23 22  2  0
 24 11  1  0
 25  8  1  0
 25 24  1  0
 26  2  1  0
 27 26  1  0
 28 27  1  0
 29 28  1  0
 30 29  2  0
 31 30  1  0
 32 31  1  0
 33 32  1  0
 34 33  1  0
 35 34  1  0
 36 35  1  0
 37 36  1  0
 38 37  1  0
 39 38  1  0
 40 39  1  0
 41 36  1  0
 41 40  1  0
 42 31  2  0
 43 28  2  0
 43 42  1  0
 44  3  1  0
 45  3  1  0
 46  4  1  0
 47  4  1  0
 48  5  1  0
 49  5  1  0
 50  6  1  0
 51  6  1  0
 52  7  1  0
 53  7  1  0
 54  9  1  0
 55  9  1  0
 56 10  1  0
 57 10  1  0
 58 13  1  0
 59 14  1  0
 60 15  1  0
 61 16  1  0
 62 19  1  0
 63 20  1  0
 64 21  1  0
 65 22  1  0
 66 23  1  0
 67 24  1  0
 68 24  1  0
 69 25  1  0
 70 25  1  0
 71 26  1  0
 72 27  1  0
 73 27  1  0
 74 29  1  0
 75 30  1  0
 76 33  1  0
 77 33  1  0
 78 34  1  0
 79 34  1  0
 80 35  1  0
 81 35  1  0
 82 37  1  0
 83 37  1  0
 84 38  1  0
 85 38  1  0
 86 40  1  0
 87 40  1  0
 88 41  1  0
 89 41  1  0
 90 42  1  0
 91 43  1  0
 92  8  1  0
M  CHG  1   8   1
M  END
>  <b_m_subgroup_collapsed>  (1512) 
0

>  <r_i_docking_score>  (1512) 
-5.3638542210841402

>  <s_m_subgroup_title>  (1512) 
glide-dock_SP_D22_pv

>  <s_m_subgroupid>  (1512) 
glide-dock_SP_D22_pv

>  <Molecule ChEMBL ID>  (1512) 
CHEMBL3906408

>  <Standard Type>  (1512) 
Ki

>  <Standard Value>  (1512) 
64.0

>  <label>  (1512) 
1

$$$$
CHEMBL1259144
     RDKit          3D

 55 58  0  0  1  0  0  0  0  0999 V2000
    4.8896   -3.1852  -21.3997 C   0  0  0  0  0  0  0  0  0  0  0  0
    5.5981   -2.0010  -20.7528 C   0  0  0  0  0  0  0  0  0  0  0  0
    6.7569   -2.1155  -20.3485 O   0  0  0  0  0  0  0  0  0  0  0  0
    4.8868   -0.8667  -20.6557 N   0  0  0  0  0  0  0  0  0  0  0  0
    5.3761    0.3725  -20.0639 C   0  0  0  0  0  0  0  0  0  0  0  0
    5.6407    0.2463  -18.5738 C   0  0  0  0  0  0  0  0  0  0  0  0
    4.6493   -0.2945  -17.7287 C   0  0  0  0  0  0  0  0  0  0  0  0
    4.8861   -0.4065  -16.3496 C   0  0  0  0  0  0  0  0  0  0  0  0
    6.1320   -0.0168  -15.8259 C   0  0  0  0  0  0  0  0  0  0  0  0
    7.1640    0.4566  -16.6617 C   0  0  0  0  0  0  0  0  0  0  0  0
    6.8901    0.6295  -18.0404 C   0  0  0  0  0  0  0  0  0  0  0  0
    8.5506    0.7380  -16.0641 C   0  0  1  0  0  0  0  0  0  0  0  0
    9.6295    0.4948  -17.0715 N   0  0  0  0  0  0  0  0  0  0  0  0
   10.9613    1.1026  -16.8008 C   0  0  0  0  0  0  0  0  0  0  0  0
   11.9003    0.8778  -18.0027 C   0  0  0  0  0  0  0  0  0  0  0  0
   12.0665   -0.5534  -18.2469 N   0  0  0  0  0  0  0  0  0  0  0  0
   12.9880   -0.7624  -19.3555 C   0  0  0  0  0  0  0  0  0  0  0  0
   10.7674   -1.1541  -18.5370 C   0  0  0  0  0  0  0  0  0  0  0  0
    9.8040   -0.9492  -17.3625 C   0  0  0  0  0  0  0  0  0  0  0  0
    8.6392    2.1021  -15.3331 C   0  0  0  0  0  0  0  0  0  0  0  0
    7.5401    2.5339  -14.3571 C   0  0  0  0  0  0  0  0  0  0  0  0
    7.6286    3.8738  -13.9093 C   0  0  0  0  0  0  0  0  0  0  0  0
    6.6724    4.4243  -13.0385 C   0  0  0  0  0  0  0  0  0  0  0  0
    5.6069    3.6311  -12.5924 C   0  0  0  0  0  0  0  0  0  0  0  0
    5.5161    2.2881  -12.9936 C   0  0  0  0  0  0  0  0  0  0  0  0
    6.4858    1.7196  -13.8465 C   0  0  0  0  0  0  0  0  0  0  0  0
    6.3835   -0.0248  -14.0996 S   0  0  0  0  0  0  0  0  0  0  0  0
    3.9589   -3.4086  -20.8741 H   0  0  0  0  0  0  0  0  0  0  0  0
    4.6528   -2.9645  -22.4412 H   0  0  0  0  0  0  0  0  0  0  0  0
    5.5212   -4.0736  -21.3692 H   0  0  0  0  0  0  0  0  0  0  0  0
    3.9699   -0.8487  -21.0844 H   0  0  0  0  0  0  0  0  0  0  0  0
    4.6256    1.1503  -20.2200 H   0  0  0  0  0  0  0  0  0  0  0  0
    6.2755    0.6925  -20.5920 H   0  0  0  0  0  0  0  0  0  0  0  0
    3.6925   -0.6004  -18.1312 H   0  0  0  0  0  0  0  0  0  0  0  0
    4.1103   -0.7784  -15.6947 H   0  0  0  0  0  0  0  0  0  0  0  0
    7.6433    1.0110  -18.7145 H   0  0  0  0  0  0  0  0  0  0  0  0
    8.7401   -0.0137  -15.2963 H   0  0  0  0  0  0  0  0  0  0  0  0
   10.8815    2.1799  -16.6549 H   0  0  0  0  0  0  0  0  0  0  0  0
   11.3909    0.6840  -15.8878 H   0  0  0  0  0  0  0  0  0  0  0  0
   11.5082    1.3711  -18.8943 H   0  0  0  0  0  0  0  0  0  0  0  0
   12.8741    1.3242  -17.7914 H   0  0  0  0  0  0  0  0  0  0  0  0
   12.6102   -0.3260  -20.2814 H   0  0  0  0  0  0  0  0  0  0  0  0
   13.9564   -0.3116  -19.1376 H   0  0  0  0  0  0  0  0  0  0  0  0
   13.1612   -1.8256  -19.5253 H   0  0  0  0  0  0  0  0  0  0  0  0
   10.3466   -0.7605  -19.4643 H   0  0  0  0  0  0  0  0  0  0  0  0
   10.8849   -2.2271  -18.6471 H   0  0  0  0  0  0  0  0  0  0  0  0
   10.1824   -1.4557  -16.4733 H   0  0  0  0  0  0  0  0  0  0  0  0
    8.8493   -1.4206  -17.6052 H   0  0  0  0  0  0  0  0  0  0  0  0
    8.6914    2.8850  -16.0913 H   0  0  0  0  0  0  0  0  0  0  0  0
    9.5730    2.1534  -14.7709 H   0  0  0  0  0  0  0  0  0  0  0  0
    8.4359    4.5052  -14.2528 H   0  0  0  0  0  0  0  0  0  0  0  0
    6.7560    5.4526  -12.7149 H   0  0  0  0  0  0  0  0  0  0  0  0
    4.8863    4.0535  -11.9108 H   0  0  0  0  0  0  0  0  0  0  0  0
    4.7185    1.6739  -12.6061 H   0  0  0  0  0  0  0  0  0  0  0  0
    9.3098    0.9222  -17.9269 H   0  0  0  0  0  0  0  0  0  0  0  0
  2  1  1  0
  3  2  2  0
  4  2  1  0
  5  4  1  0
  6  5  1  0
  7  6  1  0
  8  7  2  0
  9  8  1  0
 10  9  2  0
 11  6  2  0
 11 10  1  0
 12 10  1  0
 13 12  1  0
 14 13  1  0
 15 14  1  0
 16 15  1  0
 17 16  1  0
 18 16  1  0
 19 13  1  0
 19 18  1  0
 20 12  1  0
 21 20  1  0
 22 21  2  0
 23 22  1  0
 24 23  2  0
 25 24  1  0
 26 21  1  0
 26 25  2  0
 27  9  1  0
 27 26  1  0
 28  1  1  0
 29  1  1  0
 30  1  1  0
 31  4  1  0
 32  5  1  0
 33  5  1  0
 34  7  1  0
 35  8  1  0
 36 11  1  0
 12 37  1  1
 38 14  1  0
 39 14  1  0
 40 15  1  0
 41 15  1  0
 42 17  1  0
 43 17  1  0
 44 17  1  0
 45 18  1  0
 46 18  1  0
 47 19  1  0
 48 19  1  0
 49 20  1  0
 50 20  1  0
 51 22  1  0
 52 23  1  0
 53 24  1  0
 54 25  1  0
 55 13  1  0
M  CHG  1  13   1
M  END
>  <b_m_subgroup_collapsed>  (1513) 
0

>  <r_i_docking_score>  (1513) 
-5.3504829955806201

>  <s_m_subgroup_title>  (1513) 
glide-dock_SP_D22_pv

>  <s_m_subgroupid>  (1513) 
glide-dock_SP_D22_pv

>  <Molecule ChEMBL ID>  (1513) 
CHEMBL1259144

>  <Standard Type>  (1513) 
Ki

>  <Standard Value>  (1513) 
7.1

>  <label>  (1513) 
1

$$$$
CHEMBL514286
     RDKit          3D

 67 70  0  0  1  0  0  0  0  0999 V2000
    8.8026    4.4712   -8.6458 C   0  0  0  0  0  0  0  0  0  0  0  0
    9.2618    5.6642   -8.0277 O   0  0  0  0  0  0  0  0  0  0  0  0
    9.9672    6.5571   -8.8039 C   0  0  0  0  0  0  0  0  0  0  0  0
   10.6074    7.6213   -8.1386 C   0  0  0  0  0  0  0  0  0  0  0  0
   11.3703    8.5599   -8.8567 C   0  0  0  0  0  0  0  0  0  0  0  0
   11.4961    8.4437  -10.2538 C   0  0  0  0  0  0  0  0  0  0  0  0
   10.8539    7.3909  -10.9411 C   0  0  0  0  0  0  0  0  0  0  0  0
   10.9627    7.2600  -12.4550 C   0  0  0  0  0  0  0  0  0  0  0  0
   12.4129    7.1002  -12.9519 C   0  0  0  0  0  0  0  0  0  0  0  0
   12.5384    6.9118  -14.4588 C   0  0  0  0  0  0  0  0  0  0  0  0
   12.8859    8.0158  -15.2567 C   0  0  0  0  0  0  0  0  0  0  0  0
   13.0680    7.8812  -16.6424 C   0  0  0  0  0  0  0  0  0  0  0  0
   12.9184    6.6211  -17.2411 C   0  0  0  0  0  0  0  0  0  0  0  0
   12.5920    5.5035  -16.4505 C   0  0  0  0  0  0  0  0  0  0  0  0
   12.3863    5.6373  -15.0527 C   0  0  0  0  0  0  0  0  0  0  0  0
   12.0607    4.5853  -14.2218 O   0  0  0  0  0  0  0  0  0  0  0  0
   11.6810    3.3405  -14.7909 C   0  0  0  0  0  0  0  0  0  0  0  0
   10.2952    3.4429  -15.4668 C   0  0  0  0  0  0  0  0  0  0  0  0
    9.7515    2.1285  -15.7984 N   0  0  0  0  0  0  0  0  0  0  0  0
    8.6800    2.2925  -16.7917 C   0  0  0  0  0  0  0  0  0  0  0  0
    8.0298    0.9384  -17.1462 C   0  0  0  0  0  0  0  0  0  0  0  0
    7.5549    0.3093  -15.9251 N   0  0  0  0  0  0  0  0  0  0  0  0
    6.2360   -0.1560  -15.7896 C   0  0  0  0  0  0  0  0  0  0  0  0
    5.6822   -0.9432  -16.8236 C   0  0  0  0  0  0  0  0  0  0  0  0
    4.3579   -1.4083  -16.7392 C   0  0  0  0  0  0  0  0  0  0  0  0
    3.5759   -1.0806  -15.6204 C   0  0  0  0  0  0  0  0  0  0  0  0
    4.1144   -0.3025  -14.5817 C   0  0  0  0  0  0  0  0  0  0  0  0
    5.4494    0.1723  -14.6518 C   0  0  0  0  0  0  0  0  0  0  0  0
    6.0002    0.9980  -13.6923 O   0  0  0  0  0  0  0  0  0  0  0  0
    5.1690    1.4731  -12.6471 C   0  0  0  0  0  0  0  0  0  0  0  0
    8.5422    0.1721  -14.8689 C   0  0  0  0  0  0  0  0  0  0  0  0
    9.1799    1.5364  -14.5815 C   0  0  0  0  0  0  0  0  0  0  0  0
   10.0853    6.4600  -10.2124 C   0  0  0  0  0  0  0  0  0  0  0  0
    8.2961    3.8484   -7.9096 H   0  0  0  0  0  0  0  0  0  0  0  0
    8.0854    4.6774   -9.4420 H   0  0  0  0  0  0  0  0  0  0  0  0
    9.6364    3.8927   -9.0467 H   0  0  0  0  0  0  0  0  0  0  0  0
   10.5167    7.7091   -7.0655 H   0  0  0  0  0  0  0  0  0  0  0  0
   11.8611    9.3669   -8.3353 H   0  0  0  0  0  0  0  0  0  0  0  0
   12.0843    9.1732  -10.7896 H   0  0  0  0  0  0  0  0  0  0  0  0
   10.4858    8.1362  -12.8952 H   0  0  0  0  0  0  0  0  0  0  0  0
   10.3743    6.4040  -12.7858 H   0  0  0  0  0  0  0  0  0  0  0  0
   12.8860    6.2481  -12.4682 H   0  0  0  0  0  0  0  0  0  0  0  0
   13.0061    7.9653  -12.6572 H   0  0  0  0  0  0  0  0  0  0  0  0
   13.0321    8.9724  -14.7905 H   0  0  0  0  0  0  0  0  0  0  0  0
   13.3263    8.7411  -17.2432 H   0  0  0  0  0  0  0  0  0  0  0  0
   13.0601    6.5061  -18.3059 H   0  0  0  0  0  0  0  0  0  0  0  0
   12.5040    4.5532  -16.9523 H   0  0  0  0  0  0  0  0  0  0  0  0
   11.6660    2.6364  -13.9617 H   0  0  0  0  0  0  0  0  0  0  0  0
   12.4420    2.9570  -15.4720 H   0  0  0  0  0  0  0  0  0  0  0  0
   10.3863    4.0269  -16.3791 H   0  0  0  0  0  0  0  0  0  0  0  0
    9.6021    3.9882  -14.8268 H   0  0  0  0  0  0  0  0  0  0  0  0
    9.0844    2.7474  -17.6967 H   0  0  0  0  0  0  0  0  0  0  0  0
    7.9244    2.9696  -16.3984 H   0  0  0  0  0  0  0  0  0  0  0  0
    8.7499    0.2802  -17.6336 H   0  0  0  0  0  0  0  0  0  0  0  0
    7.2065    1.0945  -17.8432 H   0  0  0  0  0  0  0  0  0  0  0  0
    6.2803   -1.2080  -17.6827 H   0  0  0  0  0  0  0  0  0  0  0  0
    3.9409   -2.0207  -17.5245 H   0  0  0  0  0  0  0  0  0  0  0  0
    2.5550   -1.4257  -15.5642 H   0  0  0  0  0  0  0  0  0  0  0  0
    3.4687   -0.0655  -13.7508 H   0  0  0  0  0  0  0  0  0  0  0  0
    5.7075    2.2098  -12.0541 H   0  0  0  0  0  0  0  0  0  0  0  0
    4.2750    1.9620  -13.0373 H   0  0  0  0  0  0  0  0  0  0  0  0
    4.8888    0.6561  -11.9836 H   0  0  0  0  0  0  0  0  0  0  0  0
    8.0967   -0.2289  -13.9601 H   0  0  0  0  0  0  0  0  0  0  0  0
    9.3026   -0.5390  -15.1890 H   0  0  0  0  0  0  0  0  0  0  0  0
    9.9638    1.3886  -13.8468 H   0  0  0  0  0  0  0  0  0  0  0  0
    8.4399    2.2030  -14.1381 H   0  0  0  0  0  0  0  0  0  0  0  0
    9.5963    5.6669  -10.7544 H   0  0  0  0  0  0  0  0  0  0  0  0
  2  1  1  0
  3  2  1  0
  4  3  1  0
  5  4  2  0
  6  5  1  0
  7  6  2  0
  8  7  1  0
  9  8  1  0
 10  9  1  0
 11 10  2  0
 12 11  1  0
 13 12  2  0
 14 13  1  0
 15 10  1  0
 15 14  2  0
 16 15  1  0
 17 16  1  0
 18 17  1  0
 19 18  1  0
 20 19  1  0
 21 20  1  0
 22 21  1  0
 23 22  1  0
 24 23  2  0
 25 24  1  0
 26 25  2  0
 27 26  1  0
 28 23  1  0
 28 27  2  0
 29 28  1  0
 30 29  1  0
 31 22  1  0
 32 19  1  0
 32 31  1  0
 33  3  2  0
 33  7  1  0
 34  1  1  0
 35  1  1  0
 36  1  1  0
 37  4  1  0
 38  5  1  0
 39  6  1  0
 40  8  1  0
 41  8  1  0
 42  9  1  0
 43  9  1  0
 44 11  1  0
 45 12  1  0
 46 13  1  0
 47 14  1  0
 48 17  1  0
 49 17  1  0
 50 18  1  0
 51 18  1  0
 52 20  1  0
 53 20  1  0
 54 21  1  0
 55 21  1  0
 56 24  1  0
 57 25  1  0
 58 26  1  0
 59 27  1  0
 60 30  1  0
 61 30  1  0
 62 30  1  0
 63 31  1  0
 64 31  1  0
 65 32  1  0
 66 32  1  0
 67 33  1  0
M  END
>  <b_m_subgroup_collapsed>  (1514) 
0

>  <r_i_docking_score>  (1514) 
-5.3475226449818498

>  <s_m_subgroup_title>  (1514) 
glide-dock_SP_D22_pv

>  <s_m_subgroupid>  (1514) 
glide-dock_SP_D22_pv

>  <Molecule ChEMBL ID>  (1514) 
CHEMBL514286

>  <Standard Type>  (1514) 
Ki

>  <Standard Value>  (1514) 
427000.0

>  <label>  (1514) 
0

$$$$
CHEMBL94015
     RDKit          3D

 37 39  0  0  1  0  0  0  0  0999 V2000
    5.7228    5.0110  -13.0769 C   0  0  0  0  0  0  0  0  0  0  0  0
    7.2521    5.0529  -12.9684 C   0  0  0  0  0  0  0  0  0  0  0  0
    7.7255    5.9826  -11.8416 C   0  0  0  0  0  0  0  0  0  0  0  0
    9.1292    5.7246  -11.5163 N   0  0  0  0  0  0  0  0  0  0  0  0
   10.0745    6.2931  -12.4529 C   0  0  0  0  0  0  0  0  0  0  0  0
   10.2971    7.6564  -12.2414 O   0  0  0  0  0  0  0  0  0  0  0  0
   10.8131    7.9607  -10.9479 C   0  0  0  0  0  0  0  0  0  0  0  0
    9.7790    7.5056   -9.9071 C   0  0  2  0  0  0  0  0  0  0  0  0
   10.1634    7.7587   -8.4485 C   0  0  0  0  0  0  0  0  0  0  0  0
   10.7644    8.9723   -8.0314 C   0  0  0  0  0  0  0  0  0  0  0  0
   11.1189    9.1693   -6.6776 C   0  0  0  0  0  0  0  0  0  0  0  0
   11.6857   10.3406   -6.2636 O   0  0  0  0  0  0  0  0  0  0  0  0
   10.8874    8.1522   -5.7368 C   0  0  0  0  0  0  0  0  0  0  0  0
   10.2751    6.9552   -6.1420 C   0  0  0  0  0  0  0  0  0  0  0  0
    9.8942    6.7533   -7.4824 C   0  0  0  0  0  0  0  0  0  0  0  0
    9.2928    5.5524   -7.7955 O   0  0  0  0  0  0  0  0  0  0  0  0
    8.6165    5.4595   -9.0357 C   0  0  0  0  0  0  0  0  0  0  0  0
    9.5307    6.0054  -10.1348 C   0  0  1  0  0  0  0  0  0  0  0  0
    5.4043    4.3582  -13.8899 H   0  0  0  0  0  0  0  0  0  0  0  0
    5.3031    6.0009  -13.2603 H   0  0  0  0  0  0  0  0  0  0  0  0
    5.2864    4.6300  -12.1528 H   0  0  0  0  0  0  0  0  0  0  0  0
    7.6098    4.0378  -12.7783 H   0  0  0  0  0  0  0  0  0  0  0  0
    7.6852    5.3641  -13.9177 H   0  0  0  0  0  0  0  0  0  0  0  0
    7.5745    7.0312  -12.1012 H   0  0  0  0  0  0  0  0  0  0  0  0
    7.0856    5.7724  -10.9892 H   0  0  0  0  0  0  0  0  0  0  0  0
   11.0282    5.7754  -12.3822 H   0  0  0  0  0  0  0  0  0  0  0  0
    9.7256    6.1629  -13.4743 H   0  0  0  0  0  0  0  0  0  0  0  0
   11.7783    7.4708  -10.7955 H   0  0  0  0  0  0  0  0  0  0  0  0
   10.9850    9.0322  -10.8857 H   0  0  0  0  0  0  0  0  0  0  0  0
    8.8547    8.0559  -10.0791 H   0  0  0  0  0  0  0  0  0  0  0  0
   10.9516    9.7706   -8.7403 H   0  0  0  0  0  0  0  0  0  0  0  0
   11.9457   10.3279   -5.3568 H   0  0  0  0  0  0  0  0  0  0  0  0
   11.1605    8.2873   -4.7009 H   0  0  0  0  0  0  0  0  0  0  0  0
   10.0878    6.1775   -5.4130 H   0  0  0  0  0  0  0  0  0  0  0  0
    8.3643    4.4146   -9.2160 H   0  0  0  0  0  0  0  0  0  0  0  0
    7.6866    6.0220   -8.9677 H   0  0  0  0  0  0  0  0  0  0  0  0
   10.4851    5.4929  -10.0045 H   0  0  0  0  0  0  0  0  0  0  0  0
  2  1  1  0
  3  2  1  0
  4  3  1  0
  5  4  1  0
  6  5  1  0
  7  6  1  0
  8  7  1  0
  9  8  1  0
 10  9  1  0
 11 10  2  0
 12 11  1  0
 13 11  1  0
 14 13  2  0
 15  9  2  0
 15 14  1  0
 16 15  1  0
 17 16  1  0
 18  4  1  0
 18  8  1  0
 18 17  1  0
 19  1  1  0
 20  1  1  0
 21  1  1  0
 22  2  1  0
 23  2  1  0
 24  3  1  0
 25  3  1  0
 26  5  1  0
 27  5  1  0
 28  7  1  0
 29  7  1  0
  8 30  1  6
 31 10  1  0
 32 12  1  0
 33 13  1  0
 34 14  1  0
 35 17  1  0
 36 17  1  0
 18 37  1  1
M  END
>  <b_m_subgroup_collapsed>  (1515) 
0

>  <r_i_docking_score>  (1515) 
-5.3409367801842498

>  <s_m_subgroup_title>  (1515) 
glide-dock_SP_D22_pv

>  <s_m_subgroupid>  (1515) 
glide-dock_SP_D22_pv

>  <Molecule ChEMBL ID>  (1515) 
CHEMBL94015

>  <Standard Type>  (1515) 
Ki

>  <Standard Value>  (1515) 
42.0

>  <label>  (1515) 
1

$$$$
CHEMBL254298
     RDKit          3D

 32 34  0  0  1  0  0  0  0  0999 V2000
    8.0916    0.7849  -16.3117 C   0  0  0  0  0  0  0  0  0  0  0  0
    8.8629    2.0222  -15.7580 C   0  0  1  0  0  0  0  0  0  0  0  0
    8.0656    2.7693  -14.6472 C   0  0  0  0  0  0  0  0  0  0  0  0
    6.7723    2.3408  -14.2472 C   0  0  0  0  0  0  0  0  0  0  0  0
    6.0383    3.0365  -13.2663 C   0  0  0  0  0  0  0  0  0  0  0  0
    6.5820    4.1742  -12.6473 C   0  0  0  0  0  0  0  0  0  0  0  0
    7.8659    4.6099  -13.0121 C   0  0  0  0  0  0  0  0  0  0  0  0
    8.5961    3.9161  -13.9961 C   0  0  0  0  0  0  0  0  0  0  0  0
   10.1989    1.5076  -15.1545 C   0  0  0  0  0  0  0  0  0  0  0  0
   10.2689    0.3893  -14.6470 O   0  0  0  0  0  0  0  0  0  0  0  0
   11.2860    2.2915  -15.2072 N   0  0  0  0  0  0  0  0  0  0  0  0
   11.3677    3.5109  -15.9185 C   0  0  0  0  0  0  0  0  0  0  0  0
   12.5031    4.3226  -15.7384 C   0  0  0  0  0  0  0  0  0  0  0  0
   12.6307    5.5261  -16.4519 C   0  0  0  0  0  0  0  0  0  0  0  0
   14.0314    6.5108  -16.2471 Cl  0  0  0  0  0  0  0  0  0  0  0  0
   11.6186    5.9202  -17.3430 C   0  0  0  0  0  0  0  0  0  0  0  0
   10.4748    5.1193  -17.5316 C   0  0  0  0  0  0  0  0  0  0  0  0
    9.2861    5.7000  -18.6468 Cl  0  0  0  0  0  0  0  0  0  0  0  0
   10.3358    3.9025  -16.8056 C   0  0  0  0  0  0  0  0  0  0  0  0
    9.1799    2.9689  -16.9593 C   0  0  0  0  0  0  0  0  0  0  0  0
    8.4852    2.9235  -17.9757 O   0  0  0  0  0  0  0  0  0  0  0  0
    8.6672    0.2666  -17.0803 H   0  0  0  0  0  0  0  0  0  0  0  0
    7.8761    0.0487  -15.5352 H   0  0  0  0  0  0  0  0  0  0  0  0
    7.1388    1.0628  -16.7646 H   0  0  0  0  0  0  0  0  0  0  0  0
    6.3016    1.4743  -14.6836 H   0  0  0  0  0  0  0  0  0  0  0  0
    5.0539    2.6923  -12.9848 H   0  0  0  0  0  0  0  0  0  0  0  0
    6.0240    4.7055  -11.8888 H   0  0  0  0  0  0  0  0  0  0  0  0
    8.2922    5.4796  -12.5333 H   0  0  0  0  0  0  0  0  0  0  0  0
    9.5749    4.2952  -14.2345 H   0  0  0  0  0  0  0  0  0  0  0  0
   12.1244    1.9546  -14.7545 H   0  0  0  0  0  0  0  0  0  0  0  0
   13.2858    4.0242  -15.0577 H   0  0  0  0  0  0  0  0  0  0  0  0
   11.7211    6.8463  -17.8899 H   0  0  0  0  0  0  0  0  0  0  0  0
  2  1  1  6
  3  2  1  0
  4  3  2  0
  5  4  1  0
  6  5  2  0
  7  6  1  0
  8  3  1  0
  8  7  2  0
  9  2  1  0
 10  9  2  0
 11  9  1  0
 12 11  1  0
 13 12  2  0
 14 13  1  0
 15 14  1  0
 16 14  2  0
 17 16  1  0
 18 17  1  0
 19 12  1  0
 19 17  2  0
 20  2  1  0
 20 19  1  0
 21 20  2  0
 22  1  1  0
 23  1  1  0
 24  1  1  0
 25  4  1  0
 26  5  1  0
 27  6  1  0
 28  7  1  0
 29  8  1  0
 30 11  1  0
 31 13  1  0
 32 16  1  0
M  END
>  <b_m_subgroup_collapsed>  (1516) 
0

>  <r_i_docking_score>  (1516) 
-5.3378095715703697

>  <s_m_subgroup_title>  (1516) 
glide-dock_SP_D22_pv

>  <s_m_subgroupid>  (1516) 
glide-dock_SP_D22_pv

>  <Molecule ChEMBL ID>  (1516) 
CHEMBL254298

>  <Standard Type>  (1516) 
Ki

>  <Standard Value>  (1516) 
10000.0

>  <label>  (1516) 
0

$$$$
CHEMBL24978
     RDKit          3D

 46 48  0  0  1  0  0  0  0  0999 V2000
   11.2232    7.5981  -10.6426 C   0  0  0  0  0  0  0  0  0  0  0  0
   10.4202    6.8153  -11.6912 C   0  0  0  0  0  0  0  0  0  0  0  0
    9.2657    5.9832  -11.0729 C   0  0  0  0  0  0  0  0  0  0  0  0
    8.1687    5.6096  -12.0177 N   0  0  0  0  0  0  0  0  0  0  0  0
    7.5332    6.7977  -12.6471 C   0  0  0  0  0  0  0  0  0  0  0  0
    5.9979    6.7654  -12.6461 C   0  0  0  0  0  0  0  0  0  0  0  0
    5.4296    8.1856  -12.7321 C   0  0  0  0  0  0  0  0  0  0  0  0
    8.4619    4.4351  -12.9060 C   0  0  2  0  0  0  0  0  0  0  0  0
    9.2567    4.7503  -14.1771 C   0  0  0  0  0  0  0  0  0  0  0  0
    9.6334    3.4990  -14.9438 C   0  0  0  0  0  0  0  0  0  0  0  0
   10.8358    3.3277  -15.6559 C   0  0  0  0  0  0  0  0  0  0  0  0
   11.0751    2.1400  -16.3666 C   0  0  0  0  0  0  0  0  0  0  0  0
   10.1022    1.1242  -16.3880 C   0  0  0  0  0  0  0  0  0  0  0  0
    8.8800    1.2598  -15.6951 C   0  0  0  0  0  0  0  0  0  0  0  0
    7.8552    0.2338  -15.7126 C   0  0  0  0  0  0  0  0  0  0  0  0
    6.7329    0.3666  -14.9940 C   0  0  0  0  0  0  0  0  0  0  0  0
    6.4904    1.5366  -14.1576 C   0  0  0  0  0  0  0  0  0  0  0  0
    5.4847    1.6075  -13.4477 O   0  0  0  0  0  0  0  0  0  0  0  0
    7.4417    2.5276  -14.1911 N   0  0  0  0  0  0  0  0  0  0  0  0
    8.6770    2.4462  -14.9562 C   0  0  0  0  0  0  0  0  0  0  0  0
    7.1839    3.7081  -13.3414 C   0  0  0  0  0  0  0  0  0  0  0  0
   12.0488    8.1365  -11.1094 H   0  0  0  0  0  0  0  0  0  0  0  0
   10.5948    8.3352  -10.1414 H   0  0  0  0  0  0  0  0  0  0  0  0
   11.6444    6.9503   -9.8764 H   0  0  0  0  0  0  0  0  0  0  0  0
   11.1027    6.1727  -12.2453 H   0  0  0  0  0  0  0  0  0  0  0  0
   10.0494    7.5392  -12.4148 H   0  0  0  0  0  0  0  0  0  0  0  0
    8.8000    6.5657  -10.2754 H   0  0  0  0  0  0  0  0  0  0  0  0
    9.6628    5.0946  -10.5802 H   0  0  0  0  0  0  0  0  0  0  0  0
    7.8336    7.6761  -12.0754 H   0  0  0  0  0  0  0  0  0  0  0  0
    7.9118    6.9719  -13.6442 H   0  0  0  0  0  0  0  0  0  0  0  0
    5.5716    6.1563  -13.4389 H   0  0  0  0  0  0  0  0  0  0  0  0
    5.6520    6.3066  -11.7197 H   0  0  0  0  0  0  0  0  0  0  0  0
    4.4861    8.2701  -12.2098 H   0  0  0  0  0  0  0  0  0  0  0  0
    6.0684    8.9236  -12.2469 H   0  0  0  0  0  0  0  0  0  0  0  0
    5.2836    8.4872  -13.7683 H   0  0  0  0  0  0  0  0  0  0  0  0
    9.0464    3.7320  -12.3104 H   0  0  0  0  0  0  0  0  0  0  0  0
   10.1716    5.2938  -13.9595 H   0  0  0  0  0  0  0  0  0  0  0  0
    8.6821    5.3702  -14.8646 H   0  0  0  0  0  0  0  0  0  0  0  0
   11.5802    4.1106  -15.6609 H   0  0  0  0  0  0  0  0  0  0  0  0
   12.0031    2.0110  -16.9046 H   0  0  0  0  0  0  0  0  0  0  0  0
   10.2987    0.2226  -16.9495 H   0  0  0  0  0  0  0  0  0  0  0  0
    8.0122   -0.6290  -16.3384 H   0  0  0  0  0  0  0  0  0  0  0  0
    5.9856   -0.4129  -15.0361 H   0  0  0  0  0  0  0  0  0  0  0  0
    6.5558    4.3608  -13.9425 H   0  0  0  0  0  0  0  0  0  0  0  0
    6.6188    3.4648  -12.4390 H   0  0  0  0  0  0  0  0  0  0  0  0
    7.4569    5.2738  -11.3808 H   0  0  0  0  0  0  0  0  0  0  0  0
  2  1  1  0
  3  2  1  0
  4  3  1  0
  5  4  1  0
  6  5  1  0
  7  6  1  0
  8  4  1  0
  9  8  1  0
 10  9  1  0
 11 10  1  0
 12 11  2  0
 13 12  1  0
 14 13  2  0
 15 14  1  0
 16 15  2  0
 17 16  1  0
 18 17  2  0
 19 17  1  0
 20 10  2  0
 20 14  1  0
 20 19  1  0
 21  8  1  0
 21 19  1  0
 22  1  1  0
 23  1  1  0
 24  1  1  0
 25  2  1  0
 26  2  1  0
 27  3  1  0
 28  3  1  0
 29  5  1  0
 30  5  1  0
 31  6  1  0
 32  6  1  0
 33  7  1  0
 34  7  1  0
 35  7  1  0
  8 36  1  1
 37  9  1  0
 38  9  1  0
 39 11  1  0
 40 12  1  0
 41 13  1  0
 42 15  1  0
 43 16  1  0
 44 21  1  0
 45 21  1  0
 46  4  1  0
M  CHG  1   4   1
M  END
>  <b_m_subgroup_collapsed>  (1517) 
0

>  <r_i_docking_score>  (1517) 
-5.3363889105490401

>  <s_m_subgroup_title>  (1517) 
glide-dock_SP_D22_pv

>  <s_m_subgroupid>  (1517) 
glide-dock_SP_D22_pv

>  <Molecule ChEMBL ID>  (1517) 
CHEMBL24978

>  <Standard Type>  (1517) 
Ki

>  <Standard Value>  (1517) 
3.5

>  <label>  (1517) 
1

$$$$
CHEMBL208847
     RDKit          3D

 80 85  0  0  1  0  0  0  0  0999 V2000
    8.3904    6.5716   -6.7432 C   0  0  0  0  0  0  0  0  0  0  0  0
    8.9095    6.4509   -8.0524 O   0  0  0  0  0  0  0  0  0  0  0  0
   10.0644    7.1378   -8.3568 C   0  0  0  0  0  0  0  0  0  0  0  0
   10.7570    7.9077   -7.3868 C   0  0  0  0  0  0  0  0  0  0  0  0
   11.9457    8.5718   -7.7152 C   0  0  0  0  0  0  0  0  0  0  0  0
   12.4474    8.4863   -9.0193 C   0  0  0  0  0  0  0  0  0  0  0  0
   11.7535    7.7727  -10.0069 C   0  0  0  0  0  0  0  0  0  0  0  0
   10.5738    7.0688   -9.6855 C   0  0  0  0  0  0  0  0  0  0  0  0
    9.9814    6.2795  -10.6925 N   0  0  0  0  0  0  0  0  0  0  0  0
    9.4219    4.9717  -10.3940 C   0  0  0  0  0  0  0  0  0  0  0  0
    7.9154    5.0181  -10.6480 C   0  0  0  0  0  0  0  0  0  0  0  0
    7.6486    5.3808  -12.0644 N   0  0  0  0  0  0  0  0  0  0  0  0
    6.2140    5.2847  -12.4439 C   0  0  0  0  0  0  0  0  0  0  0  0
    5.6584    3.8451  -12.4443 C   0  0  0  0  0  0  0  0  0  0  0  0
    6.2733    2.9250  -13.5120 C   0  0  0  0  0  0  0  0  0  0  0  0
    5.7260    1.4905  -13.4127 C   0  0  0  0  0  0  0  0  0  0  0  0
    6.0861    0.7383  -14.6039 N   0  0  0  0  0  0  0  0  0  0  0  0
    5.3399   -0.2501  -15.1100 C   0  0  0  0  0  0  0  0  0  0  0  0
    4.5513   -0.9158  -14.4386 O   0  0  0  0  0  0  0  0  0  0  0  0
    5.4155   -0.3856  -16.5788 C   0  0  0  0  0  0  0  0  0  0  0  0
    4.6981   -1.1608  -17.4764 C   0  0  0  0  0  0  0  0  0  0  0  0
    5.0934   -0.7138  -18.7561 C   0  0  0  0  0  0  0  0  0  0  0  0
    4.7846   -1.1286  -20.0691 C   0  0  0  0  0  0  0  0  0  0  0  0
    5.2856   -0.3662  -21.1555 C   0  0  0  0  0  0  0  0  0  0  0  0
    6.2600    0.6422  -20.9519 C   0  0  0  0  0  0  0  0  0  0  0  0
    6.7504    0.8917  -19.6503 C   0  0  0  0  0  0  0  0  0  0  0  0
    6.0499    0.2663  -18.5990 C   0  0  0  0  0  0  0  0  0  0  0  0
    6.2814    0.4540  -17.2735 O   0  0  0  0  0  0  0  0  0  0  0  0
    8.1760    1.3399  -19.2973 C   0  0  0  0  0  0  0  0  0  0  0  0
    9.2773    0.3001  -19.7177 C   0  0  0  0  0  0  0  0  0  0  0  0
    8.7598   -1.1357  -19.8174 C   0  0  0  0  0  0  0  0  0  0  0  0
    8.3784   -1.8230  -18.6470 C   0  0  0  0  0  0  0  0  0  0  0  0
    7.3943   -2.8296  -18.7270 C   0  0  0  0  0  0  0  0  0  0  0  0
    6.8026   -3.1296  -19.9728 C   0  0  0  0  0  0  0  0  0  0  0  0
    7.4257   -2.6790  -21.1557 C   0  0  0  0  0  0  0  0  0  0  0  0
    8.4107   -1.6737  -21.0772 C   0  0  0  0  0  0  0  0  0  0  0  0
    5.3722   -3.6750  -20.0109 C   0  0  0  0  0  0  0  0  0  0  0  0
    4.2623   -2.5673  -20.1631 C   0  0  0  0  0  0  0  0  0  0  0  0
    8.2301    6.7141  -12.3889 C   0  0  0  0  0  0  0  0  0  0  0  0
    9.7321    6.8113  -12.0283 C   0  0  0  0  0  0  0  0  0  0  0  0
    7.5088    5.9428   -6.6485 H   0  0  0  0  0  0  0  0  0  0  0  0
    9.1053    6.2411   -5.9888 H   0  0  0  0  0  0  0  0  0  0  0  0
    8.0863    7.6010   -6.5470 H   0  0  0  0  0  0  0  0  0  0  0  0
   10.4094    8.0031   -6.3699 H   0  0  0  0  0  0  0  0  0  0  0  0
   12.4808    9.1377   -6.9660 H   0  0  0  0  0  0  0  0  0  0  0  0
   13.3782    8.9694   -9.2552 H   0  0  0  0  0  0  0  0  0  0  0  0
   12.1718    7.7144  -11.0007 H   0  0  0  0  0  0  0  0  0  0  0  0
    9.8852    4.2342  -11.0492 H   0  0  0  0  0  0  0  0  0  0  0  0
    9.6461    4.6466   -9.3793 H   0  0  0  0  0  0  0  0  0  0  0  0
    7.4957    4.0467  -10.4032 H   0  0  0  0  0  0  0  0  0  0  0  0
    7.4517    5.7693  -10.0070 H   0  0  0  0  0  0  0  0  0  0  0  0
    5.6285    5.9098  -11.7682 H   0  0  0  0  0  0  0  0  0  0  0  0
    6.0671    5.6923  -13.4466 H   0  0  0  0  0  0  0  0  0  0  0  0
    5.7336    3.3870  -11.4578 H   0  0  0  0  0  0  0  0  0  0  0  0
    4.5893    3.9011  -12.6557 H   0  0  0  0  0  0  0  0  0  0  0  0
    6.0466    3.3389  -14.4965 H   0  0  0  0  0  0  0  0  0  0  0  0
    7.3602    2.9083  -13.4460 H   0  0  0  0  0  0  0  0  0  0  0  0
    6.0847    0.9787  -12.5199 H   0  0  0  0  0  0  0  0  0  0  0  0
    4.6384    1.5282  -13.3326 H   0  0  0  0  0  0  0  0  0  0  0  0
    6.7125    1.1868  -15.2574 H   0  0  0  0  0  0  0  0  0  0  0  0
    3.9529   -1.9259  -17.3021 H   0  0  0  0  0  0  0  0  0  0  0  0
    5.0623   -0.6778  -22.1643 H   0  0  0  0  0  0  0  0  0  0  0  0
    6.7649    1.0614  -21.8091 H   0  0  0  0  0  0  0  0  0  0  0  0
    8.3788    2.3035  -19.7645 H   0  0  0  0  0  0  0  0  0  0  0  0
    8.2606    1.5153  -18.2259 H   0  0  0  0  0  0  0  0  0  0  0  0
   10.1307    0.3486  -19.0410 H   0  0  0  0  0  0  0  0  0  0  0  0
    9.6599    0.5758  -20.7010 H   0  0  0  0  0  0  0  0  0  0  0  0
    8.6554   -1.4342  -17.6770 H   0  0  0  0  0  0  0  0  0  0  0  0
    6.9444   -3.1948  -17.8150 H   0  0  0  0  0  0  0  0  0  0  0  0
    7.0074   -2.9309  -22.1208 H   0  0  0  0  0  0  0  0  0  0  0  0
    8.7235   -1.1820  -21.9857 H   0  0  0  0  0  0  0  0  0  0  0  0
    5.1928   -4.2247  -19.0847 H   0  0  0  0  0  0  0  0  0  0  0  0
    5.2820   -4.4091  -20.8128 H   0  0  0  0  0  0  0  0  0  0  0  0
    3.4513   -2.7338  -19.4536 H   0  0  0  0  0  0  0  0  0  0  0  0
    3.8049   -2.6663  -21.1484 H   0  0  0  0  0  0  0  0  0  0  0  0
    8.0856    6.9278  -13.4470 H   0  0  0  0  0  0  0  0  0  0  0  0
    7.6866    7.4859  -11.8472 H   0  0  0  0  0  0  0  0  0  0  0  0
   10.0597    7.8479  -12.1065 H   0  0  0  0  0  0  0  0  0  0  0  0
   10.3289    6.2363  -12.7379 H   0  0  0  0  0  0  0  0  0  0  0  0
    8.1465    4.7084  -12.6277 H   0  0  0  0  0  0  0  0  0  0  0  0
  2  1  1  0
  3  2  1  0
  4  3  2  0
  5  4  1  0
  6  5  2  0
  7  6  1  0
  8  3  1  0
  8  7  2  0
  9  8  1  0
 10  9  1  0
 11 10  1  0
 12 11  1  0
 13 12  1  0
 14 13  1  0
 15 14  1  0
 16 15  1  0
 17 16  1  0
 18 17  1  0
 19 18  2  0
 20 18  1  0
 21 20  2  0
 22 21  1  0
 23 22  2  0
 24 23  1  0
 25 24  2  0
 26 25  1  0
 27 22  1  0
 27 26  2  0
 28 20  1  0
 28 27  1  0
 29 26  1  0
 30 29  1  0
 31 30  1  0
 32 31  1  0
 33 32  2  0
 34 33  1  0
 35 34  2  0
 36 31  2  0
 36 35  1  0
 37 34  1  0
 38 23  1  0
 38 37  1  0
 39 12  1  0
 40  9  1  0
 40 39  1  0
 41  1  1  0
 42  1  1  0
 43  1  1  0
 44  4  1  0
 45  5  1  0
 46  6  1  0
 47  7  1  0
 48 10  1  0
 49 10  1  0
 50 11  1  0
 51 11  1  0
 52 13  1  0
 53 13  1  0
 54 14  1  0
 55 14  1  0
 56 15  1  0
 57 15  1  0
 58 16  1  0
 59 16  1  0
 60 17  1  0
 61 21  1  0
 62 24  1  0
 63 25  1  0
 64 29  1  0
 65 29  1  0
 66 30  1  0
 67 30  1  0
 68 32  1  0
 69 33  1  0
 70 35  1  0
 71 36  1  0
 72 37  1  0
 73 37  1  0
 74 38  1  0
 75 38  1  0
 76 39  1  0
 77 39  1  0
 78 40  1  0
 79 40  1  0
 80 12  1  0
M  CHG  1  12   1
M  END
>  <b_m_subgroup_collapsed>  (1518) 
0

>  <r_i_docking_score>  (1518) 
-5.2669842790798898

>  <s_m_subgroup_title>  (1518) 
glide-dock_SP_D22_pv

>  <s_m_subgroupid>  (1518) 
glide-dock_SP_D22_pv

>  <Molecule ChEMBL ID>  (1518) 
CHEMBL208847

>  <Standard Type>  (1518) 
Ki

>  <Standard Value>  (1518) 
84.0

>  <label>  (1518) 
1

$$$$
CHEMBL5424897
     RDKit          3D

 73 75  0  0  1  0  0  0  0  0999 V2000
    8.7586   -0.0472  -20.0544 C   0  0  0  0  0  0  0  0  0  0  0  0
    7.6277    0.9293  -19.7112 C   0  0  0  0  0  0  0  0  0  0  0  0
    7.0720    0.6947  -18.3199 C   0  0  0  0  0  0  0  0  0  0  0  0
    6.1516   -0.3479  -18.0986 C   0  0  0  0  0  0  0  0  0  0  0  0
    5.6456   -0.5744  -16.8078 C   0  0  0  0  0  0  0  0  0  0  0  0
    4.4881   -1.8279  -16.5606 Cl  0  0  0  0  0  0  0  0  0  0  0  0
    6.0643    0.2235  -15.7232 C   0  0  0  0  0  0  0  0  0  0  0  0
    5.5650   -0.0598  -14.4796 O   0  0  0  0  0  0  0  0  0  0  0  0
    6.4769   -0.7753  -13.6680 C   0  0  0  0  0  0  0  0  0  0  0  0
    6.9490    1.3168  -15.9430 C   0  0  0  0  0  0  0  0  0  0  0  0
    7.3078    2.2316  -14.9287 N   0  0  0  0  0  0  0  0  0  0  0  0
    8.7242    2.4732  -14.6872 C   0  0  0  0  0  0  0  0  0  0  0  0
    8.9408    3.9071  -14.1774 C   0  0  0  0  0  0  0  0  0  0  0  0
    8.0842    4.1748  -12.9914 N   0  0  0  0  0  0  0  0  0  0  0  0
    8.3511    5.4678  -12.3132 C   0  0  0  0  0  0  0  0  0  0  0  0
    9.8159    5.5691  -11.8422 C   0  0  0  0  0  0  0  0  0  0  0  0
   10.0804    6.4824  -10.6323 C   0  0  1  0  0  0  0  0  0  0  0  0
    9.5687    7.9210  -10.8124 C   0  0  0  0  0  0  0  0  0  0  0  0
    9.9527    8.7880   -9.6010 C   0  0  0  0  0  0  0  0  0  0  0  0
    9.4868    8.1497   -8.2746 C   0  0  2  0  0  0  0  0  0  0  0  0
    9.8181    8.9555   -7.1047 N   0  0  0  0  0  0  0  0  0  0  0  0
   11.0412    9.2658   -6.6495 C   0  0  0  0  0  0  0  0  0  0  0  0
   12.0855    8.9722   -7.2294 O   0  0  0  0  0  0  0  0  0  0  0  0
   11.0969    9.9960   -5.3126 C   0  0  0  0  0  0  0  0  0  0  0  0
   11.8288    9.1469   -4.2666 C   0  0  0  0  0  0  0  0  0  0  0  0
   11.6862    9.7723   -3.0075 O   0  0  0  0  0  0  0  0  0  0  0  0
   12.2351    9.0031   -1.9533 C   0  0  0  0  0  0  0  0  0  0  0  0
    9.9790    6.6990   -8.1163 C   0  0  0  0  0  0  0  0  0  0  0  0
    9.5592    5.8562   -9.3231 C   0  0  0  0  0  0  0  0  0  0  0  0
    6.6434    3.9711  -13.2884 C   0  0  0  0  0  0  0  0  0  0  0  0
    6.3819    2.5604  -13.8468 C   0  0  0  0  0  0  0  0  0  0  0  0
    7.4589    1.5216  -17.2463 C   0  0  0  0  0  0  0  0  0  0  0  0
    9.1449    0.1439  -21.0566 H   0  0  0  0  0  0  0  0  0  0  0  0
    9.5877    0.0474  -19.3523 H   0  0  0  0  0  0  0  0  0  0  0  0
    8.4112   -1.0802  -20.0230 H   0  0  0  0  0  0  0  0  0  0  0  0
    6.8187    0.8316  -20.4387 H   0  0  0  0  0  0  0  0  0  0  0  0
    7.9930    1.9544  -19.7935 H   0  0  0  0  0  0  0  0  0  0  0  0
    5.8295   -0.9741  -18.9188 H   0  0  0  0  0  0  0  0  0  0  0  0
    6.1463   -0.6930  -12.6361 H   0  0  0  0  0  0  0  0  0  0  0  0
    6.4859   -1.8283  -13.9435 H   0  0  0  0  0  0  0  0  0  0  0  0
    7.4923   -0.3827  -13.7261 H   0  0  0  0  0  0  0  0  0  0  0  0
    9.0727    1.7571  -13.9429 H   0  0  0  0  0  0  0  0  0  0  0  0
    9.3281    2.3042  -15.5787 H   0  0  0  0  0  0  0  0  0  0  0  0
    9.9978    4.0203  -13.9400 H   0  0  0  0  0  0  0  0  0  0  0  0
    8.7150    4.6314  -14.9629 H   0  0  0  0  0  0  0  0  0  0  0  0
    8.1018    6.3032  -12.9710 H   0  0  0  0  0  0  0  0  0  0  0  0
    7.6800    5.5429  -11.4564 H   0  0  0  0  0  0  0  0  0  0  0  0
   10.1619    4.5682  -11.5822 H   0  0  0  0  0  0  0  0  0  0  0  0
   10.4393    5.9000  -12.6752 H   0  0  0  0  0  0  0  0  0  0  0  0
   11.1626    6.5727  -10.5332 H   0  0  0  0  0  0  0  0  0  0  0  0
    9.9827    8.3584  -11.7221 H   0  0  0  0  0  0  0  0  0  0  0  0
    8.4865    7.9272  -10.9362 H   0  0  0  0  0  0  0  0  0  0  0  0
    9.5042    9.7721   -9.7131 H   0  0  0  0  0  0  0  0  0  0  0  0
   11.0329    8.9353   -9.6036 H   0  0  0  0  0  0  0  0  0  0  0  0
    8.4006    8.1189   -8.2952 H   0  0  0  0  0  0  0  0  0  0  0  0
    9.0272    9.2397   -6.5439 H   0  0  0  0  0  0  0  0  0  0  0  0
   11.6025   10.9527   -5.4497 H   0  0  0  0  0  0  0  0  0  0  0  0
   10.0873   10.2203   -4.9666 H   0  0  0  0  0  0  0  0  0  0  0  0
   11.4032    8.1419   -4.2320 H   0  0  0  0  0  0  0  0  0  0  0  0
   12.8862    9.0527   -4.5200 H   0  0  0  0  0  0  0  0  0  0  0  0
   12.1211    9.5446   -1.0159 H   0  0  0  0  0  0  0  0  0  0  0  0
   11.7226    8.0454   -1.8546 H   0  0  0  0  0  0  0  0  0  0  0  0
   13.2980    8.8208   -2.1103 H   0  0  0  0  0  0  0  0  0  0  0  0
    9.5699    6.2620   -7.2053 H   0  0  0  0  0  0  0  0  0  0  0  0
   11.0640    6.6660   -8.0174 H   0  0  0  0  0  0  0  0  0  0  0  0
    8.4721    5.7738   -9.3413 H   0  0  0  0  0  0  0  0  0  0  0  0
    9.9465    4.8438   -9.2047 H   0  0  0  0  0  0  0  0  0  0  0  0
    6.0487    4.1195  -12.3859 H   0  0  0  0  0  0  0  0  0  0  0  0
    6.3113    4.7175  -14.0078 H   0  0  0  0  0  0  0  0  0  0  0  0
    5.3516    2.4965  -14.1900 H   0  0  0  0  0  0  0  0  0  0  0  0
    6.4855    1.8315  -13.0469 H   0  0  0  0  0  0  0  0  0  0  0  0
    8.1350    2.3415  -17.4375 H   0  0  0  0  0  0  0  0  0  0  0  0
    8.3225    3.4610  -12.3178 H   0  0  0  0  0  0  0  0  0  0  0  0
  2  1  1  0
  3  2  1  0
  4  3  1  0
  5  4  2  0
  6  5  1  0
  7  5  1  0
  8  7  1  0
  9  8  1  0
 10  7  2  0
 11 10  1  0
 12 11  1  0
 13 12  1  0
 14 13  1  0
 15 14  1  0
 16 15  1  0
 17 16  1  0
 18 17  1  0
 19 18  1  0
 20 19  1  0
 21 20  1  0
 22 21  1  0
 23 22  2  0
 24 22  1  0
 25 24  1  0
 26 25  1  0
 27 26  1  0
 28 20  1  0
 29 17  1  0
 29 28  1  0
 30 14  1  0
 31 11  1  0
 31 30  1  0
 32  3  2  0
 32 10  1  0
 33  1  1  0
 34  1  1  0
 35  1  1  0
 36  2  1  0
 37  2  1  0
 38  4  1  0
 39  9  1  0
 40  9  1  0
 41  9  1  0
 42 12  1  0
 43 12  1  0
 44 13  1  0
 45 13  1  0
 46 15  1  0
 47 15  1  0
 48 16  1  0
 49 16  1  0
 17 50  1  1
 51 18  1  0
 52 18  1  0
 53 19  1  0
 54 19  1  0
 20 55  1  6
 56 21  1  0
 57 24  1  0
 58 24  1  0
 59 25  1  0
 60 25  1  0
 61 27  1  0
 62 27  1  0
 63 27  1  0
 64 28  1  0
 65 28  1  0
 66 29  1  0
 67 29  1  0
 68 30  1  0
 69 30  1  0
 70 31  1  0
 71 31  1  0
 72 32  1  0
 73 14  1  0
M  CHG  1  14   1
M  END
>  <b_m_subgroup_collapsed>  (1519) 
0

>  <r_i_docking_score>  (1519) 
-5.2664954923497298

>  <s_m_subgroup_title>  (1519) 
glide-dock_SP_D22_pv

>  <s_m_subgroupid>  (1519) 
glide-dock_SP_D22_pv

>  <Molecule ChEMBL ID>  (1519) 
CHEMBL5424897

>  <Standard Type>  (1519) 
Ki

>  <Standard Value>  (1519) 
15.2

>  <label>  (1519) 
1

$$$$
CHEMBL3287398
     RDKit          3D

 55 58  0  0  1  0  0  0  0  0999 V2000
    7.8705    1.4850  -19.3346 O   0  0  0  0  0  0  0  0  0  0  0  0
    7.4931    0.9689  -18.2852 C   0  0  0  0  0  0  0  0  0  0  0  0
    6.3053    0.1490  -18.1480 C   0  0  0  0  0  0  0  0  0  0  0  0
    5.5315   -0.4758  -19.1516 C   0  0  0  0  0  0  0  0  0  0  0  0
    4.5016   -1.1385  -18.6787 N   0  0  0  0  0  0  0  0  0  0  0  0
    4.5715   -0.9428  -17.3225 N   0  0  0  0  0  0  0  0  0  0  0  0
    3.6861   -1.4279  -16.4168 C   0  0  0  0  0  0  0  0  0  0  0  0
    3.8457   -1.1235  -15.0890 C   0  0  0  0  0  0  0  0  0  0  0  0
    4.9435   -0.3445  -14.6633 C   0  0  0  0  0  0  0  0  0  0  0  0
    5.8635    0.1458  -15.5757 C   0  0  0  0  0  0  0  0  0  0  0  0
    6.9372    0.9348  -15.2321 O   0  0  0  0  0  0  0  0  0  0  0  0
    7.0155    1.4969  -13.9306 C   0  0  0  0  0  0  0  0  0  0  0  0
    6.0226    2.6640  -13.7672 C   0  0  0  0  0  0  0  0  0  0  0  0
    6.2989    3.5830  -12.5660 C   0  0  0  0  0  0  0  0  0  0  0  0
    7.5123    4.4897  -12.8365 C   0  0  0  0  0  0  0  0  0  0  0  0
    7.7632    5.5146  -11.7935 N   0  0  0  0  0  0  0  0  0  0  0  0
    8.3502    4.9348  -10.5578 C   0  0  0  0  0  0  0  0  0  0  0  0
    8.6236    6.0068   -9.4912 C   0  0  0  0  0  0  0  0  0  0  0  0
    9.3503    7.1311  -10.0697 N   0  0  0  0  0  0  0  0  0  0  0  0
   10.4870    7.6422   -9.4334 C   0  0  0  0  0  0  0  0  0  0  0  0
   11.6846    7.7061  -10.1774 C   0  0  0  0  0  0  0  0  0  0  0  0
   12.8656    8.1721   -9.5836 C   0  0  0  0  0  0  0  0  0  0  0  0
   12.8505    8.5724   -8.2428 C   0  0  0  0  0  0  0  0  0  0  0  0
   11.6606    8.5683   -7.4979 C   0  0  0  0  0  0  0  0  0  0  0  0
   11.6847    9.1847   -5.8819 Cl  0  0  0  0  0  0  0  0  0  0  0  0
   10.4678    8.0984   -8.0878 C   0  0  0  0  0  0  0  0  0  0  0  0
    9.0052    8.1594   -7.1639 Cl  0  0  0  0  0  0  0  0  0  0  0  0
    8.9319    7.7073  -11.3413 C   0  0  0  0  0  0  0  0  0  0  0  0
    8.6015    6.6071  -12.3551 C   0  0  0  0  0  0  0  0  0  0  0  0
    5.6824   -0.1506  -16.9615 C   0  0  0  0  0  0  0  0  0  0  0  0
    8.0518    1.1173  -17.3627 H   0  0  0  0  0  0  0  0  0  0  0  0
    5.7119   -0.4593  -20.2176 H   0  0  0  0  0  0  0  0  0  0  0  0
    2.8861   -2.0537  -16.7983 H   0  0  0  0  0  0  0  0  0  0  0  0
    3.1295   -1.5018  -14.3675 H   0  0  0  0  0  0  0  0  0  0  0  0
    5.0374   -0.1424  -13.6031 H   0  0  0  0  0  0  0  0  0  0  0  0
    6.8868    0.7405  -13.1555 H   0  0  0  0  0  0  0  0  0  0  0  0
    8.0401    1.8569  -13.8471 H   0  0  0  0  0  0  0  0  0  0  0  0
    6.0406    3.2641  -14.6755 H   0  0  0  0  0  0  0  0  0  0  0  0
    5.0117    2.2678  -13.6802 H   0  0  0  0  0  0  0  0  0  0  0  0
    5.4221    4.2103  -12.3948 H   0  0  0  0  0  0  0  0  0  0  0  0
    6.4249    2.9834  -11.6669 H   0  0  0  0  0  0  0  0  0  0  0  0
    8.4160    3.8960  -12.9697 H   0  0  0  0  0  0  0  0  0  0  0  0
    7.3428    4.9905  -13.7913 H   0  0  0  0  0  0  0  0  0  0  0  0
    7.6866    4.1724  -10.1491 H   0  0  0  0  0  0  0  0  0  0  0  0
    9.2854    4.4322  -10.8088 H   0  0  0  0  0  0  0  0  0  0  0  0
    7.6881    6.3467   -9.0496 H   0  0  0  0  0  0  0  0  0  0  0  0
    9.1972    5.5652   -8.6762 H   0  0  0  0  0  0  0  0  0  0  0  0
   11.7108    7.3740  -11.2028 H   0  0  0  0  0  0  0  0  0  0  0  0
   13.7788    8.2248  -10.1562 H   0  0  0  0  0  0  0  0  0  0  0  0
   13.7436    8.9714   -7.7951 H   0  0  0  0  0  0  0  0  0  0  0  0
    8.0863    8.3740  -11.1887 H   0  0  0  0  0  0  0  0  0  0  0  0
    9.7066    8.3526  -11.7553 H   0  0  0  0  0  0  0  0  0  0  0  0
    9.5319    6.1801  -12.7325 H   0  0  0  0  0  0  0  0  0  0  0  0
    8.0863    7.0507  -13.2062 H   0  0  0  0  0  0  0  0  0  0  0  0
    6.8877    5.9524  -11.5231 H   0  0  0  0  0  0  0  0  0  0  0  0
  2  1  2  0
  3  2  1  0
  4  3  1  0
  5  4  2  0
  6  5  1  0
  7  6  1  0
  8  7  2  0
  9  8  1  0
 10  9  2  0
 11 10  1  0
 12 11  1  0
 13 12  1  0
 14 13  1  0
 15 14  1  0
 16 15  1  0
 17 16  1  0
 18 17  1  0
 19 18  1  0
 20 19  1  0
 21 20  2  0
 22 21  1  0
 23 22  2  0
 24 23  1  0
 25 24  1  0
 26 20  1  0
 26 24  2  0
 27 26  1  0
 28 19  1  0
 29 16  1  0
 29 28  1  0
 30  3  2  0
 30  6  1  0
 30 10  1  0
 31  2  1  0
 32  4  1  0
 33  7  1  0
 34  8  1  0
 35  9  1  0
 36 12  1  0
 37 12  1  0
 38 13  1  0
 39 13  1  0
 40 14  1  0
 41 14  1  0
 42 15  1  0
 43 15  1  0
 44 17  1  0
 45 17  1  0
 46 18  1  0
 47 18  1  0
 48 21  1  0
 49 22  1  0
 50 23  1  0
 51 28  1  0
 52 28  1  0
 53 29  1  0
 54 29  1  0
 55 16  1  0
M  CHG  1  16   1
M  END
>  <b_m_subgroup_collapsed>  (1520) 
0

>  <r_i_docking_score>  (1520) 
-5.2444186408387896

>  <s_m_subgroup_title>  (1520) 
glide-dock_SP_D22_pv

>  <s_m_subgroupid>  (1520) 
glide-dock_SP_D22_pv

>  <Molecule ChEMBL ID>  (1520) 
CHEMBL3287398

>  <Standard Type>  (1520) 
Ki

>  <Standard Value>  (1520) 
24.0

>  <label>  (1520) 
1

$$$$
CHEMBL365697
     RDKit          3D

 45 47  0  0  1  0  0  0  0  0999 V2000
   12.4915    7.1366  -17.6170 C   0  0  0  0  0  0  0  0  0  0  0  0
   11.8575    5.8799  -17.5952 C   0  0  0  0  0  0  0  0  0  0  0  0
   11.6671    5.2085  -16.3717 C   0  0  0  0  0  0  0  0  0  0  0  0
   12.1060    5.7936  -15.1647 C   0  0  0  0  0  0  0  0  0  0  0  0
   11.8974    5.0684  -13.8482 C   0  0  0  0  0  0  0  0  0  0  0  0
   10.4534    5.1338  -13.3704 C   0  0  0  0  0  0  0  0  0  0  0  0
    9.5471    4.1234  -13.7591 C   0  0  0  0  0  0  0  0  0  0  0  0
    8.2098    4.1604  -13.3226 C   0  0  0  0  0  0  0  0  0  0  0  0
    7.7732    5.2033  -12.4872 C   0  0  0  0  0  0  0  0  0  0  0  0
    8.6693    6.2122  -12.0977 C   0  0  0  0  0  0  0  0  0  0  0  0
   10.0204    6.1858  -12.5277 C   0  0  0  0  0  0  0  0  0  0  0  0
   10.9424    7.1532  -12.1763 O   0  0  0  0  0  0  0  0  0  0  0  0
   10.6798    7.9767  -11.0446 C   0  0  0  0  0  0  0  0  0  0  0  0
   10.7361    7.1218   -9.7631 C   0  0  0  0  0  0  0  0  0  0  0  0
   10.5674    7.8580   -8.5177 N   0  0  0  0  0  0  0  0  0  0  0  0
   11.7462    8.6489   -8.1819 C   0  0  0  0  0  0  0  0  0  0  0  0
   11.5752    9.3915   -6.8445 C   0  0  0  0  0  0  0  0  0  0  0  0
   11.2676    8.4625   -5.8085 O   0  0  0  0  0  0  0  0  0  0  0  0
   10.0942    7.7023   -6.0902 C   0  0  0  0  0  0  0  0  0  0  0  0
   10.2667    6.9497   -7.4167 C   0  0  0  0  0  0  0  0  0  0  0  0
   12.7365    7.0550  -15.1901 C   0  0  0  0  0  0  0  0  0  0  0  0
   12.9281    7.7258  -16.4142 C   0  0  0  0  0  0  0  0  0  0  0  0
   12.6354    7.6556  -18.5537 H   0  0  0  0  0  0  0  0  0  0  0  0
   11.5165    5.4307  -18.5167 H   0  0  0  0  0  0  0  0  0  0  0  0
   11.1786    4.2459  -16.3618 H   0  0  0  0  0  0  0  0  0  0  0  0
   12.1989    4.0268  -13.9649 H   0  0  0  0  0  0  0  0  0  0  0  0
   12.5636    5.4822  -13.0898 H   0  0  0  0  0  0  0  0  0  0  0  0
    9.8773    3.3138  -14.3915 H   0  0  0  0  0  0  0  0  0  0  0  0
    7.5201    3.3840  -13.6154 H   0  0  0  0  0  0  0  0  0  0  0  0
    6.7529    5.2386  -12.1342 H   0  0  0  0  0  0  0  0  0  0  0  0
    8.2837    6.9918  -11.4558 H   0  0  0  0  0  0  0  0  0  0  0  0
   11.4630    8.7354  -11.0251 H   0  0  0  0  0  0  0  0  0  0  0  0
    9.7424    8.5245  -11.1426 H   0  0  0  0  0  0  0  0  0  0  0  0
    9.9631    6.3552   -9.8144 H   0  0  0  0  0  0  0  0  0  0  0  0
   11.6798    6.5790   -9.7406 H   0  0  0  0  0  0  0  0  0  0  0  0
   12.6229    8.0019   -8.1228 H   0  0  0  0  0  0  0  0  0  0  0  0
   11.9472    9.3719   -8.9676 H   0  0  0  0  0  0  0  0  0  0  0  0
   12.4910    9.9242   -6.5886 H   0  0  0  0  0  0  0  0  0  0  0  0
   10.7801   10.1356   -6.9169 H   0  0  0  0  0  0  0  0  0  0  0  0
    9.9227    6.9947   -5.2788 H   0  0  0  0  0  0  0  0  0  0  0  0
    9.2255    8.3615   -6.1459 H   0  0  0  0  0  0  0  0  0  0  0  0
    9.3490    6.4001   -7.6302 H   0  0  0  0  0  0  0  0  0  0  0  0
   11.0589    6.2080   -7.3129 H   0  0  0  0  0  0  0  0  0  0  0  0
   13.0722    7.5132  -14.2705 H   0  0  0  0  0  0  0  0  0  0  0  0
   13.4061    8.6946  -16.4331 H   0  0  0  0  0  0  0  0  0  0  0  0
  2  1  2  0
  3  2  1  0
  4  3  2  0
  5  4  1  0
  6  5  1  0
  7  6  2  0
  8  7  1  0
  9  8  2  0
 10  9  1  0
 11  6  1  0
 11 10  2  0
 12 11  1  0
 13 12  1  0
 14 13  1  0
 15 14  1  0
 16 15  1  0
 17 16  1  0
 18 17  1  0
 19 18  1  0
 20 15  1  0
 20 19  1  0
 21  4  1  0
 22  1  1  0
 22 21  2  0
 23  1  1  0
 24  2  1  0
 25  3  1  0
 26  5  1  0
 27  5  1  0
 28  7  1  0
 29  8  1  0
 30  9  1  0
 31 10  1  0
 32 13  1  0
 33 13  1  0
 34 14  1  0
 35 14  1  0
 36 16  1  0
 37 16  1  0
 38 17  1  0
 39 17  1  0
 40 19  1  0
 41 19  1  0
 42 20  1  0
 43 20  1  0
 44 21  1  0
 45 22  1  0
M  END
>  <b_m_subgroup_collapsed>  (1521) 
0

>  <r_i_docking_score>  (1521) 
-5.2398061314579696

>  <s_m_subgroup_title>  (1521) 
glide-dock_SP_D22_pv

>  <s_m_subgroupid>  (1521) 
glide-dock_SP_D22_pv

>  <Molecule ChEMBL ID>  (1521) 
CHEMBL365697

>  <Standard Type>  (1521) 
Ki

>  <Standard Value>  (1521) 
10000.0

>  <label>  (1521) 
0

$$$$
CHEMBL5087408
     RDKit          3D

 46 48  0  0  1  0  0  0  0  0999 V2000
   12.4862    6.7567  -15.6171 C   0  0  0  0  0  0  0  0  0  0  0  0
   12.9225    5.3803  -15.0998 C   0  0  0  0  0  0  0  0  0  0  0  0
   11.8795    4.4230  -15.2059 O   0  0  0  0  0  0  0  0  0  0  0  0
   10.9853    4.2667  -14.2209 C   0  0  0  0  0  0  0  0  0  0  0  0
   10.9730    4.9532  -13.2011 O   0  0  0  0  0  0  0  0  0  0  0  0
    9.9491    3.2363  -14.4581 C   0  0  0  0  0  0  0  0  0  0  0  0
    9.7480    2.4019  -15.5153 C   0  0  0  0  0  0  0  0  0  0  0  0
   10.7117    2.1685  -16.7001 C   0  0  2  0  0  0  0  0  0  0  0  0
   10.0762    2.5073  -18.0676 C   0  0  0  0  0  0  0  0  0  0  0  0
    8.5813    2.8178  -17.9634 C   0  0  0  0  0  0  0  0  0  0  0  0
    7.8107    1.8214  -17.0699 C   0  0  0  0  0  0  0  0  0  0  0  0
    8.4733    1.5213  -15.6808 C   0  0  2  0  0  0  0  0  0  0  0  0
    7.3550    1.6888  -14.6078 C   0  0  0  0  0  0  0  0  0  0  0  0
    6.7007    0.5778  -14.0065 C   0  0  0  0  0  0  0  0  0  0  0  0
    5.6828    0.7607  -13.0502 C   0  0  0  0  0  0  0  0  0  0  0  0
    5.2993    2.0532  -12.6477 C   0  0  0  0  0  0  0  0  0  0  0  0
    5.9261    3.1646  -13.2365 C   0  0  0  0  0  0  0  0  0  0  0  0
    5.6266    4.4326  -12.8334 O   0  0  0  0  0  0  0  0  0  0  0  0
    6.9013    2.9783  -14.2317 C   0  0  0  0  0  0  0  0  0  0  0  0
    8.9971    0.0610  -15.6884 C   0  0  0  0  0  0  0  0  0  0  0  0
   10.0864   -0.2288  -16.7268 C   0  0  0  0  0  0  0  0  0  0  0  0
   11.1765    0.7636  -16.6500 N   0  0  0  0  0  0  0  0  0  0  0  0
   13.3188    7.4603  -15.5865 H   0  0  0  0  0  0  0  0  0  0  0  0
   12.1332    6.6968  -16.6472 H   0  0  0  0  0  0  0  0  0  0  0  0
   11.6851    7.1712  -15.0052 H   0  0  0  0  0  0  0  0  0  0  0  0
   13.2760    5.4514  -14.0709 H   0  0  0  0  0  0  0  0  0  0  0  0
   13.7643    5.0197  -15.6919 H   0  0  0  0  0  0  0  0  0  0  0  0
    9.2412    3.2198  -13.6473 H   0  0  0  0  0  0  0  0  0  0  0  0
   11.6446    2.7118  -16.6404 H   0  0  0  0  0  0  0  0  0  0  0  0
   10.5754    3.3818  -18.4865 H   0  0  0  0  0  0  0  0  0  0  0  0
   10.2440    1.7116  -18.7955 H   0  0  0  0  0  0  0  0  0  0  0  0
    8.4857    3.8212  -17.5492 H   0  0  0  0  0  0  0  0  0  0  0  0
    8.1373    2.8580  -18.9584 H   0  0  0  0  0  0  0  0  0  0  0  0
    7.6298    0.8980  -17.6212 H   0  0  0  0  0  0  0  0  0  0  0  0
    6.8108    2.2344  -16.9300 H   0  0  0  0  0  0  0  0  0  0  0  0
    6.9515   -0.4426  -14.2452 H   0  0  0  0  0  0  0  0  0  0  0  0
    5.2118   -0.1031  -12.6126 H   0  0  0  0  0  0  0  0  0  0  0  0
    4.5395    2.1723  -11.8910 H   0  0  0  0  0  0  0  0  0  0  0  0
    5.2836    4.4877  -11.9523 H   0  0  0  0  0  0  0  0  0  0  0  0
    7.3520    3.8643  -14.6469 H   0  0  0  0  0  0  0  0  0  0  0  0
    9.3726   -0.2029  -14.6968 H   0  0  0  0  0  0  0  0  0  0  0  0
    8.1855   -0.6269  -15.9136 H   0  0  0  0  0  0  0  0  0  0  0  0
    9.6649   -0.2360  -17.7310 H   0  0  0  0  0  0  0  0  0  0  0  0
   10.4861   -1.2295  -16.5680 H   0  0  0  0  0  0  0  0  0  0  0  0
   11.8280    0.6056  -17.4056 H   0  0  0  0  0  0  0  0  0  0  0  0
   11.6697    0.6327  -15.7763 H   0  0  0  0  0  0  0  0  0  0  0  0
  2  1  1  0
  3  2  1  0
  4  3  1  0
  5  4  2  0
  6  4  1  0
  7  6  2  0
  8  7  1  0
  9  8  1  0
 10  9  1  0
 11 10  1  0
 12  7  1  0
 12 11  1  0
 12 13  1  1
 14 13  2  0
 15 14  1  0
 16 15  2  0
 17 16  1  0
 18 17  1  0
 19 13  1  0
 19 17  2  0
 20 12  1  0
 21 20  1  0
 22  8  1  0
 22 21  1  0
 23  1  1  0
 24  1  1  0
 25  1  1  0
 26  2  1  0
 27  2  1  0
 28  6  1  0
  8 29  1  1
 30  9  1  0
 31  9  1  0
 32 10  1  0
 33 10  1  0
 34 11  1  0
 35 11  1  0
 36 14  1  0
 37 15  1  0
 38 16  1  0
 39 18  1  0
 40 19  1  0
 41 20  1  0
 42 20  1  0
 43 21  1  0
 44 21  1  0
 45 22  1  0
 46 22  1  0
M  CHG  1  22   1
M  END
>  <b_m_subgroup_collapsed>  (1522) 
0

>  <r_i_docking_score>  (1522) 
-5.2388008964437702

>  <s_m_subgroup_title>  (1522) 
glide-dock_SP_D22_pv

>  <s_m_subgroupid>  (1522) 
glide-dock_SP_D22_pv

>  <Molecule ChEMBL ID>  (1522) 
CHEMBL5087408

>  <Standard Type>  (1522) 
Ki

>  <Standard Value>  (1522) 
100000.0

>  <label>  (1522) 
0

$$$$
CHEMBL494661
     RDKit          3D

 75 77  0  0  1  0  0  0  0  0999 V2000
    8.9783    8.7866   -6.8185 C   0  0  0  0  0  0  0  0  0  0  0  0
    9.6013    7.4729   -7.2417 C   0  0  0  0  0  0  0  0  0  0  0  0
   10.1140    6.6711   -6.0369 C   0  0  0  0  0  0  0  0  0  0  0  0
   10.7006    7.7048   -8.2747 C   0  0  0  0  0  0  0  0  0  0  0  0
   11.8888    8.2899   -7.7949 C   0  0  0  0  0  0  0  0  0  0  0  0
   12.9712    8.5157   -8.6471 C   0  0  0  0  0  0  0  0  0  0  0  0
   12.8855    8.1724  -10.0021 C   0  0  0  0  0  0  0  0  0  0  0  0
   11.6916    7.6594  -10.5157 C   0  0  0  0  0  0  0  0  0  0  0  0
   10.5888    7.4181   -9.6708 C   0  0  0  0  0  0  0  0  0  0  0  0
    9.4412    6.9108  -10.2931 N   0  0  0  0  0  0  0  0  0  0  0  0
    8.8832    7.6116  -11.4483 C   0  0  0  0  0  0  0  0  0  0  0  0
    8.3301    6.6169  -12.4837 C   0  0  0  0  0  0  0  0  0  0  0  0
    7.5478    5.5143  -11.8635 N   0  0  0  0  0  0  0  0  0  0  0  0
    7.0565    4.5591  -12.8780 C   0  0  0  0  0  0  0  0  0  0  0  0
    5.9699    3.6165  -12.3467 C   0  0  0  0  0  0  0  0  0  0  0  0
    5.6447    2.5690  -13.3989 C   0  0  0  0  0  0  0  0  0  0  0  0
    4.5861    1.5744  -12.9208 C   0  0  0  0  0  0  0  0  0  0  0  0
    4.1679    0.4630  -13.9149 C   0  0  0  0  0  0  0  0  0  0  0  0
    5.3495   -0.2163  -14.6182 C   0  0  0  0  0  0  0  0  0  0  0  0
    6.0411   -1.0273  -14.0070 O   0  0  0  0  0  0  0  0  0  0  0  0
    5.5870    0.1722  -15.8815 N   0  0  0  0  0  0  0  0  0  0  0  0
    6.7231   -0.1871  -16.7160 C   0  0  0  0  0  0  0  0  0  0  0  0
    7.9585    0.6621  -16.4345 C   0  0  0  0  0  0  0  0  0  0  0  0
    8.3821    1.6320  -17.3695 C   0  0  0  0  0  0  0  0  0  0  0  0
    9.5141    2.4291  -17.1056 C   0  0  0  0  0  0  0  0  0  0  0  0
   10.2323    2.2628  -15.9046 C   0  0  0  0  0  0  0  0  0  0  0  0
   11.3338    3.0290  -15.6444 O   0  0  0  0  0  0  0  0  0  0  0  0
   11.0591    4.4522  -14.7859 S   0  0  0  0  0  0  0  0  0  0  0  0
   12.7822    5.0495  -14.6508 C   0  0  0  0  0  0  0  0  0  0  0  0
   10.2950    5.3606  -15.6518 O   0  0  0  0  0  0  0  0  0  0  0  0
   10.5694    4.0912  -13.4472 O   0  0  0  0  0  0  0  0  0  0  0  0
    9.8180    1.2933  -14.9733 C   0  0  0  0  0  0  0  0  0  0  0  0
    8.6853    0.5013  -15.2355 C   0  0  0  0  0  0  0  0  0  0  0  0
    8.3047    4.8209  -10.7953 C   0  0  0  0  0  0  0  0  0  0  0  0
    8.7079    5.7996   -9.7202 C   0  0  0  0  0  0  0  0  0  0  0  0
    8.6689    9.3718   -7.6858 H   0  0  0  0  0  0  0  0  0  0  0  0
    8.0861    8.5724   -6.2369 H   0  0  0  0  0  0  0  0  0  0  0  0
    9.6750    9.3722   -6.2200 H   0  0  0  0  0  0  0  0  0  0  0  0
    8.7686    6.9101   -7.6225 H   0  0  0  0  0  0  0  0  0  0  0  0
   10.6256    5.7725   -6.3759 H   0  0  0  0  0  0  0  0  0  0  0  0
   10.8106    7.2356   -5.4182 H   0  0  0  0  0  0  0  0  0  0  0  0
    9.2860    6.3674   -5.3995 H   0  0  0  0  0  0  0  0  0  0  0  0
   11.9860    8.5742   -6.7583 H   0  0  0  0  0  0  0  0  0  0  0  0
   13.8700    8.9721   -8.2628 H   0  0  0  0  0  0  0  0  0  0  0  0
   13.7193    8.3627  -10.6607 H   0  0  0  0  0  0  0  0  0  0  0  0
   11.6408    7.4275  -11.5694 H   0  0  0  0  0  0  0  0  0  0  0  0
    8.0981    8.2927  -11.1231 H   0  0  0  0  0  0  0  0  0  0  0  0
    9.6206    8.2549  -11.9275 H   0  0  0  0  0  0  0  0  0  0  0  0
    7.7048    7.1523  -13.1986 H   0  0  0  0  0  0  0  0  0  0  0  0
    9.1605    6.1919  -13.0458 H   0  0  0  0  0  0  0  0  0  0  0  0
    6.6482    5.1015  -13.7277 H   0  0  0  0  0  0  0  0  0  0  0  0
    7.9009    3.9845  -13.2638 H   0  0  0  0  0  0  0  0  0  0  0  0
    6.2712    3.0918  -11.4453 H   0  0  0  0  0  0  0  0  0  0  0  0
    5.0774    4.1865  -12.0873 H   0  0  0  0  0  0  0  0  0  0  0  0
    5.2862    3.1134  -14.2574 H   0  0  0  0  0  0  0  0  0  0  0  0
    6.5583    2.0504  -13.6901 H   0  0  0  0  0  0  0  0  0  0  0  0
    4.9431    1.1031  -12.0049 H   0  0  0  0  0  0  0  0  0  0  0  0
    3.7121    2.1723  -12.6472 H   0  0  0  0  0  0  0  0  0  0  0  0
    3.5976   -0.3044  -13.3925 H   0  0  0  0  0  0  0  0  0  0  0  0
    3.4718    0.8622  -14.6470 H   0  0  0  0  0  0  0  0  0  0  0  0
    4.9346    0.8251  -16.2876 H   0  0  0  0  0  0  0  0  0  0  0  0
    6.9343   -1.2490  -16.6248 H   0  0  0  0  0  0  0  0  0  0  0  0
    6.4234   -0.0460  -17.7541 H   0  0  0  0  0  0  0  0  0  0  0  0
    7.8419    1.7689  -18.2948 H   0  0  0  0  0  0  0  0  0  0  0  0
    9.8325    3.1695  -17.8254 H   0  0  0  0  0  0  0  0  0  0  0  0
   12.7909    6.0246  -14.1659 H   0  0  0  0  0  0  0  0  0  0  0  0
   13.3508    4.3458  -14.0489 H   0  0  0  0  0  0  0  0  0  0  0  0
   13.2181    5.1300  -15.6456 H   0  0  0  0  0  0  0  0  0  0  0  0
   10.3646    1.1655  -14.0515 H   0  0  0  0  0  0  0  0  0  0  0  0
    8.3783   -0.2293  -14.5055 H   0  0  0  0  0  0  0  0  0  0  0  0
    7.6862    4.0795  -10.3003 H   0  0  0  0  0  0  0  0  0  0  0  0
    9.1796    4.3121  -11.2029 H   0  0  0  0  0  0  0  0  0  0  0  0
    9.3015    5.2818   -8.9650 H   0  0  0  0  0  0  0  0  0  0  0  0
    7.7953    6.1723   -9.2542 H   0  0  0  0  0  0  0  0  0  0  0  0
    6.7598    5.9633  -11.4090 H   0  0  0  0  0  0  0  0  0  0  0  0
  2  1  1  0
  3  2  1  0
  4  2  1  0
  5  4  2  0
  6  5  1  0
  7  6  2  0
  8  7  1  0
  9  4  1  0
  9  8  2  0
 10  9  1  0
 11 10  1  0
 12 11  1  0
 13 12  1  0
 14 13  1  0
 15 14  1  0
 16 15  1  0
 17 16  1  0
 18 17  1  0
 19 18  1  0
 20 19  2  0
 21 19  1  0
 22 21  1  0
 23 22  1  0
 24 23  1  0
 25 24  2  0
 26 25  1  0
 27 26  1  0
 28 27  1  0
 29 28  1  0
 30 28  2  0
 31 28  2  0
 32 26  2  0
 33 23  2  0
 33 32  1  0
 34 13  1  0
 35 10  1  0
 35 34  1  0
 36  1  1  0
 37  1  1  0
 38  1  1  0
 39  2  1  0
 40  3  1  0
 41  3  1  0
 42  3  1  0
 43  5  1  0
 44  6  1  0
 45  7  1  0
 46  8  1  0
 47 11  1  0
 48 11  1  0
 49 12  1  0
 50 12  1  0
 51 14  1  0
 52 14  1  0
 53 15  1  0
 54 15  1  0
 55 16  1  0
 56 16  1  0
 57 17  1  0
 58 17  1  0
 59 18  1  0
 60 18  1  0
 61 21  1  0
 62 22  1  0
 63 22  1  0
 64 24  1  0
 65 25  1  0
 66 29  1  0
 67 29  1  0
 68 29  1  0
 69 32  1  0
 70 33  1  0
 71 34  1  0
 72 34  1  0
 73 35  1  0
 74 35  1  0
 75 13  1  0
M  CHG  1  13   1
M  END
>  <b_m_subgroup_collapsed>  (1523) 
0

>  <r_i_docking_score>  (1523) 
-5.2383685437837597

>  <s_m_subgroup_title>  (1523) 
glide-dock_SP_D22_pv

>  <s_m_subgroupid>  (1523) 
glide-dock_SP_D22_pv

>  <Molecule ChEMBL ID>  (1523) 
CHEMBL494661

>  <Standard Type>  (1523) 
Ki

>  <Standard Value>  (1523) 
7.8

>  <label>  (1523) 
1

$$$$
CHEMBL317825
     RDKit          3D

 32 34  0  0  1  0  0  0  0  0999 V2000
    5.8763    0.8855  -18.7447 C   0  0  0  0  0  0  0  0  0  0  0  0
    6.8710    0.1492  -17.8313 C   0  0  0  0  0  0  0  0  0  0  0  0
    7.3092   -1.1846  -18.4605 C   0  0  0  0  0  0  0  0  0  0  0  0
    6.2920   -0.0384  -16.5043 N   0  0  0  0  0  0  0  0  0  0  0  0
    5.1479   -0.7546  -16.3883 N   0  0  0  0  0  0  0  0  0  0  0  0
    4.7851   -0.6408  -15.1222 C   0  0  0  0  0  0  0  0  0  0  0  0
    5.6812    0.1724  -14.3764 C   0  0  0  0  0  0  0  0  0  0  0  0
    6.6560    0.4898  -15.2737 C   0  0  0  0  0  0  0  0  0  0  0  0
    7.8063    1.3431  -14.9999 C   0  0  0  0  0  0  0  0  0  0  0  0
    9.1305    1.1139  -15.3026 C   0  0  0  0  0  0  0  0  0  0  0  0
    9.8563   -0.2274  -16.0963 Cl  0  0  0  0  0  0  0  0  0  0  0  0
   10.2010    2.3571  -14.7273 S   0  0  0  0  0  0  0  0  0  0  0  0
    8.8468    3.2014  -14.0468 C   0  0  0  0  0  0  0  0  0  0  0  0
    9.1491    4.6834  -13.2298 Cl  0  0  0  0  0  0  0  0  0  0  0  0
    7.6504    2.5569  -14.2471 C   0  0  0  0  0  0  0  0  0  0  0  0
    6.3115    3.0701  -13.7739 C   0  0  0  0  0  0  0  0  0  0  0  0
    5.5345    2.1635  -12.7806 C   0  0  0  0  0  0  0  0  0  0  0  0
    5.6156    0.6231  -12.9456 C   0  0  0  0  0  0  0  0  0  0  0  0
    6.3456    1.1913  -19.6799 H   0  0  0  0  0  0  0  0  0  0  0  0
    5.4803    1.7724  -18.2532 H   0  0  0  0  0  0  0  0  0  0  0  0
    5.0243    0.2522  -18.9951 H   0  0  0  0  0  0  0  0  0  0  0  0
    7.7484    0.7855  -17.7280 H   0  0  0  0  0  0  0  0  0  0  0  0
    7.7560   -1.0246  -19.4416 H   0  0  0  0  0  0  0  0  0  0  0  0
    6.4637   -1.8616  -18.5888 H   0  0  0  0  0  0  0  0  0  0  0  0
    8.0487   -1.6956  -17.8469 H   0  0  0  0  0  0  0  0  0  0  0  0
    3.8733   -1.1204  -14.7971 H   0  0  0  0  0  0  0  0  0  0  0  0
    6.4163    4.0562  -13.3209 H   0  0  0  0  0  0  0  0  0  0  0  0
    5.6861    3.2487  -14.6467 H   0  0  0  0  0  0  0  0  0  0  0  0
    5.8450    2.4101  -11.7664 H   0  0  0  0  0  0  0  0  0  0  0  0
    4.4867    2.4622  -12.8293 H   0  0  0  0  0  0  0  0  0  0  0  0
    4.7681    0.1724  -12.4360 H   0  0  0  0  0  0  0  0  0  0  0  0
    6.4860    0.2469  -12.4105 H   0  0  0  0  0  0  0  0  0  0  0  0
  2  1  1  0
  3  2  1  0
  4  2  1  0
  5  4  1  0
  6  5  2  0
  7  6  1  0
  8  4  1  0
  8  7  2  0
  9  8  1  0
 10  9  2  0
 11 10  1  0
 12 10  1  0
 13 12  1  0
 14 13  1  0
 15  9  1  0
 15 13  2  0
 16 15  1  0
 17 16  1  0
 18  7  1  0
 18 17  1  0
 19  1  1  0
 20  1  1  0
 21  1  1  0
 22  2  1  0
 23  3  1  0
 24  3  1  0
 25  3  1  0
 26  6  1  0
 27 16  1  0
 28 16  1  0
 29 17  1  0
 30 17  1  0
 31 18  1  0
 32 18  1  0
M  END
>  <b_m_subgroup_collapsed>  (1524) 
0

>  <r_i_docking_score>  (1524) 
-5.2368346252189699

>  <s_m_subgroup_title>  (1524) 
glide-dock_SP_D22_pv

>  <s_m_subgroupid>  (1524) 
glide-dock_SP_D22_pv

>  <Molecule ChEMBL ID>  (1524) 
CHEMBL317825

>  <Standard Type>  (1524) 
Ki

>  <Standard Value>  (1524) 
10000.0

>  <label>  (1524) 
0

$$$$
CHEMBL595609
     RDKit          3D

 47 51  0  0  1  0  0  0  0  0999 V2000
    7.5401   -0.1664  -14.2871 C   0  0  0  0  0  0  0  0  0  0  0  0
    7.2319    0.4237  -15.5778 N   0  0  0  0  0  0  0  0  0  0  0  0
    7.8654    1.4397  -16.2215 C   0  0  0  0  0  0  0  0  0  0  0  0
    9.0895    2.1312  -15.6712 C   0  0  0  0  0  0  0  0  0  0  0  0
    8.8163    3.3733  -14.9487 N   0  0  0  0  0  0  0  0  0  0  0  0
   10.0498    4.1179  -14.6871 C   0  0  0  0  0  0  0  0  0  0  0  0
    9.6624    5.4549  -14.0202 C   0  0  0  0  0  0  0  0  0  0  0  0
    9.0643    5.2545  -12.7037 N   0  0  0  0  0  0  0  0  0  0  0  0
    9.4640    5.8692  -11.5121 C   0  0  0  0  0  0  0  0  0  0  0  0
   10.3122    6.9088  -11.4618 N   0  0  0  0  0  0  0  0  0  0  0  0
   10.5273    7.2850  -10.1358 C   0  0  0  0  0  0  0  0  0  0  0  0
   11.3747    8.3183   -9.6712 C   0  0  0  0  0  0  0  0  0  0  0  0
   11.5157    8.5791   -8.2933 C   0  0  0  0  0  0  0  0  0  0  0  0
   10.8063    7.8155   -7.3475 C   0  0  0  0  0  0  0  0  0  0  0  0
    9.9616    6.7781   -7.7799 C   0  0  0  0  0  0  0  0  0  0  0  0
    9.8349    6.5145   -9.1559 C   0  0  0  0  0  0  0  0  0  0  0  0
    8.8861    5.2701   -9.9485 S   0  0  0  0  0  0  0  0  0  0  0  0
    7.8734    4.4279  -12.9078 C   0  0  0  0  0  0  0  0  0  0  0  0
    8.2026    3.1167  -13.6479 C   0  0  0  0  0  0  0  0  0  0  0  0
    7.3543    1.7743  -17.4102 N   0  0  0  0  0  0  0  0  0  0  0  0
    6.3150    0.8763  -17.5606 C   0  0  0  0  0  0  0  0  0  0  0  0
    5.4036    0.7000  -18.6277 C   0  0  0  0  0  0  0  0  0  0  0  0
    4.4152   -0.3060  -18.5666 C   0  0  0  0  0  0  0  0  0  0  0  0
    4.3206   -1.1428  -17.4338 C   0  0  0  0  0  0  0  0  0  0  0  0
    5.2156   -0.9806  -16.3575 C   0  0  0  0  0  0  0  0  0  0  0  0
    6.2060    0.0196  -16.4287 C   0  0  0  0  0  0  0  0  0  0  0  0
    7.1410   -1.1750  -14.2383 H   0  0  0  0  0  0  0  0  0  0  0  0
    8.6151   -0.2138  -14.1347 H   0  0  0  0  0  0  0  0  0  0  0  0
    7.0822    0.4102  -13.4874 H   0  0  0  0  0  0  0  0  0  0  0  0
    9.7246    2.3691  -16.5263 H   0  0  0  0  0  0  0  0  0  0  0  0
    9.6714    1.4476  -15.0510 H   0  0  0  0  0  0  0  0  0  0  0  0
   10.5611    4.3200  -15.6308 H   0  0  0  0  0  0  0  0  0  0  0  0
   10.7389    3.5512  -14.0581 H   0  0  0  0  0  0  0  0  0  0  0  0
    8.9183    5.9423  -14.6470 H   0  0  0  0  0  0  0  0  0  0  0  0
   10.5204    6.1334  -13.9577 H   0  0  0  0  0  0  0  0  0  0  0  0
   11.9230    8.9150  -10.3855 H   0  0  0  0  0  0  0  0  0  0  0  0
   12.1705    9.3719   -7.9599 H   0  0  0  0  0  0  0  0  0  0  0  0
   10.9094    8.0250   -6.2930 H   0  0  0  0  0  0  0  0  0  0  0  0
    9.4111    6.1847   -7.0633 H   0  0  0  0  0  0  0  0  0  0  0  0
    7.4052    4.1929  -11.9534 H   0  0  0  0  0  0  0  0  0  0  0  0
    7.1356    5.0023  -13.4683 H   0  0  0  0  0  0  0  0  0  0  0  0
    7.2791    2.5581  -13.7804 H   0  0  0  0  0  0  0  0  0  0  0  0
    8.8903    2.5222  -13.0490 H   0  0  0  0  0  0  0  0  0  0  0  0
    5.4663    1.3353  -19.4982 H   0  0  0  0  0  0  0  0  0  0  0  0
    3.7230   -0.4321  -19.3870 H   0  0  0  0  0  0  0  0  0  0  0  0
    3.5647   -1.9163  -17.3940 H   0  0  0  0  0  0  0  0  0  0  0  0
    5.1500   -1.6317  -15.4979 H   0  0  0  0  0  0  0  0  0  0  0  0
  2  1  1  0
  3  2  1  0
  4  3  1  0
  5  4  1  0
  6  5  1  0
  7  6  1  0
  8  7  1  0
  9  8  1  0
 10  9  2  0
 11 10  1  0
 12 11  2  0
 13 12  1  0
 14 13  2  0
 15 14  1  0
 16 11  1  0
 16 15  2  0
 17  9  1  0
 17 16  1  0
 18  8  1  0
 19  5  1  0
 19 18  1  0
 20  3  2  0
 21 20  1  0
 22 21  2  0
 23 22  1  0
 24 23  2  0
 25 24  1  0
 26  2  1  0
 26 21  1  0
 26 25  2  0
 27  1  1  0
 28  1  1  0
 29  1  1  0
 30  4  1  0
 31  4  1  0
 32  6  1  0
 33  6  1  0
 34  7  1  0
 35  7  1  0
 36 12  1  0
 37 13  1  0
 38 14  1  0
 39 15  1  0
 40 18  1  0
 41 18  1  0
 42 19  1  0
 43 19  1  0
 44 22  1  0
 45 23  1  0
 46 24  1  0
 47 25  1  0
M  END
>  <b_m_subgroup_collapsed>  (1525) 
0

>  <r_i_docking_score>  (1525) 
-5.2359266629087298

>  <s_m_subgroup_title>  (1525) 
glide-dock_SP_D22_pv

>  <s_m_subgroupid>  (1525) 
glide-dock_SP_D22_pv

>  <Molecule ChEMBL ID>  (1525) 
CHEMBL595609

>  <Standard Type>  (1525) 
Ki

>  <Standard Value>  (1525) 
10000.0

>  <label>  (1525) 
0

$$$$
CHEMBL317488
     RDKit          3D

 45 45  0  0  1  0  0  0  0  0999 V2000
    6.3413    6.1725  -12.4874 C   0  0  0  0  0  0  0  0  0  0  0  0
    6.7416    4.9270  -13.2930 C   0  0  0  0  0  0  0  0  0  0  0  0
    5.4722    4.2584  -13.8406 C   0  0  0  0  0  0  0  0  0  0  0  0
    7.5622    3.9047  -12.4847 C   0  0  0  0  0  0  0  0  0  0  0  0
    9.0734    4.1880  -12.2754 C   0  0  2  0  0  0  0  0  0  0  0  0
    9.2855    5.4584  -11.5879 N   0  0  0  0  0  0  0  0  0  0  0  0
    9.2858    5.6335  -10.2570 C   0  0  0  0  0  0  0  0  0  0  0  0
    9.2609    4.7059   -9.4468 O   0  0  0  0  0  0  0  0  0  0  0  0
    9.3202    7.0780   -9.7534 C   0  0  2  0  0  0  0  0  0  0  0  0
   10.7382    7.6616   -9.7682 C   0  0  0  0  0  0  0  0  0  0  0  0
   10.6801    8.7249   -8.6800 C   0  0  0  0  0  0  0  0  0  0  0  0
    9.7287    8.1302   -7.6370 C   0  0  0  0  0  0  0  0  0  0  0  0
    8.8860    7.1450   -8.3431 N   0  0  0  0  0  0  0  0  0  0  0  0
    9.8991    4.0653  -13.5601 C   0  0  0  0  0  0  0  0  0  0  0  0
   10.0758    5.0464  -14.2803 O   0  0  0  0  0  0  0  0  0  0  0  0
   10.3593    2.8389  -13.8521 N   0  0  0  0  0  0  0  0  0  0  0  0
   11.0026    2.4497  -15.1075 C   0  0  0  0  0  0  0  0  0  0  0  0
   10.4756    1.1166  -15.6621 C   0  0  0  0  0  0  0  0  0  0  0  0
    9.4556    0.5132  -15.0455 N   0  0  0  0  0  0  0  0  0  0  0  0
   10.9956    0.6196  -16.6560 O   0  0  0  0  0  0  0  0  0  0  0  0
    5.8473    5.8984  -11.5541 H   0  0  0  0  0  0  0  0  0  0  0  0
    7.1958    6.8013  -12.2468 H   0  0  0  0  0  0  0  0  0  0  0  0
    5.6528    6.8067  -13.0448 H   0  0  0  0  0  0  0  0  0  0  0  0
    7.3517    5.2309  -14.1412 H   0  0  0  0  0  0  0  0  0  0  0  0
    4.8629    3.8474  -13.0345 H   0  0  0  0  0  0  0  0  0  0  0  0
    4.8545    4.9724  -14.3835 H   0  0  0  0  0  0  0  0  0  0  0  0
    5.7158    3.4452  -14.5238 H   0  0  0  0  0  0  0  0  0  0  0  0
    7.4898    2.9725  -13.0472 H   0  0  0  0  0  0  0  0  0  0  0  0
    7.0755    3.7418  -11.5216 H   0  0  0  0  0  0  0  0  0  0  0  0
    9.4676    3.4042  -11.6273 H   0  0  0  0  0  0  0  0  0  0  0  0
    9.3409    6.2719  -12.1843 H   0  0  0  0  0  0  0  0  0  0  0  0
    8.6594    7.7019  -10.3551 H   0  0  0  0  0  0  0  0  0  0  0  0
   11.4810    6.9082   -9.5041 H   0  0  0  0  0  0  0  0  0  0  0  0
   11.0128    8.0757  -10.7398 H   0  0  0  0  0  0  0  0  0  0  0  0
   11.6606    8.9733   -8.2711 H   0  0  0  0  0  0  0  0  0  0  0  0
   10.2508    9.6377   -9.0957 H   0  0  0  0  0  0  0  0  0  0  0  0
   10.2871    7.6119   -6.8564 H   0  0  0  0  0  0  0  0  0  0  0  0
    9.1166    8.8973   -7.1602 H   0  0  0  0  0  0  0  0  0  0  0  0
    7.8925    7.3717   -8.2986 H   0  0  0  0  0  0  0  0  0  0  0  0
   10.2271    2.1060  -13.1644 H   0  0  0  0  0  0  0  0  0  0  0  0
   12.0807    2.3840  -14.9603 H   0  0  0  0  0  0  0  0  0  0  0  0
   10.8458    3.2070  -15.8769 H   0  0  0  0  0  0  0  0  0  0  0  0
    9.0256    0.9366  -14.2373 H   0  0  0  0  0  0  0  0  0  0  0  0
    9.1012   -0.3577  -15.4179 H   0  0  0  0  0  0  0  0  0  0  0  0
    9.0264    6.2227   -7.9530 H   0  0  0  0  0  0  0  0  0  0  0  0
  2  1  1  0
  3  2  1  0
  4  2  1  0
  5  4  1  0
  6  5  1  0
  7  6  1  0
  8  7  2  0
  9  7  1  0
 10  9  1  0
 11 10  1  0
 12 11  1  0
 13  9  1  0
 13 12  1  0
 14  5  1  0
 15 14  2  0
 16 14  1  0
 17 16  1  0
 18 17  1  0
 19 18  1  0
 20 18  2  0
 21  1  1  0
 22  1  1  0
 23  1  1  0
 24  2  1  0
 25  3  1  0
 26  3  1  0
 27  3  1  0
 28  4  1  0
 29  4  1  0
  5 30  1  1
 31  6  1  0
  9 32  1  6
 33 10  1  0
 34 10  1  0
 35 11  1  0
 36 11  1  0
 37 12  1  0
 38 12  1  0
 39 13  1  0
 40 16  1  0
 41 17  1  0
 42 17  1  0
 43 19  1  0
 44 19  1  0
 45 13  1  0
M  CHG  1  13   1
M  END
>  <b_m_subgroup_collapsed>  (1526) 
0

>  <r_i_docking_score>  (1526) 
-5.2338472256972004

>  <s_m_subgroup_title>  (1526) 
glide-dock_SP_D22_pv

>  <s_m_subgroupid>  (1526) 
glide-dock_SP_D22_pv

>  <Molecule ChEMBL ID>  (1526) 
CHEMBL317488

>  <Standard Type>  (1526) 
Ki

>  <Standard Value>  (1526) 
0.04

>  <label>  (1526) 
1

$$$$
CHEMBL293158
     RDKit          3D

 36 38  0  0  1  0  0  0  0  0999 V2000
    9.7481    6.5176  -11.7109 C   0  0  0  0  0  0  0  0  0  0  0  0
    8.9894    5.3830  -12.2847 N   0  0  1  0  0  0  0  0  0  0  0  0
    7.7243    5.8294  -12.8995 C   0  0  0  0  0  0  0  0  0  0  0  0
    6.7770    4.6383  -13.0818 C   0  0  0  0  0  0  0  0  0  0  0  0
    7.4595    3.4327  -13.7046 C   0  0  0  0  0  0  0  0  0  0  0  0
    6.6708    2.3784  -14.2064 C   0  0  0  0  0  0  0  0  0  0  0  0
    7.2717    1.2091  -14.7075 C   0  0  0  0  0  0  0  0  0  0  0  0
    6.2747   -0.0854  -15.2655 Cl  0  0  0  0  0  0  0  0  0  0  0  0
    8.6768    1.0979  -14.7343 C   0  0  0  0  0  0  0  0  0  0  0  0
    9.2755   -0.0314  -15.2184 O   0  0  0  0  0  0  0  0  0  0  0  0
    9.4694    2.1573  -14.2470 C   0  0  0  0  0  0  0  0  0  0  0  0
    8.8723    3.3216  -13.7088 C   0  0  0  0  0  0  0  0  0  0  0  0
    9.7632    4.4425  -13.1625 C   0  0  1  0  0  0  0  0  0  0  0  0
   10.5759    5.1046  -14.2891 C   0  0  0  0  0  0  0  0  0  0  0  0
   11.8376    5.6851  -14.0183 C   0  0  0  0  0  0  0  0  0  0  0  0
   12.6041    6.2623  -15.0472 C   0  0  0  0  0  0  0  0  0  0  0  0
   12.1302    6.2524  -16.3701 C   0  0  0  0  0  0  0  0  0  0  0  0
   10.8872    5.6632  -16.6614 C   0  0  0  0  0  0  0  0  0  0  0  0
   10.1157    5.0970  -15.6292 C   0  0  0  0  0  0  0  0  0  0  0  0
   10.0712    7.2178  -12.4831 H   0  0  0  0  0  0  0  0  0  0  0  0
    9.1276    7.0669  -10.9999 H   0  0  0  0  0  0  0  0  0  0  0  0
   10.6206    6.1725  -11.1632 H   0  0  0  0  0  0  0  0  0  0  0  0
    7.9664    6.3022  -13.8463 H   0  0  0  0  0  0  0  0  0  0  0  0
    7.2321    6.5855  -12.2838 H   0  0  0  0  0  0  0  0  0  0  0  0
    5.9203    4.9357  -13.6874 H   0  0  0  0  0  0  0  0  0  0  0  0
    6.3799    4.3336  -12.1110 H   0  0  0  0  0  0  0  0  0  0  0  0
    5.5953    2.4501  -14.1736 H   0  0  0  0  0  0  0  0  0  0  0  0
    8.6563   -0.7151  -15.4456 H   0  0  0  0  0  0  0  0  0  0  0  0
   10.5451    2.0621  -14.2625 H   0  0  0  0  0  0  0  0  0  0  0  0
   10.4840    3.9531  -12.5073 H   0  0  0  0  0  0  0  0  0  0  0  0
   12.2385    5.7019  -13.0183 H   0  0  0  0  0  0  0  0  0  0  0  0
   13.5612    6.7107  -14.8200 H   0  0  0  0  0  0  0  0  0  0  0  0
   12.7191    6.6931  -17.1611 H   0  0  0  0  0  0  0  0  0  0  0  0
   10.5233    5.6526  -17.6788 H   0  0  0  0  0  0  0  0  0  0  0  0
    9.1640    4.6591  -15.8881 H   0  0  0  0  0  0  0  0  0  0  0  0
    8.7044    4.8289  -11.4890 H   0  0  0  0  0  0  0  0  0  0  0  0
  2  1  1  0
  3  2  1  0
  4  3  1  0
  5  4  1  0
  6  5  1  0
  7  6  2  0
  8  7  1  0
  9  7  1  0
 10  9  1  0
 11  9  2  0
 12  5  2  0
 12 11  1  0
 13  2  1  0
 13 12  1  0
 14 13  1  0
 15 14  2  0
 16 15  1  0
 17 16  2  0
 18 17  1  0
 19 14  1  0
 19 18  2  0
 20  1  1  0
 21  1  1  0
 22  1  1  0
 23  3  1  0
 24  3  1  0
 25  4  1  0
 26  4  1  0
 27  6  1  0
 28 10  1  0
 29 11  1  0
 13 30  1  1
 31 15  1  0
 32 16  1  0
 33 17  1  0
 34 18  1  0
 35 19  1  0
  2 36  1  1
M  CHG  1   2   1
M  END
>  <b_m_subgroup_collapsed>  (1527) 
0

>  <r_i_docking_score>  (1527) 
-5.2219819754440797

>  <s_m_subgroup_title>  (1527) 
glide-dock_SP_D22_pv

>  <s_m_subgroupid>  (1527) 
glide-dock_SP_D22_pv

>  <Molecule ChEMBL ID>  (1527) 
CHEMBL293158

>  <Standard Type>  (1527) 
Ki

>  <Standard Value>  (1527) 
19054.61

>  <label>  (1527) 
0

$$$$
CHEMBL346898
     RDKit          3D

 41 42  0  0  1  0  0  0  0  0999 V2000
    5.2861    4.9509  -13.4463 C   0  0  0  0  0  0  0  0  0  0  0  0
    6.0841    5.0070  -12.2023 N   0  0  0  0  0  0  0  0  0  0  0  0
    6.5068    3.6461  -11.8482 C   0  0  0  0  0  0  0  0  0  0  0  0
    7.2042    5.9794  -12.3008 C   0  0  0  0  0  0  0  0  0  0  0  0
    8.2318    5.9260  -11.1300 C   0  0  0  0  0  0  0  0  0  0  0  0
    9.4377    6.9071  -11.2661 C   0  0  0  0  0  0  0  0  0  0  0  0
    8.9004    8.1667  -11.8079 C   0  0  0  0  0  0  0  0  0  0  0  0
    8.4825    9.1482  -12.2461 N   0  0  0  0  0  0  0  0  0  0  0  0
   10.0821    7.1912   -9.8888 C   0  0  0  0  0  0  0  0  0  0  0  0
   10.6558    8.4576   -9.6053 C   0  0  0  0  0  0  0  0  0  0  0  0
   11.2064    8.7429   -8.3418 C   0  0  0  0  0  0  0  0  0  0  0  0
   11.1788    7.7754   -7.3264 C   0  0  0  0  0  0  0  0  0  0  0  0
   10.6130    6.5171   -7.5865 C   0  0  0  0  0  0  0  0  0  0  0  0
   10.0848    6.2188   -8.8585 C   0  0  0  0  0  0  0  0  0  0  0  0
   10.4844    6.4348  -12.2993 C   0  0  0  0  0  0  0  0  0  0  0  0
   11.5928    7.2668  -12.5872 C   0  0  0  0  0  0  0  0  0  0  0  0
   12.4802    6.9659  -13.6363 C   0  0  0  0  0  0  0  0  0  0  0  0
   12.3128    5.7878  -14.3832 C   0  0  0  0  0  0  0  0  0  0  0  0
   11.2570    4.9140  -14.0745 C   0  0  0  0  0  0  0  0  0  0  0  0
   10.3498    5.2342  -13.0469 C   0  0  0  0  0  0  0  0  0  0  0  0
    5.8954    4.5742  -14.2666 H   0  0  0  0  0  0  0  0  0  0  0  0
    4.4447    4.2662  -13.3439 H   0  0  0  0  0  0  0  0  0  0  0  0
    4.8938    5.9270  -13.7140 H   0  0  0  0  0  0  0  0  0  0  0  0
    7.2992    3.3723  -12.5441 H   0  0  0  0  0  0  0  0  0  0  0  0
    6.8851    3.5875  -10.8293 H   0  0  0  0  0  0  0  0  0  0  0  0
    5.6891    2.9284  -11.9276 H   0  0  0  0  0  0  0  0  0  0  0  0
    6.7444    6.9668  -12.3539 H   0  0  0  0  0  0  0  0  0  0  0  0
    7.7151    5.8322  -13.2514 H   0  0  0  0  0  0  0  0  0  0  0  0
    8.6146    4.9218  -10.9575 H   0  0  0  0  0  0  0  0  0  0  0  0
    7.6857    6.1710  -10.2203 H   0  0  0  0  0  0  0  0  0  0  0  0
   10.6808    9.2358  -10.3513 H   0  0  0  0  0  0  0  0  0  0  0  0
   11.6425    9.7097   -8.1450 H   0  0  0  0  0  0  0  0  0  0  0  0
   11.5908    7.9960   -6.3530 H   0  0  0  0  0  0  0  0  0  0  0  0
   10.5897    5.7753   -6.8049 H   0  0  0  0  0  0  0  0  0  0  0  0
    9.6684    5.2356   -9.0178 H   0  0  0  0  0  0  0  0  0  0  0  0
   11.7616    8.1683  -12.0207 H   0  0  0  0  0  0  0  0  0  0  0  0
   13.3023    7.6309  -13.8532 H   0  0  0  0  0  0  0  0  0  0  0  0
   13.0042    5.5477  -15.1776 H   0  0  0  0  0  0  0  0  0  0  0  0
   11.1354    4.0001  -14.6370 H   0  0  0  0  0  0  0  0  0  0  0  0
    9.5498    4.5348  -12.8698 H   0  0  0  0  0  0  0  0  0  0  0  0
    5.4926    5.3280  -11.4440 H   0  0  0  0  0  0  0  0  0  0  0  0
  2  1  1  0
  3  2  1  0
  4  2  1  0
  5  4  1  0
  6  5  1  0
  7  6  1  0
  8  7  3  0
  9  6  1  0
 10  9  2  0
 11 10  1  0
 12 11  2  0
 13 12  1  0
 14  9  1  0
 14 13  2  0
 15  6  1  0
 16 15  2  0
 17 16  1  0
 18 17  2  0
 19 18  1  0
 20 15  1  0
 20 19  2  0
 21  1  1  0
 22  1  1  0
 23  1  1  0
 24  3  1  0
 25  3  1  0
 26  3  1  0
 27  4  1  0
 28  4  1  0
 29  5  1  0
 30  5  1  0
 31 10  1  0
 32 11  1  0
 33 12  1  0
 34 13  1  0
 35 14  1  0
 36 16  1  0
 37 17  1  0
 38 18  1  0
 39 19  1  0
 40 20  1  0
 41  2  1  0
M  CHG  1   2   1
M  END
>  <b_m_subgroup_collapsed>  (1528) 
0

>  <r_i_docking_score>  (1528) 
-5.1965981506599004

>  <s_m_subgroup_title>  (1528) 
glide-dock_SP_D22_pv

>  <s_m_subgroupid>  (1528) 
glide-dock_SP_D22_pv

>  <Molecule ChEMBL ID>  (1528) 
CHEMBL346898

>  <Standard Type>  (1528) 
Ki

>  <Standard Value>  (1528) 
17900.0

>  <label>  (1528) 
0

$$$$
CHEMBL38580
     RDKit          3D

 48 50  0  0  1  0  0  0  0  0999 V2000
    9.5729    5.3607   -8.0000 C   0  0  0  0  0  0  0  0  0  0  0  0
    8.6847    6.0023   -9.0551 C   0  0  0  0  0  0  0  0  0  0  0  0
    8.6179    5.1649  -10.3482 C   0  0  0  0  0  0  0  0  0  0  0  0
    7.7765    5.7724  -11.4203 N   0  0  0  0  0  0  0  0  0  0  0  0
    8.3469    7.0757  -11.8745 C   0  0  0  0  0  0  0  0  0  0  0  0
    7.5170    7.8265  -12.9223 C   0  0  0  0  0  0  0  0  0  0  0  0
    6.0019    7.9969  -12.6929 C   0  0  0  0  0  0  0  0  0  0  0  0
    7.4110    4.8217  -12.5232 C   0  0  1  0  0  0  0  0  0  0  0  0
    8.6002    4.0148  -13.0749 C   0  0  0  0  0  0  0  0  0  0  0  0
    8.2123    3.2188  -14.1862 O   0  0  0  0  0  0  0  0  0  0  0  0
    7.1140    2.4041  -14.0120 C   0  0  0  0  0  0  0  0  0  0  0  0
    6.0861    2.7322  -13.0881 C   0  0  0  0  0  0  0  0  0  0  0  0
    4.9688    1.8924  -12.9545 C   0  0  0  0  0  0  0  0  0  0  0  0
    4.8855    0.6993  -13.6946 C   0  0  0  0  0  0  0  0  0  0  0  0
    5.9244    0.3500  -14.5771 C   0  0  0  0  0  0  0  0  0  0  0  0
    7.0449    1.1926  -14.7466 C   0  0  0  0  0  0  0  0  0  0  0  0
    8.1438    0.7567  -15.6269 C   0  0  0  0  0  0  0  0  0  0  0  0
    8.0304    0.1729  -16.9184 C   0  0  0  0  0  0  0  0  0  0  0  0
    9.3134   -0.0964  -17.3096 C   0  0  0  0  0  0  0  0  0  0  0  0
   10.2081    0.2738  -16.3471 O   0  0  0  0  0  0  0  0  0  0  0  0
    9.4773    0.7951  -15.3224 C   0  0  0  0  0  0  0  0  0  0  0  0
    6.2414    3.9051  -12.1360 C   0  0  0  0  0  0  0  0  0  0  0  0
    9.5007    5.8872   -7.0479 H   0  0  0  0  0  0  0  0  0  0  0  0
    9.2627    4.3282   -7.8471 H   0  0  0  0  0  0  0  0  0  0  0  0
   10.6183    5.3592   -8.3082 H   0  0  0  0  0  0  0  0  0  0  0  0
    9.0693    7.0062   -9.2170 H   0  0  0  0  0  0  0  0  0  0  0  0
    7.6861    6.1148   -8.6468 H   0  0  0  0  0  0  0  0  0  0  0  0
    8.2275    4.1784  -10.0911 H   0  0  0  0  0  0  0  0  0  0  0  0
    9.6314    5.0080  -10.7206 H   0  0  0  0  0  0  0  0  0  0  0  0
    8.4861    7.7637  -11.0457 H   0  0  0  0  0  0  0  0  0  0  0  0
    9.3473    6.9032  -12.2743 H   0  0  0  0  0  0  0  0  0  0  0  0
    7.9590    8.8156  -13.0467 H   0  0  0  0  0  0  0  0  0  0  0  0
    7.6860    7.2998  -13.8468 H   0  0  0  0  0  0  0  0  0  0  0  0
    5.4958    8.1725  -13.6423 H   0  0  0  0  0  0  0  0  0  0  0  0
    5.5404    7.1174  -12.2469 H   0  0  0  0  0  0  0  0  0  0  0  0
    5.7785    8.8658  -12.0718 H   0  0  0  0  0  0  0  0  0  0  0  0
    7.0168    5.3710  -13.3725 H   0  0  0  0  0  0  0  0  0  0  0  0
    9.0442    3.3724  -12.3156 H   0  0  0  0  0  0  0  0  0  0  0  0
    9.3894    4.6879  -13.4100 H   0  0  0  0  0  0  0  0  0  0  0  0
    4.1912    2.1706  -12.2588 H   0  0  0  0  0  0  0  0  0  0  0  0
    4.0270    0.0530  -13.5882 H   0  0  0  0  0  0  0  0  0  0  0  0
    5.8642   -0.5816  -15.1227 H   0  0  0  0  0  0  0  0  0  0  0  0
    7.1313   -0.0351  -17.4809 H   0  0  0  0  0  0  0  0  0  0  0  0
    9.7494   -0.5385  -18.1937 H   0  0  0  0  0  0  0  0  0  0  0  0
   10.0449    1.1260  -14.4639 H   0  0  0  0  0  0  0  0  0  0  0  0
    5.3106    4.4727  -12.0878 H   0  0  0  0  0  0  0  0  0  0  0  0
    6.3964    3.4783  -11.1456 H   0  0  0  0  0  0  0  0  0  0  0  0
    6.9077    6.0496  -10.9710 H   0  0  0  0  0  0  0  0  0  0  0  0
  2  1  1  0
  3  2  1  0
  4  3  1  0
  5  4  1  0
  6  5  1  0
  7  6  1  0
  8  4  1  0
  9  8  1  0
 10  9  1  0
 11 10  1  0
 12 11  1  0
 13 12  2  0
 14 13  1  0
 15 14  2  0
 16 11  2  0
 16 15  1  0
 17 16  1  0
 18 17  1  0
 19 18  2  0
 20 19  1  0
 21 17  2  0
 21 20  1  0
 22  8  1  0
 22 12  1  0
 23  1  1  0
 24  1  1  0
 25  1  1  0
 26  2  1  0
 27  2  1  0
 28  3  1  0
 29  3  1  0
 30  5  1  0
 31  5  1  0
 32  6  1  0
 33  6  1  0
 34  7  1  0
 35  7  1  0
 36  7  1  0
  8 37  1  6
 38  9  1  0
 39  9  1  0
 40 13  1  0
 41 14  1  0
 42 15  1  0
 43 18  1  0
 44 19  1  0
 45 21  1  0
 46 22  1  0
 47 22  1  0
 48  4  1  0
M  CHG  1   4   1
M  END
>  <b_m_subgroup_collapsed>  (1529) 
0

>  <r_i_docking_score>  (1529) 
-5.1934065147568802

>  <s_m_subgroup_title>  (1529) 
glide-dock_SP_D22_pv

>  <s_m_subgroupid>  (1529) 
glide-dock_SP_D22_pv

>  <Molecule ChEMBL ID>  (1529) 
CHEMBL38580

>  <Standard Type>  (1529) 
Ki

>  <Standard Value>  (1529) 
47.5

>  <label>  (1529) 
1

$$$$
CHEMBL3938498
     RDKit          3D

 46 50  0  0  1  0  0  0  0  0999 V2000
    9.5269    8.0720  -12.2468 O   0  0  0  0  0  0  0  0  0  0  0  0
    9.9281    6.6571  -12.1782 S   0  0  0  0  0  0  0  0  0  0  0  0
   11.1275    6.1483  -12.8591 O   0  0  0  0  0  0  0  0  0  0  0  0
    9.9848    6.3103  -10.4271 C   0  0  0  0  0  0  0  0  0  0  0  0
    9.3312    5.1866   -9.8802 C   0  0  0  0  0  0  0  0  0  0  0  0
    9.1801    5.0901   -8.4864 C   0  0  0  0  0  0  0  0  0  0  0  0
    9.6940    6.0990   -7.6446 C   0  0  0  0  0  0  0  0  0  0  0  0
   10.3904    7.1911   -8.1894 C   0  0  0  0  0  0  0  0  0  0  0  0
   10.5324    7.2983   -9.5847 C   0  0  0  0  0  0  0  0  0  0  0  0
    8.5783    5.7365  -12.7389 N   0  0  0  0  0  0  0  0  0  0  0  0
    7.3274    6.0737  -12.2944 C   0  0  0  0  0  0  0  0  0  0  0  0
    6.4001    5.1459  -12.6427 C   0  0  0  0  0  0  0  0  0  0  0  0
    7.0812    4.2289  -13.4932 C   0  0  0  0  0  0  0  0  0  0  0  0
    6.5926    3.1252  -14.2467 C   0  0  0  0  0  0  0  0  0  0  0  0
    7.4913    2.5677  -15.1498 C   0  0  0  0  0  0  0  0  0  0  0  0
    8.8478    2.9894  -15.2569 C   0  0  0  0  0  0  0  0  0  0  0  0
    9.4047    3.9896  -14.4563 C   0  0  0  0  0  0  0  0  0  0  0  0
    8.4771    4.6402  -13.5940 C   0  0  0  0  0  0  0  0  0  0  0  0
    9.1387    2.0583  -16.4109 C   0  0  1  0  0  0  0  0  0  0  0  0
   10.3087    1.1161  -16.1056 C   0  0  0  0  0  0  0  0  0  0  0  0
    9.9571   -0.1238  -15.2687 C   0  0  0  0  0  0  0  0  0  0  0  0
    8.9404    0.1723  -14.2413 N   0  0  0  0  0  0  0  0  0  0  0  0
    7.5281   -0.1910  -14.5232 C   0  0  0  0  0  0  0  0  0  0  0  0
    7.1268    0.2027  -15.9518 C   0  0  0  0  0  0  0  0  0  0  0  0
    7.5789    1.6164  -16.3137 C   0  0  1  0  0  0  0  0  0  0  0  0
    8.8986    4.4282  -10.5129 H   0  0  0  0  0  0  0  0  0  0  0  0
    8.6530    4.2461   -8.0656 H   0  0  0  0  0  0  0  0  0  0  0  0
    9.5552    6.0309   -6.5759 H   0  0  0  0  0  0  0  0  0  0  0  0
   10.7798    7.9605   -7.5391 H   0  0  0  0  0  0  0  0  0  0  0  0
   11.0108    8.1682  -10.0080 H   0  0  0  0  0  0  0  0  0  0  0  0
    7.2702    6.9718  -11.7267 H   0  0  0  0  0  0  0  0  0  0  0  0
    5.3518    5.1458  -12.3936 H   0  0  0  0  0  0  0  0  0  0  0  0
    5.5564    2.8353  -14.2091 H   0  0  0  0  0  0  0  0  0  0  0  0
   10.4319    4.3081  -14.5544 H   0  0  0  0  0  0  0  0  0  0  0  0
    9.3230    2.6725  -17.2931 H   0  0  0  0  0  0  0  0  0  0  0  0
   10.7577    0.7649  -17.0355 H   0  0  0  0  0  0  0  0  0  0  0  0
   11.0991    1.6775  -15.6011 H   0  0  0  0  0  0  0  0  0  0  0  0
    9.6724   -0.9808  -15.8757 H   0  0  0  0  0  0  0  0  0  0  0  0
   10.8589   -0.4241  -14.7413 H   0  0  0  0  0  0  0  0  0  0  0  0
    9.2153   -0.1989  -13.3418 H   0  0  0  0  0  0  0  0  0  0  0  0
    7.2906   -1.2327  -14.3154 H   0  0  0  0  0  0  0  0  0  0  0  0
    6.9058    0.3475  -13.8065 H   0  0  0  0  0  0  0  0  0  0  0  0
    7.5060   -0.5148  -16.6807 H   0  0  0  0  0  0  0  0  0  0  0  0
    6.0396    0.1382  -16.0234 H   0  0  0  0  0  0  0  0  0  0  0  0
    7.0217    2.0293  -17.1558 H   0  0  0  0  0  0  0  0  0  0  0  0
    8.9389    1.1809  -14.1429 H   0  0  0  0  0  0  0  0  0  0  0  0
  2  1  2  0
  3  2  2  0
  4  2  1  0
  5  4  2  0
  6  5  1  0
  7  6  2  0
  8  7  1  0
  9  4  1  0
  9  8  2  0
 10  2  1  0
 11 10  1  0
 12 11  2  0
 13 12  1  0
 14 13  2  0
 15 14  1  0
 16 15  2  0
 17 16  1  0
 18 10  1  0
 18 13  1  0
 18 17  2  0
 19 16  1  0
 20 19  1  0
 21 20  1  0
 22 21  1  0
 23 22  1  0
 24 23  1  0
 25 15  1  0
 25 19  1  0
 25 24  1  0
 26  5  1  0
 27  6  1  0
 28  7  1  0
 29  8  1  0
 30  9  1  0
 31 11  1  0
 32 12  1  0
 33 14  1  0
 34 17  1  0
 19 35  1  6
 36 20  1  0
 37 20  1  0
 38 21  1  0
 39 21  1  0
 40 22  1  0
 41 23  1  0
 42 23  1  0
 43 24  1  0
 44 24  1  0
 25 45  1  6
 46 22  1  0
M  CHG  1  22   1
M  END
>  <b_m_subgroup_collapsed>  (1530) 
0

>  <r_i_docking_score>  (1530) 
-5.1906891477193797

>  <s_m_subgroup_title>  (1530) 
glide-dock_SP_D22_pv

>  <s_m_subgroupid>  (1530) 
glide-dock_SP_D22_pv

>  <Molecule ChEMBL ID>  (1530) 
CHEMBL3938498

>  <Standard Type>  (1530) 
Ki

>  <Standard Value>  (1530) 
10000.0

>  <label>  (1530) 
0

$$$$
CHEMBL276778
     RDKit          3D

 48 50  0  0  1  0  0  0  0  0999 V2000
    8.8730    0.8096  -21.6097 C   0  0  0  0  0  0  0  0  0  0  0  0
    7.7681    0.9377  -20.7263 O   0  0  0  0  0  0  0  0  0  0  0  0
    8.0030    0.8713  -19.3703 C   0  0  0  0  0  0  0  0  0  0  0  0
    6.8851    0.9794  -18.5263 C   0  0  0  0  0  0  0  0  0  0  0  0
    7.0329    0.9341  -17.1298 C   0  0  0  0  0  0  0  0  0  0  0  0
    8.3051    0.7795  -16.5318 C   0  0  0  0  0  0  0  0  0  0  0  0
    9.4436    0.6523  -17.3771 C   0  0  0  0  0  0  0  0  0  0  0  0
    9.2785    0.6997  -18.7825 C   0  0  0  0  0  0  0  0  0  0  0  0
   10.8640    0.4507  -16.8553 C   0  0  0  0  0  0  0  0  0  0  0  0
   11.5445    1.7195  -16.3088 C   0  0  0  0  0  0  0  0  0  0  0  0
   11.2574    2.9272  -17.1247 N   0  0  2  0  0  0  0  0  0  0  0  0
   12.3444    3.2277  -18.0862 C   0  0  0  0  0  0  0  0  0  0  0  0
   10.8601    4.1169  -16.3200 C   0  0  0  0  0  0  0  0  0  0  0  0
    9.4104    4.0239  -15.7972 C   0  0  0  0  0  0  0  0  0  0  0  0
    9.2611    3.5988  -14.3221 C   0  0  0  0  0  0  0  0  0  0  0  0
    7.8768    3.0613  -13.9827 C   0  0  0  0  0  0  0  0  0  0  0  0
    6.9802    3.9159  -13.3047 C   0  0  0  0  0  0  0  0  0  0  0  0
    5.7158    3.4552  -12.8926 C   0  0  0  0  0  0  0  0  0  0  0  0
    5.3369    2.1280  -13.1543 C   0  0  0  0  0  0  0  0  0  0  0  0
    6.2136    1.2715  -13.8475 C   0  0  0  0  0  0  0  0  0  0  0  0
    7.4844    1.7221  -14.2749 C   0  0  0  0  0  0  0  0  0  0  0  0
    8.3915    0.7262  -15.0038 C   0  0  0  0  0  0  0  0  0  0  0  0
    8.5152    0.8714  -22.6369 H   0  0  0  0  0  0  0  0  0  0  0  0
    9.3703   -0.1542  -21.4931 H   0  0  0  0  0  0  0  0  0  0  0  0
    9.5974    1.6119  -21.4648 H   0  0  0  0  0  0  0  0  0  0  0  0
    5.9009    1.0986  -18.9550 H   0  0  0  0  0  0  0  0  0  0  0  0
    6.1451    1.0146  -16.5213 H   0  0  0  0  0  0  0  0  0  0  0  0
   10.1528    0.5916  -19.4059 H   0  0  0  0  0  0  0  0  0  0  0  0
   10.8515   -0.3121  -16.0765 H   0  0  0  0  0  0  0  0  0  0  0  0
   11.4795    0.0316  -17.6536 H   0  0  0  0  0  0  0  0  0  0  0  0
   11.2519    1.8621  -15.2779 H   0  0  0  0  0  0  0  0  0  0  0  0
   12.6176    1.5523  -16.2506 H   0  0  0  0  0  0  0  0  0  0  0  0
   13.2566    3.5318  -17.5689 H   0  0  0  0  0  0  0  0  0  0  0  0
   12.0518    4.0324  -18.7611 H   0  0  0  0  0  0  0  0  0  0  0  0
   12.5723    2.3527  -18.6958 H   0  0  0  0  0  0  0  0  0  0  0  0
   11.5727    4.3197  -15.5181 H   0  0  0  0  0  0  0  0  0  0  0  0
   10.8993    4.9880  -16.9759 H   0  0  0  0  0  0  0  0  0  0  0  0
    8.9365    5.0011  -15.8995 H   0  0  0  0  0  0  0  0  0  0  0  0
    8.8407    3.3653  -16.4486 H   0  0  0  0  0  0  0  0  0  0  0  0
    9.9945    2.8662  -14.0068 H   0  0  0  0  0  0  0  0  0  0  0  0
    9.4763    4.4618  -13.6903 H   0  0  0  0  0  0  0  0  0  0  0  0
    7.2681    4.9300  -13.0673 H   0  0  0  0  0  0  0  0  0  0  0  0
    5.0475    4.1180  -12.3645 H   0  0  0  0  0  0  0  0  0  0  0  0
    4.3669    1.7738  -12.8463 H   0  0  0  0  0  0  0  0  0  0  0  0
    5.9052    0.2581  -14.0553 H   0  0  0  0  0  0  0  0  0  0  0  0
    8.1082   -0.2826  -14.7025 H   0  0  0  0  0  0  0  0  0  0  0  0
    9.4094    0.8315  -14.6430 H   0  0  0  0  0  0  0  0  0  0  0  0
   10.4450    2.6913  -17.6795 H   0  0  0  0  0  0  0  0  0  0  0  0
  2  1  1  0
  3  2  1  0
  4  3  1  0
  5  4  2  0
  6  5  1  0
  7  6  2  0
  8  3  2  0
  8  7  1  0
  9  7  1  0
 10  9  1  0
 11 10  1  0
 12 11  1  0
 13 11  1  0
 14 13  1  0
 15 14  1  0
 16 15  1  0
 17 16  2  0
 18 17  1  0
 19 18  2  0
 20 19  1  0
 21 16  1  0
 21 20  2  0
 22  6  1  0
 22 21  1  0
 23  1  1  0
 24  1  1  0
 25  1  1  0
 26  4  1  0
 27  5  1  0
 28  8  1  0
 29  9  1  0
 30  9  1  0
 31 10  1  0
 32 10  1  0
 33 12  1  0
 34 12  1  0
 35 12  1  0
 36 13  1  0
 37 13  1  0
 38 14  1  0
 39 14  1  0
 40 15  1  0
 41 15  1  0
 42 17  1  0
 43 18  1  0
 44 19  1  0
 45 20  1  0
 46 22  1  0
 47 22  1  0
 11 48  1  6
M  CHG  1  11   1
M  END
>  <b_m_subgroup_collapsed>  (1531) 
0

>  <r_i_docking_score>  (1531) 
-5.1900296923338001

>  <s_m_subgroup_title>  (1531) 
glide-dock_SP_D22_pv

>  <s_m_subgroupid>  (1531) 
glide-dock_SP_D22_pv

>  <Molecule ChEMBL ID>  (1531) 
CHEMBL276778

>  <Standard Type>  (1531) 
Ki

>  <Standard Value>  (1531) 
86.7

>  <label>  (1531) 
1

$$$$
CHEMBL5094927
     RDKit          3D

 42 44  0  0  1  0  0  0  0  0999 V2000
   12.3102   -0.4853  -18.6383 C   0  0  0  0  0  0  0  0  0  0  0  0
   10.8556   -0.7193  -18.2088 C   0  0  0  0  0  0  0  0  0  0  0  0
   10.1503    0.6090  -17.8959 C   0  0  0  0  0  0  0  0  0  0  0  0
    9.9701    1.4045  -18.8187 O   0  0  0  0  0  0  0  0  0  0  0  0
    9.7402    0.8755  -16.6380 N   0  0  0  0  0  0  0  0  0  0  0  0
    9.8637    0.0124  -15.4637 C   0  0  0  0  0  0  0  0  0  0  0  0
    9.2228    0.8028  -14.3176 C   0  0  0  0  0  0  0  0  0  0  0  0
    8.1932    1.7145  -15.0116 C   0  0  0  0  0  0  0  0  0  0  0  0
    7.8635    2.9701  -14.1692 C   0  0  0  0  0  0  0  0  0  0  0  0
    6.5330    3.3376  -13.8503 C   0  0  0  0  0  0  0  0  0  0  0  0
    6.2620    4.4649  -13.0491 C   0  0  0  0  0  0  0  0  0  0  0  0
    7.3128    5.2536  -12.5558 C   0  0  0  0  0  0  0  0  0  0  0  0
    8.6400    4.9162  -12.8724 C   0  0  0  0  0  0  0  0  0  0  0  0
    8.9096    3.7888  -13.6719 C   0  0  0  0  0  0  0  0  0  0  0  0
    6.9527    0.8403  -15.3602 C   0  0  0  0  0  0  0  0  0  0  0  0
    6.2616    0.1611  -14.3266 C   0  0  0  0  0  0  0  0  0  0  0  0
    5.1730   -0.6861  -14.6151 C   0  0  0  0  0  0  0  0  0  0  0  0
    4.7566   -0.8873  -15.9409 C   0  0  0  0  0  0  0  0  0  0  0  0
    5.4281   -0.2253  -16.9814 C   0  0  0  0  0  0  0  0  0  0  0  0
    6.5067    0.6338  -16.6938 C   0  0  0  0  0  0  0  0  0  0  0  0
    9.0230    2.0927  -16.2606 C   0  0  0  0  0  0  0  0  0  0  0  0
   12.8155   -1.4245  -18.8614 H   0  0  0  0  0  0  0  0  0  0  0  0
   12.3658    0.1377  -19.5320 H   0  0  0  0  0  0  0  0  0  0  0  0
   12.8691    0.0165  -17.8483 H   0  0  0  0  0  0  0  0  0  0  0  0
   10.8219   -1.4190  -17.3765 H   0  0  0  0  0  0  0  0  0  0  0  0
   10.3135   -1.2026  -19.0219 H   0  0  0  0  0  0  0  0  0  0  0  0
    9.3140   -0.9123  -15.6326 H   0  0  0  0  0  0  0  0  0  0  0  0
   10.9015   -0.2334  -15.2435 H   0  0  0  0  0  0  0  0  0  0  0  0
   10.0166    1.3829  -13.8482 H   0  0  0  0  0  0  0  0  0  0  0  0
    8.8045    0.1879  -13.5227 H   0  0  0  0  0  0  0  0  0  0  0  0
    5.6960    2.7668  -14.2155 H   0  0  0  0  0  0  0  0  0  0  0  0
    5.2432    4.7240  -12.8095 H   0  0  0  0  0  0  0  0  0  0  0  0
    7.1009    6.1120  -11.9319 H   0  0  0  0  0  0  0  0  0  0  0  0
    9.4520    5.5198  -12.4943 H   0  0  0  0  0  0  0  0  0  0  0  0
    9.9427    3.5606  -13.8867 H   0  0  0  0  0  0  0  0  0  0  0  0
    6.5728    0.2808  -13.2997 H   0  0  0  0  0  0  0  0  0  0  0  0
    4.6610   -1.2052  -13.8259 H   0  0  0  0  0  0  0  0  0  0  0  0
    3.9343   -1.5536  -16.1580 H   0  0  0  0  0  0  0  0  0  0  0  0
    5.1149   -0.3820  -18.0031 H   0  0  0  0  0  0  0  0  0  0  0  0
    6.9909    1.1023  -17.5341 H   0  0  0  0  0  0  0  0  0  0  0  0
    8.4319    2.5515  -17.0530 H   0  0  0  0  0  0  0  0  0  0  0  0
    9.7951    2.8234  -16.0204 H   0  0  0  0  0  0  0  0  0  0  0  0
  2  1  1  0
  3  2  1  0
  4  3  2  0
  5  3  1  0
  6  5  1  0
  7  6  1  0
  8  7  1  0
  9  8  1  0
 10  9  2  0
 11 10  1  0
 12 11  2  0
 13 12  1  0
 14  9  1  0
 14 13  2  0
 15  8  1  0
 16 15  2  0
 17 16  1  0
 18 17  2  0
 19 18  1  0
 20 15  1  0
 20 19  2  0
 21  5  1  0
 21  8  1  0
 22  1  1  0
 23  1  1  0
 24  1  1  0
 25  2  1  0
 26  2  1  0
 27  6  1  0
 28  6  1  0
 29  7  1  0
 30  7  1  0
 31 10  1  0
 32 11  1  0
 33 12  1  0
 34 13  1  0
 35 14  1  0
 36 16  1  0
 37 17  1  0
 38 18  1  0
 39 19  1  0
 40 20  1  0
 41 21  1  0
 42 21  1  0
M  END
>  <b_m_subgroup_collapsed>  (1532) 
0

>  <r_i_docking_score>  (1532) 
-5.1886982478666503

>  <s_m_subgroup_title>  (1532) 
glide-dock_SP_D22_pv

>  <s_m_subgroupid>  (1532) 
glide-dock_SP_D22_pv

>  <Molecule ChEMBL ID>  (1532) 
CHEMBL5094927

>  <Standard Type>  (1532) 
Ki

>  <Standard Value>  (1532) 
100000.0

>  <label>  (1532) 
0

$$$$
CHEMBL384248
     RDKit          3D

 56 60  0  0  1  0  0  0  0  0999 V2000
   15.3565   10.7405  -21.9697 C   0  0  0  0  0  0  0  0  0  0  0  0
   15.2400    9.8054  -20.8290 N   0  0  0  0  0  0  0  0  0  0  0  0
   14.5159    8.5650  -21.2057 C   0  0  0  0  0  0  0  0  0  0  0  0
   14.3857    7.5963  -20.0199 C   0  0  0  0  0  0  0  0  0  0  0  0
   13.8188    8.2691  -18.8575 N   0  0  0  0  0  0  0  0  0  0  0  0
   12.9566    7.6071  -17.9886 C   0  0  0  0  0  0  0  0  0  0  0  0
   13.2537    7.4607  -16.7329 N   0  0  0  0  0  0  0  0  0  0  0  0
   12.4806    6.7701  -15.7857 C   0  0  0  0  0  0  0  0  0  0  0  0
   12.4862    7.3002  -14.4775 C   0  0  0  0  0  0  0  0  0  0  0  0
   11.8015    6.6570  -13.4302 C   0  0  0  0  0  0  0  0  0  0  0  0
   11.7657    7.3723  -11.8593 Cl  0  0  0  0  0  0  0  0  0  0  0  0
   11.1339    5.4442  -13.6684 C   0  0  0  0  0  0  0  0  0  0  0  0
   11.1293    4.8926  -14.9621 C   0  0  0  0  0  0  0  0  0  0  0  0
   11.7815    5.5549  -16.0276 C   0  0  0  0  0  0  0  0  0  0  0  0
   11.6462    5.0517  -17.3251 N   0  0  0  0  0  0  0  0  0  0  0  0
   11.8421    3.6881  -17.5702 N   0  0  0  0  0  0  0  0  0  0  0  0
   12.9734    3.2047  -18.1123 C   0  0  0  0  0  0  0  0  0  0  0  0
   13.9788    3.8892  -18.3178 O   0  0  0  0  0  0  0  0  0  0  0  0
   12.9193    1.7658  -18.5489 C   0  0  0  0  0  0  0  0  0  0  0  0
   13.8699    1.2691  -19.4694 C   0  0  0  0  0  0  0  0  0  0  0  0
   13.8123   -0.0851  -19.8476 C   0  0  0  0  0  0  0  0  0  0  0  0
   12.8859   -0.9433  -19.3756 N   0  0  0  0  0  0  0  0  0  0  0  0
   11.9771   -0.4706  -18.4994 C   0  0  0  0  0  0  0  0  0  0  0  0
   11.9541    0.8621  -18.0462 C   0  0  0  0  0  0  0  0  0  0  0  0
   11.1196    5.8432  -18.3469 C   0  0  0  0  0  0  0  0  0  0  0  0
    9.9658    5.4057  -19.0372 C   0  0  0  0  0  0  0  0  0  0  0  0
    9.3645    6.2180  -20.0144 C   0  0  0  0  0  0  0  0  0  0  0  0
    9.9165    7.4759  -20.3078 C   0  0  0  0  0  0  0  0  0  0  0  0
   11.0683    7.9120  -19.6285 C   0  0  0  0  0  0  0  0  0  0  0  0
   11.6915    7.1024  -18.6467 C   0  0  0  0  0  0  0  0  0  0  0  0
   14.5648    9.4556  -18.4509 C   0  0  0  0  0  0  0  0  0  0  0  0
   14.6723   10.4499  -19.6185 C   0  0  0  0  0  0  0  0  0  0  0  0
   14.3708   10.9727  -22.3788 H   0  0  0  0  0  0  0  0  0  0  0  0
   15.8348   11.6751  -21.6702 H   0  0  0  0  0  0  0  0  0  0  0  0
   15.9540   10.3008  -22.7698 H   0  0  0  0  0  0  0  0  0  0  0  0
   15.0309    8.0720  -22.0315 H   0  0  0  0  0  0  0  0  0  0  0  0
   13.5193    8.8243  -21.5669 H   0  0  0  0  0  0  0  0  0  0  0  0
   15.3663    7.2038  -19.7462 H   0  0  0  0  0  0  0  0  0  0  0  0
   13.7831    6.7349  -20.3100 H   0  0  0  0  0  0  0  0  0  0  0  0
   13.0180    8.2172  -14.2721 H   0  0  0  0  0  0  0  0  0  0  0  0
   10.6061    4.9475  -12.8679 H   0  0  0  0  0  0  0  0  0  0  0  0
   10.5849    3.9771  -15.1385 H   0  0  0  0  0  0  0  0  0  0  0  0
   11.0275    3.1072  -17.4389 H   0  0  0  0  0  0  0  0  0  0  0  0
   14.6336    1.9126  -19.8824 H   0  0  0  0  0  0  0  0  0  0  0  0
   14.5278   -0.4886  -20.5494 H   0  0  0  0  0  0  0  0  0  0  0  0
   11.2542   -1.1850  -18.1332 H   0  0  0  0  0  0  0  0  0  0  0  0
   11.2108    1.1567  -17.3209 H   0  0  0  0  0  0  0  0  0  0  0  0
    9.5210    4.4513  -18.8020 H   0  0  0  0  0  0  0  0  0  0  0  0
    8.4774    5.8793  -20.5290 H   0  0  0  0  0  0  0  0  0  0  0  0
    9.4533    8.1087  -21.0500 H   0  0  0  0  0  0  0  0  0  0  0  0
   11.4671    8.8890  -19.8638 H   0  0  0  0  0  0  0  0  0  0  0  0
   14.0864    9.9423  -17.6002 H   0  0  0  0  0  0  0  0  0  0  0  0
   15.5573    9.1506  -18.1190 H   0  0  0  0  0  0  0  0  0  0  0  0
   15.2858   11.3018  -19.3262 H   0  0  0  0  0  0  0  0  0  0  0  0
   13.6860   10.8477  -19.8496 H   0  0  0  0  0  0  0  0  0  0  0  0
   16.1805    9.5272  -20.5860 H   0  0  0  0  0  0  0  0  0  0  0  0
  2  1  1  0
  3  2  1  0
  4  3  1  0
  5  4  1  0
  6  5  1  0
  7  6  2  0
  8  7  1  0
  9  8  1  0
 10  9  2  0
 11 10  1  0
 12 10  1  0
 13 12  2  0
 14  8  2  0
 14 13  1  0
 15 14  1  0
 16 15  1  0
 17 16  1  0
 18 17  2  0
 19 17  1  0
 20 19  2  0
 21 20  1  0
 22 21  2  0
 23 22  1  0
 24 19  1  0
 24 23  2  0
 25 15  1  0
 26 25  2  0
 27 26  1  0
 28 27  2  0
 29 28  1  0
 30  6  1  0
 30 25  1  0
 30 29  2  0
 31  5  1  0
 32  2  1  0
 32 31  1  0
 33  1  1  0
 34  1  1  0
 35  1  1  0
 36  3  1  0
 37  3  1  0
 38  4  1  0
 39  4  1  0
 40  9  1  0
 41 12  1  0
 42 13  1  0
 43 16  1  0
 44 20  1  0
 45 21  1  0
 46 23  1  0
 47 24  1  0
 48 26  1  0
 49 27  1  0
 50 28  1  0
 51 29  1  0
 52 31  1  0
 53 31  1  0
 54 32  1  0
 55 32  1  0
 56  2  1  0
M  CHG  1   2   1
M  END
>  <b_m_subgroup_collapsed>  (1533) 
0

>  <r_i_docking_score>  (1533) 
-5.1843706990589604

>  <s_m_subgroup_title>  (1533) 
glide-dock_SP_D22_pv

>  <s_m_subgroupid>  (1533) 
glide-dock_SP_D22_pv

>  <Molecule ChEMBL ID>  (1533) 
CHEMBL384248

>  <Standard Type>  (1533) 
Ki

>  <Standard Value>  (1533) 
28425.0

>  <label>  (1533) 
0

$$$$
CHEMBL1949725
     RDKit          3D

 48 51  0  0  1  0  0  0  0  0999 V2000
   11.8458    5.6981  -15.1261 C   0  0  0  0  0  0  0  0  0  0  0  0
   11.8793    4.2066  -15.5034 C   0  0  1  0  0  0  0  0  0  0  0  0
   11.2921    3.2817  -14.3959 C   0  0  0  0  0  0  0  0  0  0  0  0
    9.7964    3.2373  -14.2269 C   0  0  0  0  0  0  0  0  0  0  0  0
    8.9533    2.2144  -14.6065 C   0  0  0  0  0  0  0  0  0  0  0  0
    7.6543    2.5654  -14.2776 N   0  0  0  0  0  0  0  0  0  0  0  0
    7.6219    3.7624  -13.6012 C   0  0  0  0  0  0  0  0  0  0  0  0
    6.5659    4.4830  -13.0174 C   0  0  0  0  0  0  0  0  0  0  0  0
    6.8456    5.6735  -12.3267 C   0  0  0  0  0  0  0  0  0  0  0  0
    8.1713    6.1349  -12.2435 C   0  0  0  0  0  0  0  0  0  0  0  0
    9.2221    5.4084  -12.8382 C   0  0  0  0  0  0  0  0  0  0  0  0
    8.9759    4.2029  -13.5371 C   0  0  0  0  0  0  0  0  0  0  0  0
    9.2394    0.8938  -15.2562 C   0  0  0  0  0  0  0  0  0  0  0  0
    8.9985    0.9318  -16.7594 C   0  0  0  0  0  0  0  0  0  0  0  0
    7.6746    0.7254  -17.2085 C   0  0  0  0  0  0  0  0  0  0  0  0
    7.3599    0.7735  -18.5780 C   0  0  0  0  0  0  0  0  0  0  0  0
    8.3739    1.0222  -19.5182 C   0  0  0  0  0  0  0  0  0  0  0  0
    9.6973    1.2191  -19.0856 C   0  0  0  0  0  0  0  0  0  0  0  0
   10.0256    1.1873  -17.7117 C   0  0  0  0  0  0  0  0  0  0  0  0
   11.4840    1.4294  -17.3315 C   0  0  0  0  0  0  0  0  0  0  0  0
   12.0196    2.8428  -17.6543 C   0  0  0  0  0  0  0  0  0  0  0  0
   11.4230    3.9937  -16.9134 N   0  0  1  0  0  0  0  0  0  0  0  0
   10.0137    4.3223  -17.2450 C   0  0  0  0  0  0  0  0  0  0  0  0
   12.3204    5.8668  -14.1580 H   0  0  0  0  0  0  0  0  0  0  0  0
   10.8311    6.0888  -15.0654 H   0  0  0  0  0  0  0  0  0  0  0  0
   12.3873    6.3012  -15.8561 H   0  0  0  0  0  0  0  0  0  0  0  0
   12.9444    3.9723  -15.5141 H   0  0  0  0  0  0  0  0  0  0  0  0
   11.6815    2.2753  -14.5134 H   0  0  0  0  0  0  0  0  0  0  0  0
   11.7249    3.6056  -13.4487 H   0  0  0  0  0  0  0  0  0  0  0  0
    6.8587    1.9725  -14.4655 H   0  0  0  0  0  0  0  0  0  0  0  0
    5.5521    4.1156  -13.0705 H   0  0  0  0  0  0  0  0  0  0  0  0
    6.0516    6.2268  -11.8463 H   0  0  0  0  0  0  0  0  0  0  0  0
    8.3736    7.0455  -11.6962 H   0  0  0  0  0  0  0  0  0  0  0  0
   10.2304    5.7757  -12.7388 H   0  0  0  0  0  0  0  0  0  0  0  0
   10.2326    0.5346  -14.9984 H   0  0  0  0  0  0  0  0  0  0  0  0
    8.5774    0.1398  -14.8281 H   0  0  0  0  0  0  0  0  0  0  0  0
    6.8856    0.5268  -16.4961 H   0  0  0  0  0  0  0  0  0  0  0  0
    6.3429    0.6100  -18.9061 H   0  0  0  0  0  0  0  0  0  0  0  0
    8.1383    1.0542  -20.5712 H   0  0  0  0  0  0  0  0  0  0  0  0
   10.4659    1.3990  -19.8239 H   0  0  0  0  0  0  0  0  0  0  0  0
   11.7127    1.1559  -16.3101 H   0  0  0  0  0  0  0  0  0  0  0  0
   12.0679    0.7185  -17.9164 H   0  0  0  0  0  0  0  0  0  0  0  0
   13.0985    2.8498  -17.4902 H   0  0  0  0  0  0  0  0  0  0  0  0
   11.9008    3.0333  -18.7215 H   0  0  0  0  0  0  0  0  0  0  0  0
    9.2971    3.6330  -16.8117 H   0  0  0  0  0  0  0  0  0  0  0  0
    9.8689    4.3005  -18.3268 H   0  0  0  0  0  0  0  0  0  0  0  0
    9.7509    5.3260  -16.9118 H   0  0  0  0  0  0  0  0  0  0  0  0
   11.9022    4.7575  -17.3683 H   0  0  0  0  0  0  0  0  0  0  0  0
  2  1  1  0
  3  2  1  0
  4  3  1  0
  5  4  2  0
  6  5  1  0
  7  6  1  0
  8  7  2  0
  9  8  1  0
 10  9  2  0
 11 10  1  0
 12  4  1  0
 12  7  1  0
 12 11  2  0
 13  5  1  0
 14 13  1  0
 15 14  2  0
 16 15  1  0
 17 16  2  0
 18 17  1  0
 19 14  1  0
 19 18  2  0
 20 19  1  0
 21 20  1  0
 22  2  1  0
 22 21  1  0
 23 22  1  0
 24  1  1  0
 25  1  1  0
 26  1  1  0
  2 27  1  6
 28  3  1  0
 29  3  1  0
 30  6  1  0
 31  8  1  0
 32  9  1  0
 33 10  1  0
 34 11  1  0
 35 13  1  0
 36 13  1  0
 37 15  1  0
 38 16  1  0
 39 17  1  0
 40 18  1  0
 41 20  1  0
 42 20  1  0
 43 21  1  0
 44 21  1  0
 45 23  1  0
 46 23  1  0
 47 23  1  0
 22 48  1  6
M  CHG  1  22   1
M  END
>  <b_m_subgroup_collapsed>  (1534) 
0

>  <r_i_docking_score>  (1534) 
-5.1706407360634099

>  <s_m_subgroup_title>  (1534) 
glide-dock_SP_D22_pv

>  <s_m_subgroupid>  (1534) 
glide-dock_SP_D22_pv

>  <Molecule ChEMBL ID>  (1534) 
CHEMBL1949725

>  <Standard Type>  (1534) 
Ki

>  <Standard Value>  (1534) 
85.3

>  <label>  (1534) 
1

$$$$
CHEMBL5171721
     RDKit          3D

 50 53  0  0  1  0  0  0  0  0999 V2000
    7.5724   -0.7667  -19.1839 O   0  0  0  0  0  0  0  0  0  0  0  0
    6.7479   -0.9089  -18.2793 C   0  0  0  0  0  0  0  0  0  0  0  0
    5.5317   -1.8052  -18.5403 C   0  0  0  0  0  0  0  0  0  0  0  0
    4.2585   -1.2472  -17.9012 C   0  0  0  0  0  0  0  0  0  0  0  0
    4.5102   -0.8281  -16.4698 C   0  0  0  0  0  0  0  0  0  0  0  0
    3.4546   -0.8711  -15.5412 C   0  0  0  0  0  0  0  0  0  0  0  0
    3.6447   -0.3998  -14.2331 C   0  0  0  0  0  0  0  0  0  0  0  0
    4.9036    0.0903  -13.8463 C   0  0  0  0  0  0  0  0  0  0  0  0
    5.9724    0.0921  -14.7596 C   0  0  0  0  0  0  0  0  0  0  0  0
    5.7965   -0.3637  -16.0919 C   0  0  0  0  0  0  0  0  0  0  0  0
    6.8768   -0.3440  -17.0508 N   0  0  0  0  0  0  0  0  0  0  0  0
    8.1859    0.2169  -16.6643 C   0  0  0  0  0  0  0  0  0  0  0  0
    8.1813    1.7603  -16.6449 C   0  0  0  0  0  0  0  0  0  0  0  0
    9.3894    2.2488  -15.9863 N   0  0  0  0  0  0  0  0  0  0  0  0
    9.6901    3.6324  -16.3726 C   0  0  0  0  0  0  0  0  0  0  0  0
   11.0345    4.0688  -15.7505 C   0  0  0  0  0  0  0  0  0  0  0  0
   11.0041    3.9165  -14.2998 N   0  0  0  0  0  0  0  0  0  0  0  0
   10.8119    5.0581  -13.5050 C   0  0  0  0  0  0  0  0  0  0  0  0
   11.7976    6.0672  -13.5251 C   0  0  0  0  0  0  0  0  0  0  0  0
   11.6889    7.1931  -12.6895 C   0  0  0  0  0  0  0  0  0  0  0  0
   10.5684    7.3460  -11.8488 C   0  0  0  0  0  0  0  0  0  0  0  0
    9.5653    6.3554  -11.8386 C   0  0  0  0  0  0  0  0  0  0  0  0
    9.6910    5.2127  -12.6536 C   0  0  0  0  0  0  0  0  0  0  0  0
   10.5355    2.6138  -13.8436 C   0  0  0  0  0  0  0  0  0  0  0  0
    9.2211    2.2190  -14.5279 C   0  0  0  0  0  0  0  0  0  0  0  0
    5.3879   -1.9526  -19.6110 H   0  0  0  0  0  0  0  0  0  0  0  0
    5.7519   -2.7837  -18.1119 H   0  0  0  0  0  0  0  0  0  0  0  0
    3.8968   -0.3829  -18.4607 H   0  0  0  0  0  0  0  0  0  0  0  0
    3.4658   -1.9971  -17.9336 H   0  0  0  0  0  0  0  0  0  0  0  0
    2.4860   -1.2379  -15.8453 H   0  0  0  0  0  0  0  0  0  0  0  0
    2.8214   -0.4081  -13.5339 H   0  0  0  0  0  0  0  0  0  0  0  0
    5.0577    0.4621  -12.8441 H   0  0  0  0  0  0  0  0  0  0  0  0
    6.9165    0.4668  -14.4025 H   0  0  0  0  0  0  0  0  0  0  0  0
    8.9919   -0.1126  -17.3217 H   0  0  0  0  0  0  0  0  0  0  0  0
    8.4678   -0.2155  -15.7055 H   0  0  0  0  0  0  0  0  0  0  0  0
    7.2951    2.1646  -16.1557 H   0  0  0  0  0  0  0  0  0  0  0  0
    8.1505    2.1109  -17.6773 H   0  0  0  0  0  0  0  0  0  0  0  0
    8.8931    4.3006  -16.0463 H   0  0  0  0  0  0  0  0  0  0  0  0
    9.7536    3.7068  -17.4595 H   0  0  0  0  0  0  0  0  0  0  0  0
   11.2492    5.1004  -16.0281 H   0  0  0  0  0  0  0  0  0  0  0  0
   11.8458    3.4594  -16.1492 H   0  0  0  0  0  0  0  0  0  0  0  0
   12.6691    5.9560  -14.1540 H   0  0  0  0  0  0  0  0  0  0  0  0
   12.4745    7.9342  -12.6950 H   0  0  0  0  0  0  0  0  0  0  0  0
   10.4774    8.2151  -11.2154 H   0  0  0  0  0  0  0  0  0  0  0  0
    8.6993    6.4717  -11.1988 H   0  0  0  0  0  0  0  0  0  0  0  0
    8.9165    4.4608  -12.6191 H   0  0  0  0  0  0  0  0  0  0  0  0
   11.2994    1.8682  -14.0628 H   0  0  0  0  0  0  0  0  0  0  0  0
   10.4039    2.6144  -12.7630 H   0  0  0  0  0  0  0  0  0  0  0  0
    8.4131    2.8840  -14.2231 H   0  0  0  0  0  0  0  0  0  0  0  0
    8.9579    1.2211  -14.1842 H   0  0  0  0  0  0  0  0  0  0  0  0
  2  1  2  0
  3  2  1  0
  4  3  1  0
  5  4  1  0
  6  5  2  0
  7  6  1  0
  8  7  2  0
  9  8  1  0
 10  5  1  0
 10  9  2  0
 11  2  1  0
 11 10  1  0
 12 11  1  0
 13 12  1  0
 14 13  1  0
 15 14  1  0
 16 15  1  0
 17 16  1  0
 18 17  1  0
 19 18  2  0
 20 19  1  0
 21 20  2  0
 22 21  1  0
 23 18  1  0
 23 22  2  0
 24 17  1  0
 25 14  1  0
 25 24  1  0
 26  3  1  0
 27  3  1  0
 28  4  1  0
 29  4  1  0
 30  6  1  0
 31  7  1  0
 32  8  1  0
 33  9  1  0
 34 12  1  0
 35 12  1  0
 36 13  1  0
 37 13  1  0
 38 15  1  0
 39 15  1  0
 40 16  1  0
 41 16  1  0
 42 19  1  0
 43 20  1  0
 44 21  1  0
 45 22  1  0
 46 23  1  0
 47 24  1  0
 48 24  1  0
 49 25  1  0
 50 25  1  0
M  END
>  <b_m_subgroup_collapsed>  (1535) 
0

>  <r_i_docking_score>  (1535) 
-5.1701061836873103

>  <s_m_subgroup_title>  (1535) 
glide-dock_SP_D22_pv

>  <s_m_subgroupid>  (1535) 
glide-dock_SP_D22_pv

>  <Molecule ChEMBL ID>  (1535) 
CHEMBL5171721

>  <Standard Type>  (1535) 
Ki

>  <Standard Value>  (1535) 
12882.5

>  <label>  (1535) 
0

$$$$
CHEMBL4175327
     RDKit          3D

 47 50  0  0  1  0  0  0  0  0999 V2000
   12.4718    5.9812  -15.0929 C   0  0  0  0  0  0  0  0  0  0  0  0
   11.2878    5.6435  -14.2517 C   0  0  0  0  0  0  0  0  0  0  0  0
   11.1634    6.2791  -13.0465 O   0  0  0  0  0  0  0  0  0  0  0  0
   10.0194    5.7753  -12.5032 C   0  0  0  0  0  0  0  0  0  0  0  0
    9.6895    6.1380  -11.1287 C   0  0  0  0  0  0  0  0  0  0  0  0
    9.0811    5.1816  -10.2847 C   0  0  0  0  0  0  0  0  0  0  0  0
    8.8862    5.4609   -8.9183 C   0  0  0  0  0  0  0  0  0  0  0  0
    9.2851    6.7036   -8.3880 C   0  0  0  0  0  0  0  0  0  0  0  0
    9.8609    7.6732   -9.2300 C   0  0  0  0  0  0  0  0  0  0  0  0
   10.2283    8.8755   -8.7231 F   0  0  0  0  0  0  0  0  0  0  0  0
   10.0711    7.3916  -10.5943 C   0  0  0  0  0  0  0  0  0  0  0  0
   10.6500    8.3294  -11.3831 F   0  0  0  0  0  0  0  0  0  0  0  0
    9.4241    4.8865  -13.2944 N   0  0  0  0  0  0  0  0  0  0  0  0
   10.2365    4.7781  -14.4159 C   0  0  0  0  0  0  0  0  0  0  0  0
    9.9415    3.8431  -15.5626 C   0  0  0  0  0  0  0  0  0  0  0  0
    9.6409    2.4236  -15.3519 N   0  0  0  0  0  0  0  0  0  0  0  0
   10.7570    1.7850  -14.6633 C   0  0  0  0  0  0  0  0  0  0  0  0
    8.3744    2.2505  -14.6377 C   0  0  0  0  0  0  0  0  0  0  0  0
    7.8605    0.8020  -14.6174 C   0  0  2  0  0  0  0  0  0  0  0  0
    7.4801    0.2209  -16.0071 C   0  0  0  0  0  0  0  0  0  0  0  0
    6.0745   -0.2188  -15.7761 C   0  0  0  0  0  0  0  0  0  0  0  0
    5.2156   -0.9142  -16.6455 C   0  0  0  0  0  0  0  0  0  0  0  0
    3.9129   -1.2077  -16.1842 C   0  0  0  0  0  0  0  0  0  0  0  0
    3.4960   -0.7994  -14.8934 C   0  0  0  0  0  0  0  0  0  0  0  0
    4.3843   -0.1104  -14.0394 C   0  0  0  0  0  0  0  0  0  0  0  0
    5.6802    0.1640  -14.5086 C   0  0  0  0  0  0  0  0  0  0  0  0
    6.6670    0.8010  -13.8193 O   0  0  0  0  0  0  0  0  0  0  0  0
   13.0126    5.0792  -15.3835 H   0  0  0  0  0  0  0  0  0  0  0  0
   12.1622    6.5000  -16.0014 H   0  0  0  0  0  0  0  0  0  0  0  0
   13.1640    6.6274  -14.5540 H   0  0  0  0  0  0  0  0  0  0  0  0
    8.7883    4.2189  -10.6780 H   0  0  0  0  0  0  0  0  0  0  0  0
    8.4251    4.7238   -8.2780 H   0  0  0  0  0  0  0  0  0  0  0  0
    9.1234    6.9219   -7.3440 H   0  0  0  0  0  0  0  0  0  0  0  0
   10.7884    3.8700  -16.2519 H   0  0  0  0  0  0  0  0  0  0  0  0
    9.1202    4.2633  -16.1435 H   0  0  0  0  0  0  0  0  0  0  0  0
   10.6263    0.7062  -14.5993 H   0  0  0  0  0  0  0  0  0  0  0  0
   11.6851    1.9612  -15.2075 H   0  0  0  0  0  0  0  0  0  0  0  0
   10.8783    2.1731  -13.6501 H   0  0  0  0  0  0  0  0  0  0  0  0
    7.6138    2.8870  -15.0902 H   0  0  0  0  0  0  0  0  0  0  0  0
    8.4868    2.5835  -13.6068 H   0  0  0  0  0  0  0  0  0  0  0  0
    8.5651    0.1408  -14.1121 H   0  0  0  0  0  0  0  0  0  0  0  0
    8.1154   -0.6186  -16.2911 H   0  0  0  0  0  0  0  0  0  0  0  0
    7.5104    0.9746  -16.7953 H   0  0  0  0  0  0  0  0  0  0  0  0
    5.5399   -1.2175  -17.6286 H   0  0  0  0  0  0  0  0  0  0  0  0
    3.2292   -1.7509  -16.8215 H   0  0  0  0  0  0  0  0  0  0  0  0
    2.4948   -1.0249  -14.5585 H   0  0  0  0  0  0  0  0  0  0  0  0
    4.0855    0.2013  -13.0502 H   0  0  0  0  0  0  0  0  0  0  0  0
  2  1  1  0
  3  2  1  0
  4  3  1  0
  5  4  1  0
  6  5  2  0
  7  6  1  0
  8  7  2  0
  9  8  1  0
 10  9  1  0
 11  5  1  0
 11  9  2  0
 12 11  1  0
 13  4  2  0
 14  2  2  0
 14 13  1  0
 15 14  1  0
 16 15  1  0
 17 16  1  0
 18 16  1  0
 19 18  1  0
 20 19  1  0
 21 20  1  0
 22 21  2  0
 23 22  1  0
 24 23  2  0
 25 24  1  0
 26 21  1  0
 26 25  2  0
 27 19  1  0
 27 26  1  0
 28  1  1  0
 29  1  1  0
 30  1  1  0
 31  6  1  0
 32  7  1  0
 33  8  1  0
 34 15  1  0
 35 15  1  0
 36 17  1  0
 37 17  1  0
 38 17  1  0
 39 18  1  0
 40 18  1  0
 19 41  1  1
 42 20  1  0
 43 20  1  0
 44 22  1  0
 45 23  1  0
 46 24  1  0
 47 25  1  0
M  END
>  <b_m_subgroup_collapsed>  (1536) 
0

>  <r_i_docking_score>  (1536) 
-5.1577696634386596

>  <s_m_subgroup_title>  (1536) 
glide-dock_SP_D22_pv

>  <s_m_subgroupid>  (1536) 
glide-dock_SP_D22_pv

>  <Molecule ChEMBL ID>  (1536) 
CHEMBL4175327

>  <Standard Type>  (1536) 
Ki

>  <Standard Value>  (1536) 
10000.0

>  <label>  (1536) 
0

$$$$
CHEMBL589
     RDKit          3D

 44 45  0  0  1  0  0  0  0  0999 V2000
    8.4998    4.4040   -8.2473 C   0  0  0  0  0  0  0  0  0  0  0  0
    9.6225    5.4430   -8.2469 C   0  0  0  0  0  0  0  0  0  0  0  0
    9.0668    6.8728   -8.3995 C   0  0  0  0  0  0  0  0  0  0  0  0
   10.0956    7.9328   -8.6302 N   0  0  0  0  0  0  0  0  0  0  0  0
   11.0438    8.1269   -7.4976 C   0  0  0  0  0  0  0  0  0  0  0  0
   10.3649    8.5306   -6.1767 C   0  0  0  0  0  0  0  0  0  0  0  0
   11.3836    8.9106   -5.0932 C   0  0  0  0  0  0  0  0  0  0  0  0
   10.8241    7.7753   -9.9178 C   0  0  0  0  0  0  0  0  0  0  0  0
    9.9435    7.9664  -11.1682 C   0  0  0  0  0  0  0  0  0  0  0  0
   10.3064    6.9629  -12.2467 C   0  0  0  0  0  0  0  0  0  0  0  0
   11.5837    6.9722  -12.8606 C   0  0  0  0  0  0  0  0  0  0  0  0
   11.9258    5.9974  -13.8312 C   0  0  0  0  0  0  0  0  0  0  0  0
   11.0066    4.9906  -14.2020 C   0  0  0  0  0  0  0  0  0  0  0  0
    9.7435    5.0069  -13.5887 C   0  0  0  0  0  0  0  0  0  0  0  0
    9.3927    5.9640  -12.6453 C   0  0  0  0  0  0  0  0  0  0  0  0
    7.9632    5.7475  -12.1967 C   0  0  0  0  0  0  0  0  0  0  0  0
    7.6155    4.5166  -13.0471 C   0  0  0  0  0  0  0  0  0  0  0  0
    6.5165    3.9678  -13.0368 O   0  0  0  0  0  0  0  0  0  0  0  0
    8.6630    4.1479  -13.7973 N   0  0  0  0  0  0  0  0  0  0  0  0
    8.8558    3.4246   -7.9266 H   0  0  0  0  0  0  0  0  0  0  0  0
    7.6868    4.7130   -7.5900 H   0  0  0  0  0  0  0  0  0  0  0  0
    8.0862    4.2802   -9.2466 H   0  0  0  0  0  0  0  0  0  0  0  0
   10.3076    5.1742   -9.0477 H   0  0  0  0  0  0  0  0  0  0  0  0
   10.1876    5.3726   -7.3211 H   0  0  0  0  0  0  0  0  0  0  0  0
    8.4744    7.1280   -7.5219 H   0  0  0  0  0  0  0  0  0  0  0  0
    8.3467    6.8731   -9.2107 H   0  0  0  0  0  0  0  0  0  0  0  0
   11.6453    7.2281   -7.3535 H   0  0  0  0  0  0  0  0  0  0  0  0
   11.7451    8.9186   -7.7686 H   0  0  0  0  0  0  0  0  0  0  0  0
    9.6930    9.3711   -6.3488 H   0  0  0  0  0  0  0  0  0  0  0  0
    9.7497    7.7126   -5.7992 H   0  0  0  0  0  0  0  0  0  0  0  0
   10.8861    9.2177   -4.1728 H   0  0  0  0  0  0  0  0  0  0  0  0
   12.0323    8.0680   -4.8497 H   0  0  0  0  0  0  0  0  0  0  0  0
   12.0171    9.7385   -5.4163 H   0  0  0  0  0  0  0  0  0  0  0  0
   11.3247    6.8094   -9.9359 H   0  0  0  0  0  0  0  0  0  0  0  0
   11.6355    8.5027   -9.9788 H   0  0  0  0  0  0  0  0  0  0  0  0
   10.0841    8.9716  -11.5602 H   0  0  0  0  0  0  0  0  0  0  0  0
    8.8794    7.9125  -10.9552 H   0  0  0  0  0  0  0  0  0  0  0  0
   12.3135    7.7195  -12.5841 H   0  0  0  0  0  0  0  0  0  0  0  0
   12.9075    6.0177  -14.2824 H   0  0  0  0  0  0  0  0  0  0  0  0
   11.2652    4.2429  -14.9370 H   0  0  0  0  0  0  0  0  0  0  0  0
    7.8913    5.5297  -11.1337 H   0  0  0  0  0  0  0  0  0  0  0  0
    7.3255    6.5963  -12.4457 H   0  0  0  0  0  0  0  0  0  0  0  0
    8.6857    3.3657  -14.4343 H   0  0  0  0  0  0  0  0  0  0  0  0
    9.5752    8.7954   -8.7113 H   0  0  0  0  0  0  0  0  0  0  0  0
  2  1  1  0
  3  2  1  0
  4  3  1  0
  5  4  1  0
  6  5  1  0
  7  6  1  0
  8  4  1  0
  9  8  1  0
 10  9  1  0
 11 10  2  0
 12 11  1  0
 13 12  2  0
 14 13  1  0
 15 10  1  0
 15 14  2  0
 16 15  1  0
 17 16  1  0
 18 17  2  0
 19 14  1  0
 19 17  1  0
 20  1  1  0
 21  1  1  0
 22  1  1  0
 23  2  1  0
 24  2  1  0
 25  3  1  0
 26  3  1  0
 27  5  1  0
 28  5  1  0
 29  6  1  0
 30  6  1  0
 31  7  1  0
 32  7  1  0
 33  7  1  0
 34  8  1  0
 35  8  1  0
 36  9  1  0
 37  9  1  0
 38 11  1  0
 39 12  1  0
 40 13  1  0
 41 16  1  0
 42 16  1  0
 43 19  1  0
 44  4  1  0
M  CHG  1   4   1
M  END
>  <b_m_subgroup_collapsed>  (1537) 
0

>  <r_i_docking_score>  (1537) 
-5.1570793768738099

>  <s_m_subgroup_title>  (1537) 
glide-dock_SP_D22_pv

>  <s_m_subgroupid>  (1537) 
glide-dock_SP_D22_pv

>  <Molecule ChEMBL ID>  (1537) 
CHEMBL589

>  <Standard Type>  (1537) 
Ki

>  <Standard Value>  (1537) 
3.7

>  <label>  (1537) 
1

$$$$
CHEMBL201142
     RDKit          3D

 42 44  0  0  1  0  0  0  0  0999 V2000
    6.9482    7.6972  -12.9891 C   0  0  0  0  0  0  0  0  0  0  0  0
    7.7547    8.5019  -12.2841 C   0  0  0  0  0  0  0  0  0  0  0  0
    9.2412    8.3032  -12.0623 C   0  0  0  0  0  0  0  0  0  0  0  0
    9.7181    6.8986  -12.2469 N   0  0  1  0  0  0  0  0  0  0  0  0
   11.1647    6.8669  -12.6469 C   0  0  0  0  0  0  0  0  0  0  0  0
   11.6714    5.6271  -13.4467 C   0  0  0  0  0  0  0  0  0  0  0  0
   11.1361    5.4083  -14.8510 C   0  0  0  0  0  0  0  0  0  0  0  0
   11.6339    6.2541  -15.8669 C   0  0  0  0  0  0  0  0  0  0  0  0
   11.2323    6.0890  -17.2041 C   0  0  0  0  0  0  0  0  0  0  0  0
   10.3279    5.0675  -17.5394 C   0  0  0  0  0  0  0  0  0  0  0  0
    9.8524    4.1977  -16.5415 C   0  0  0  0  0  0  0  0  0  0  0  0
   10.2577    4.3416  -15.1954 C   0  0  0  0  0  0  0  0  0  0  0  0
    9.7616    3.2949  -14.1980 C   0  0  0  0  0  0  0  0  0  0  0  0
    8.4262    3.6368  -13.6024 C   0  0  0  0  0  0  0  0  0  0  0  0
    7.2050    3.2791  -14.2469 C   0  0  0  0  0  0  0  0  0  0  0  0
    6.0859    3.6741  -13.5736 C   0  0  0  0  0  0  0  0  0  0  0  0
    6.4969    4.4642  -12.0958 S   0  0  0  0  0  0  0  0  0  0  0  0
    8.2036    4.2398  -12.3847 C   0  0  0  0  0  0  0  0  0  0  0  0
    9.1838    4.5965  -11.3118 C   0  0  0  0  0  0  0  0  0  0  0  0
    9.3717    6.0931  -11.0452 C   0  0  0  0  0  0  0  0  0  0  0  0
    7.3257    6.8008  -13.4468 H   0  0  0  0  0  0  0  0  0  0  0  0
    5.8969    7.9214  -13.1001 H   0  0  0  0  0  0  0  0  0  0  0  0
    7.3248    9.3853  -11.8369 H   0  0  0  0  0  0  0  0  0  0  0  0
    9.6860    8.9725  -12.7906 H   0  0  0  0  0  0  0  0  0  0  0  0
    9.5198    8.6727  -11.0740 H   0  0  0  0  0  0  0  0  0  0  0  0
   11.3923    7.7353  -13.2663 H   0  0  0  0  0  0  0  0  0  0  0  0
   11.7734    6.9914  -11.7503 H   0  0  0  0  0  0  0  0  0  0  0  0
   12.7506    5.7417  -13.5576 H   0  0  0  0  0  0  0  0  0  0  0  0
   11.5844    4.7212  -12.8687 H   0  0  0  0  0  0  0  0  0  0  0  0
   12.3301    7.0440  -15.6236 H   0  0  0  0  0  0  0  0  0  0  0  0
   11.6123    6.7496  -17.9697 H   0  0  0  0  0  0  0  0  0  0  0  0
   10.0115    4.9406  -18.5644 H   0  0  0  0  0  0  0  0  0  0  0  0
    9.1813    3.3988  -16.8209 H   0  0  0  0  0  0  0  0  0  0  0  0
    9.6709    2.3516  -14.7392 H   0  0  0  0  0  0  0  0  0  0  0  0
   10.4988    3.0576  -13.4368 H   0  0  0  0  0  0  0  0  0  0  0  0
    7.1893    2.7564  -15.1921 H   0  0  0  0  0  0  0  0  0  0  0  0
    5.0504    3.5448  -13.8471 H   0  0  0  0  0  0  0  0  0  0  0  0
    8.8203    4.1723  -10.3768 H   0  0  0  0  0  0  0  0  0  0  0  0
   10.1276    4.0915  -11.4713 H   0  0  0  0  0  0  0  0  0  0  0  0
   10.1134    6.2482  -10.2605 H   0  0  0  0  0  0  0  0  0  0  0  0
    8.4305    6.4553  -10.6278 H   0  0  0  0  0  0  0  0  0  0  0  0
    9.1863    6.5240  -13.0203 H   0  0  0  0  0  0  0  0  0  0  0  0
  2  1  2  0
  3  2  1  0
  4  3  1  0
  5  4  1  0
  6  5  1  0
  7  6  1  0
  8  7  2  0
  9  8  1  0
 10  9  2  0
 11 10  1  0
 12  7  1  0
 12 11  2  0
 13 12  1  0
 14 13  1  0
 15 14  1  0
 16 15  2  0
 17 16  1  0
 18 14  2  0
 18 17  1  0
 19 18  1  0
 20  4  1  0
 20 19  1  0
 21  1  1  0
 22  1  1  0
 23  2  1  0
 24  3  1  0
 25  3  1  0
 26  5  1  0
 27  5  1  0
 28  6  1  0
 29  6  1  0
 30  8  1  0
 31  9  1  0
 32 10  1  0
 33 11  1  0
 34 13  1  0
 35 13  1  0
 36 15  1  0
 37 16  1  0
 38 19  1  0
 39 19  1  0
 40 20  1  0
 41 20  1  0
  4 42  1  6
M  CHG  1   4   1
M  END
>  <b_m_subgroup_collapsed>  (1538) 
0

>  <r_i_docking_score>  (1538) 
-5.1416338516111102

>  <s_m_subgroup_title>  (1538) 
glide-dock_SP_D22_pv

>  <s_m_subgroupid>  (1538) 
glide-dock_SP_D22_pv

>  <Molecule ChEMBL ID>  (1538) 
CHEMBL201142

>  <Standard Type>  (1538) 
Ki

>  <Standard Value>  (1538) 
10000.0

>  <label>  (1538) 
0

$$$$
CHEMBL1742470
     RDKit          3D

 54 55  0  0  1  0  0  0  0  0999 V2000
    5.3692    8.3362  -12.7265 C   0  0  0  0  0  0  0  0  0  0  0  0
    5.7230    6.8646  -12.6015 C   0  0  0  0  0  0  0  0  0  0  0  0
    7.2248    6.5719  -12.4813 C   0  0  0  0  0  0  0  0  0  0  0  0
    7.4704    5.3886  -11.6077 N   0  0  2  0  0  0  0  0  0  0  0  0
    8.8167    5.3112  -10.9364 C   0  0  0  0  0  0  0  0  0  0  0  0
    8.6333    5.0892   -9.4267 C   0  0  0  0  0  0  0  0  0  0  0  0
    9.7658    6.5098  -11.1627 C   0  0  0  0  0  0  0  0  0  0  0  0
    7.0237    4.0680  -12.1623 C   0  0  1  0  0  0  0  0  0  0  0  0
    5.5133    3.8267  -12.3009 C   0  0  0  0  0  0  0  0  0  0  0  0
    5.2830    2.4310  -12.4222 O   0  0  0  0  0  0  0  0  0  0  0  0
    5.9537    1.8017  -13.4470 C   0  0  0  0  0  0  0  0  0  0  0  0
    5.4556    0.5587  -13.8788 C   0  0  0  0  0  0  0  0  0  0  0  0
    6.0830   -0.1312  -14.9298 C   0  0  0  0  0  0  0  0  0  0  0  0
    7.2178    0.4207  -15.5496 C   0  0  0  0  0  0  0  0  0  0  0  0
    7.7583    1.6452  -15.1036 C   0  0  0  0  0  0  0  0  0  0  0  0
    8.9727    2.1805  -15.7988 C   0  0  0  0  0  0  0  0  0  0  0  0
    8.8946    2.5713  -16.9626 O   0  0  0  0  0  0  0  0  0  0  0  0
   10.0961    2.1960  -15.0602 N   0  0  0  0  0  0  0  0  0  0  0  0
   11.3938    2.7591  -15.4415 C   0  0  0  0  0  0  0  0  0  0  0  0
   11.3174    4.2845  -15.6244 C   0  0  0  0  0  0  0  0  0  0  0  0
   12.0051    2.0493  -16.6622 C   0  0  0  0  0  0  0  0  0  0  0  0
    7.1275    2.3458  -14.0390 C   0  0  0  0  0  0  0  0  0  0  0  0
    7.7002    3.6538  -13.4834 C   0  0  0  0  0  0  0  0  0  0  0  0
    4.4223    8.5731  -12.2480 H   0  0  0  0  0  0  0  0  0  0  0  0
    6.1123    8.9721  -12.2469 H   0  0  0  0  0  0  0  0  0  0  0  0
    5.2859    8.5722  -13.7846 H   0  0  0  0  0  0  0  0  0  0  0  0
    5.2857    6.3357  -13.4427 H   0  0  0  0  0  0  0  0  0  0  0  0
    5.2509    6.5130  -11.6873 H   0  0  0  0  0  0  0  0  0  0  0  0
    7.6747    7.4546  -12.0352 H   0  0  0  0  0  0  0  0  0  0  0  0
    7.7066    6.4701  -13.4488 H   0  0  0  0  0  0  0  0  0  0  0  0
    9.3504    4.4427  -11.3236 H   0  0  0  0  0  0  0  0  0  0  0  0
    9.5955    5.0058   -8.9201 H   0  0  0  0  0  0  0  0  0  0  0  0
    8.0876    5.9160   -8.9676 H   0  0  0  0  0  0  0  0  0  0  0  0
    8.0860    4.1725   -9.2166 H   0  0  0  0  0  0  0  0  0  0  0  0
   10.7258    6.3366  -10.6799 H   0  0  0  0  0  0  0  0  0  0  0  0
    9.9670    6.6792  -12.2205 H   0  0  0  0  0  0  0  0  0  0  0  0
    9.3775    7.4299  -10.7242 H   0  0  0  0  0  0  0  0  0  0  0  0
    7.2867    3.3724  -11.3755 H   0  0  0  0  0  0  0  0  0  0  0  0
    4.9628    4.2084  -11.4468 H   0  0  0  0  0  0  0  0  0  0  0  0
    5.0943    4.2854  -13.1934 H   0  0  0  0  0  0  0  0  0  0  0  0
    4.5736    0.1439  -13.4162 H   0  0  0  0  0  0  0  0  0  0  0  0
    5.6925   -1.0801  -15.2693 H   0  0  0  0  0  0  0  0  0  0  0  0
    7.6863   -0.1177  -16.3619 H   0  0  0  0  0  0  0  0  0  0  0  0
   10.0306    1.8095  -14.1281 H   0  0  0  0  0  0  0  0  0  0  0  0
   12.0596    2.5747  -14.5982 H   0  0  0  0  0  0  0  0  0  0  0  0
   12.3095    4.7047  -15.7937 H   0  0  0  0  0  0  0  0  0  0  0  0
   10.6947    4.5606  -16.4764 H   0  0  0  0  0  0  0  0  0  0  0  0
   10.9042    4.7679  -14.7382 H   0  0  0  0  0  0  0  0  0  0  0  0
   13.0128    2.4154  -16.8556 H   0  0  0  0  0  0  0  0  0  0  0  0
   12.0728    0.9735  -16.5027 H   0  0  0  0  0  0  0  0  0  0  0  0
   11.4235    2.2153  -17.5682 H   0  0  0  0  0  0  0  0  0  0  0  0
    8.7719    3.5628  -13.3215 H   0  0  0  0  0  0  0  0  0  0  0  0
    7.5530    4.4149  -14.2471 H   0  0  0  0  0  0  0  0  0  0  0  0
    6.8567    5.5754  -10.8219 H   0  0  0  0  0  0  0  0  0  0  0  0
  2  1  1  0
  3  2  1  0
  4  3  1  0
  5  4  1  0
  6  5  1  0
  7  5  1  0
  8  4  1  0
  9  8  1  0
 10  9  1  0
 11 10  1  0
 12 11  1  0
 13 12  2  0
 14 13  1  0
 15 14  2  0
 16 15  1  0
 17 16  2  0
 18 16  1  0
 19 18  1  0
 20 19  1  0
 21 19  1  0
 22 11  2  0
 22 15  1  0
 23  8  1  0
 23 22  1  0
 24  1  1  0
 25  1  1  0
 26  1  1  0
 27  2  1  0
 28  2  1  0
 29  3  1  0
 30  3  1  0
 31  5  1  0
 32  6  1  0
 33  6  1  0
 34  6  1  0
 35  7  1  0
 36  7  1  0
 37  7  1  0
  8 38  1  1
 39  9  1  0
 40  9  1  0
 41 12  1  0
 42 13  1  0
 43 14  1  0
 44 18  1  0
 45 19  1  0
 46 20  1  0
 47 20  1  0
 48 20  1  0
 49 21  1  0
 50 21  1  0
 51 21  1  0
 52 23  1  0
 53 23  1  0
  4 54  1  1
M  CHG  1   4   1
M  END
>  <b_m_subgroup_collapsed>  (1539) 
0

>  <r_i_docking_score>  (1539) 
-5.1391428317741203

>  <s_m_subgroup_title>  (1539) 
glide-dock_SP_D22_pv

>  <s_m_subgroupid>  (1539) 
glide-dock_SP_D22_pv

>  <Molecule ChEMBL ID>  (1539) 
CHEMBL1742470

>  <Standard Type>  (1539) 
Ki

>  <Standard Value>  (1539) 
50000.0

>  <label>  (1539) 
0

$$$$
CHEMBL1258988
     RDKit          3D

 54 58  0  0  1  0  0  0  0  0999 V2000
   13.1023   -0.4388  -19.3652 C   0  0  0  0  0  0  0  0  0  0  0  0
   12.1729   -0.3608  -18.2474 N   0  0  0  0  0  0  0  0  0  0  0  0
   12.0861    1.0191  -17.7704 C   0  0  0  0  0  0  0  0  0  0  0  0
   11.1287    1.1073  -16.5633 C   0  0  0  0  0  0  0  0  0  0  0  0
    9.7825    0.6075  -16.9503 N   0  0  0  0  0  0  0  0  0  0  0  0
    8.6676    0.7906  -15.9685 C   0  0  1  0  0  0  0  0  0  0  0  0
    8.7323    2.1372  -15.2047 C   0  0  0  0  0  0  0  0  0  0  0  0
    7.5834    2.5908  -14.2985 C   0  0  0  0  0  0  0  0  0  0  0  0
    7.6793    3.9287  -13.8469 C   0  0  0  0  0  0  0  0  0  0  0  0
    6.7041    4.4930  -13.0096 C   0  0  0  0  0  0  0  0  0  0  0  0
    5.6108    3.7168  -12.6065 C   0  0  0  0  0  0  0  0  0  0  0  0
    5.4959    2.3799  -13.0312 C   0  0  0  0  0  0  0  0  0  0  0  0
    6.4869    1.7975  -13.8469 C   0  0  0  0  0  0  0  0  0  0  0  0
    6.3712    0.0556  -14.1258 S   0  0  0  0  0  0  0  0  0  0  0  0
    6.2274    0.0727  -15.8676 C   0  0  0  0  0  0  0  0  0  0  0  0
    5.0237   -0.3212  -16.4766 C   0  0  0  0  0  0  0  0  0  0  0  0
    4.8859   -0.2260  -17.8729 C   0  0  0  0  0  0  0  0  0  0  0  0
    5.9247    0.3154  -18.6617 C   0  0  0  0  0  0  0  0  0  0  0  0
    5.7939    0.4250  -20.1231 C   0  0  0  0  0  0  0  0  0  0  0  0
    5.0670   -0.4785  -20.8389 N   0  0  0  0  0  0  0  0  0  0  0  0
    5.2861    0.0048  -22.0552 C   0  0  0  0  0  0  0  0  0  0  0  0
    6.0675    1.0897  -22.0785 N   0  0  0  0  0  0  0  0  0  0  0  0
    6.5270    1.9008  -23.1855 C   0  0  0  0  0  0  0  0  0  0  0  0
    6.4341    1.3725  -20.8082 N   0  0  0  0  0  0  0  0  0  0  0  0
    7.1182    0.7204  -18.0260 C   0  0  0  0  0  0  0  0  0  0  0  0
    7.3086    0.5424  -16.6355 C   0  0  0  0  0  0  0  0  0  0  0  0
    9.9129   -0.7890  -17.4443 C   0  0  0  0  0  0  0  0  0  0  0  0
   10.8475   -0.8144  -18.6603 C   0  0  0  0  0  0  0  0  0  0  0  0
   12.7736    0.1721  -20.2067 H   0  0  0  0  0  0  0  0  0  0  0  0
   14.0912   -0.0950  -19.0615 H   0  0  0  0  0  0  0  0  0  0  0  0
   13.2041   -1.4682  -19.7094 H   0  0  0  0  0  0  0  0  0  0  0  0
   11.7477    1.6768  -18.5735 H   0  0  0  0  0  0  0  0  0  0  0  0
   13.0756    1.3716  -17.4731 H   0  0  0  0  0  0  0  0  0  0  0  0
   11.0974    2.1526  -16.2575 H   0  0  0  0  0  0  0  0  0  0  0  0
   11.5113    0.5325  -15.7200 H   0  0  0  0  0  0  0  0  0  0  0  0
    8.8236    0.0032  -15.2289 H   0  0  0  0  0  0  0  0  0  0  0  0
    8.8532    2.9308  -15.9433 H   0  0  0  0  0  0  0  0  0  0  0  0
    9.6252    2.1561  -14.5777 H   0  0  0  0  0  0  0  0  0  0  0  0
    8.5159    4.5421  -14.1501 H   0  0  0  0  0  0  0  0  0  0  0  0
    6.7996    5.5145  -12.6668 H   0  0  0  0  0  0  0  0  0  0  0  0
    4.8856    4.1507  -11.9385 H   0  0  0  0  0  0  0  0  0  0  0  0
    4.6719    1.7811  -12.6771 H   0  0  0  0  0  0  0  0  0  0  0  0
    4.2058   -0.6945  -15.8776 H   0  0  0  0  0  0  0  0  0  0  0  0
    3.9631   -0.5453  -18.3368 H   0  0  0  0  0  0  0  0  0  0  0  0
    4.8855   -0.4464  -22.9508 H   0  0  0  0  0  0  0  0  0  0  0  0
    6.2002    1.4641  -24.1294 H   0  0  0  0  0  0  0  0  0  0  0  0
    6.1145    2.9079  -23.0998 H   0  0  0  0  0  0  0  0  0  0  0  0
    7.6168    1.9558  -23.1789 H   0  0  0  0  0  0  0  0  0  0  0  0
    7.9124    1.1108  -18.6429 H   0  0  0  0  0  0  0  0  0  0  0  0
   10.2938   -1.4323  -16.6497 H   0  0  0  0  0  0  0  0  0  0  0  0
    8.9514   -1.2074  -17.7417 H   0  0  0  0  0  0  0  0  0  0  0  0
   10.4582   -0.1906  -19.4674 H   0  0  0  0  0  0  0  0  0  0  0  0
   10.9091   -1.8275  -19.0464 H   0  0  0  0  0  0  0  0  0  0  0  0
    9.5217    1.1631  -17.7506 H   0  0  0  0  0  0  0  0  0  0  0  0
  2  1  1  0
  3  2  1  0
  4  3  1  0
  5  4  1  0
  6  5  1  0
  7  6  1  0
  8  7  1  0
  9  8  2  0
 10  9  1  0
 11 10  2  0
 12 11  1  0
 13  8  1  0
 13 12  2  0
 14 13  1  0
 15 14  1  0
 16 15  1  0
 17 16  2  0
 18 17  1  0
 19 18  1  0
 20 19  1  0
 21 20  2  0
 22 21  1  0
 23 22  1  0
 24 19  2  0
 24 22  1  0
 25 18  2  0
 26  6  1  0
 26 15  2  0
 26 25  1  0
 27  5  1  0
 28  2  1  0
 28 27  1  0
 29  1  1  0
 30  1  1  0
 31  1  1  0
 32  3  1  0
 33  3  1  0
 34  4  1  0
 35  4  1  0
  6 36  1  1
 37  7  1  0
 38  7  1  0
 39  9  1  0
 40 10  1  0
 41 11  1  0
 42 12  1  0
 43 16  1  0
 44 17  1  0
 45 21  1  0
 46 23  1  0
 47 23  1  0
 48 23  1  0
 49 25  1  0
 50 27  1  0
 51 27  1  0
 52 28  1  0
 53 28  1  0
 54  5  1  0
M  CHG  1   5   1
M  END
>  <b_m_subgroup_collapsed>  (1540) 
0

>  <r_i_docking_score>  (1540) 
-5.1365800580823198

>  <s_m_subgroup_title>  (1540) 
glide-dock_SP_D22_pv

>  <s_m_subgroupid>  (1540) 
glide-dock_SP_D22_pv

>  <Molecule ChEMBL ID>  (1540) 
CHEMBL1258988

>  <Standard Type>  (1540) 
Ki

>  <Standard Value>  (1540) 
5.9

>  <label>  (1540) 
1

$$$$
CHEMBL203734
     RDKit          3D

 45 47  0  0  1  0  0  0  0  0999 V2000
    6.1994   -0.0640  -17.9596 C   0  0  0  0  0  0  0  0  0  0  0  0
    6.4491    1.3250  -17.7942 O   0  0  0  0  0  0  0  0  0  0  0  0
    7.7587    1.6263  -17.5178 C   0  0  0  0  0  0  0  0  0  0  0  0
    8.6527    1.8806  -18.5722 C   0  0  0  0  0  0  0  0  0  0  0  0
    8.1192    1.8184  -20.2128 Cl  0  0  0  0  0  0  0  0  0  0  0  0
    9.9947    2.1735  -18.2896 C   0  0  0  0  0  0  0  0  0  0  0  0
   10.4604    2.2683  -16.9619 C   0  0  0  0  0  0  0  0  0  0  0  0
    9.5432    2.1040  -15.8778 C   0  0  0  0  0  0  0  0  0  0  0  0
    8.2015    1.7233  -16.1812 C   0  0  0  0  0  0  0  0  0  0  0  0
    7.0576    1.3232  -14.9431 Cl  0  0  0  0  0  0  0  0  0  0  0  0
    9.9656    2.2843  -14.4090 C   0  0  0  0  0  0  0  0  0  0  0  0
    9.7405    3.6902  -13.8204 C   0  0  0  0  0  0  0  0  0  0  0  0
    8.4343    4.0204  -13.3853 C   0  0  0  0  0  0  0  0  0  0  0  0
    8.1478    5.2408  -12.7491 C   0  0  0  0  0  0  0  0  0  0  0  0
    9.1746    6.1699  -12.5417 C   0  0  0  0  0  0  0  0  0  0  0  0
   10.4757    5.8761  -12.9840 C   0  0  0  0  0  0  0  0  0  0  0  0
   10.7771    4.6445  -13.6075 C   0  0  0  0  0  0  0  0  0  0  0  0
   12.2416    4.4144  -13.9587 C   0  0  0  0  0  0  0  0  0  0  0  0
   12.7116    5.2465  -15.1560 C   0  0  0  0  0  0  0  0  0  0  0  0
   11.9285    4.9678  -16.3880 N   0  0  1  0  0  0  0  0  0  0  0  0
   11.7388    6.2006  -17.1851 C   0  0  0  0  0  0  0  0  0  0  0  0
   12.4770    3.8572  -17.2113 C   0  0  0  0  0  0  0  0  0  0  0  0
   11.9661    2.4654  -16.7958 C   0  0  0  0  0  0  0  0  0  0  0  0
    5.1445   -0.2171  -18.1892 H   0  0  0  0  0  0  0  0  0  0  0  0
    6.4275   -0.6255  -17.0523 H   0  0  0  0  0  0  0  0  0  0  0  0
    6.7841   -0.4813  -18.7805 H   0  0  0  0  0  0  0  0  0  0  0  0
   10.6774    2.3154  -19.1156 H   0  0  0  0  0  0  0  0  0  0  0  0
    9.3784    1.5977  -13.8033 H   0  0  0  0  0  0  0  0  0  0  0  0
   10.9678    1.9150  -14.2246 H   0  0  0  0  0  0  0  0  0  0  0  0
    7.6229    3.3229  -13.4832 H   0  0  0  0  0  0  0  0  0  0  0  0
    7.1481    5.4540  -12.3979 H   0  0  0  0  0  0  0  0  0  0  0  0
    8.9626    7.1024  -12.0371 H   0  0  0  0  0  0  0  0  0  0  0  0
   11.2553    6.6040  -12.8150 H   0  0  0  0  0  0  0  0  0  0  0  0
   12.8386    4.7034  -13.0934 H   0  0  0  0  0  0  0  0  0  0  0  0
   12.4726    3.3727  -14.0994 H   0  0  0  0  0  0  0  0  0  0  0  0
   12.6125    6.2988  -14.8837 H   0  0  0  0  0  0  0  0  0  0  0  0
   13.7775    5.0994  -15.3328 H   0  0  0  0  0  0  0  0  0  0  0  0
   12.6988    6.5902  -17.5253 H   0  0  0  0  0  0  0  0  0  0  0  0
   11.2564    6.9713  -16.5847 H   0  0  0  0  0  0  0  0  0  0  0  0
   11.1106    6.0188  -18.0580 H   0  0  0  0  0  0  0  0  0  0  0  0
   12.2070    4.0093  -18.2571 H   0  0  0  0  0  0  0  0  0  0  0  0
   13.5677    3.8771  -17.1926 H   0  0  0  0  0  0  0  0  0  0  0  0
   12.3227    2.1756  -15.8183 H   0  0  0  0  0  0  0  0  0  0  0  0
   12.4494    1.7393  -17.4519 H   0  0  0  0  0  0  0  0  0  0  0  0
   11.0019    4.6904  -16.0884 H   0  0  0  0  0  0  0  0  0  0  0  0
  2  1  1  0
  3  2  1  0
  4  3  1  0
  5  4  1  0
  6  4  2  0
  7  6  1  0
  8  7  2  0
  9  3  2  0
  9  8  1  0
 10  9  1  0
 11  8  1  0
 12 11  1  0
 13 12  2  0
 14 13  1  0
 15 14  2  0
 16 15  1  0
 17 12  1  0
 17 16  2  0
 18 17  1  0
 19 18  1  0
 20 19  1  0
 21 20  1  0
 22 20  1  0
 23  7  1  0
 23 22  1  0
 24  1  1  0
 25  1  1  0
 26  1  1  0
 27  6  1  0
 28 11  1  0
 29 11  1  0
 30 13  1  0
 31 14  1  0
 32 15  1  0
 33 16  1  0
 34 18  1  0
 35 18  1  0
 36 19  1  0
 37 19  1  0
 38 21  1  0
 39 21  1  0
 40 21  1  0
 41 22  1  0
 42 22  1  0
 43 23  1  0
 44 23  1  0
 20 45  1  1
M  CHG  1  20   1
M  END
>  <b_m_subgroup_collapsed>  (1541) 
0

>  <r_i_docking_score>  (1541) 
-5.1237757167904396

>  <s_m_subgroup_title>  (1541) 
glide-dock_SP_D22_pv

>  <s_m_subgroupid>  (1541) 
glide-dock_SP_D22_pv

>  <Molecule ChEMBL ID>  (1541) 
CHEMBL203734

>  <Standard Type>  (1541) 
Ki

>  <Standard Value>  (1541) 
2.5

>  <label>  (1541) 
1

$$$$
CHEMBL2030624
     RDKit          3D

 40 42  0  0  1  0  0  0  0  0999 V2000
   11.0810    9.1200   -5.4997 C   0  0  0  0  0  0  0  0  0  0  0  0
   11.4829    8.8248   -6.8282 O   0  0  0  0  0  0  0  0  0  0  0  0
   10.7538    7.8995   -7.5466 C   0  0  0  0  0  0  0  0  0  0  0  0
    9.6078    7.2281   -7.0441 C   0  0  0  0  0  0  0  0  0  0  0  0
    8.9045    6.3010   -7.8407 C   0  0  0  0  0  0  0  0  0  0  0  0
    9.3475    6.0190   -9.1474 C   0  0  0  0  0  0  0  0  0  0  0  0
    8.6185    5.0404  -10.0490 C   0  0  0  0  0  0  0  0  0  0  0  0
    7.7521    5.7597  -11.0208 N   0  0  2  0  0  0  0  0  0  0  0  0
    6.8853    4.9469  -11.8854 C   0  0  1  0  0  0  0  0  0  0  0  0
    6.0671    6.0690  -12.5350 C   0  0  0  0  0  0  0  0  0  0  0  0
    7.1439    7.1558  -12.7423 C   0  0  0  0  0  0  0  0  0  0  0  0
    8.3829    6.5194  -12.1084 C   0  0  2  0  0  0  0  0  0  0  0  0
    8.9238    5.4317  -13.0590 C   0  0  0  0  0  0  0  0  0  0  0  0
    7.8400    4.3475  -12.9444 C   0  0  0  0  0  0  0  0  0  0  0  0
   10.4861    6.6719   -9.6377 C   0  0  0  0  0  0  0  0  0  0  0  0
   11.1830    7.6279   -8.8652 C   0  0  0  0  0  0  0  0  0  0  0  0
   12.2799    8.3016   -9.3569 O   0  0  0  0  0  0  0  0  0  0  0  0
   12.4627    8.2908  -10.7697 C   0  0  0  0  0  0  0  0  0  0  0  0
   11.7745    9.8430   -5.0704 H   0  0  0  0  0  0  0  0  0  0  0  0
   10.0869    9.5661   -5.4727 H   0  0  0  0  0  0  0  0  0  0  0  0
   11.0977    8.2330   -4.8647 H   0  0  0  0  0  0  0  0  0  0  0  0
    9.2391    7.4164   -6.0468 H   0  0  0  0  0  0  0  0  0  0  0  0
    8.0241    5.8145   -7.4452 H   0  0  0  0  0  0  0  0  0  0  0  0
    9.3433    4.4034  -10.5538 H   0  0  0  0  0  0  0  0  0  0  0  0
    8.0160    4.3770   -9.4325 H   0  0  0  0  0  0  0  0  0  0  0  0
    6.2652    4.2000  -11.3957 H   0  0  0  0  0  0  0  0  0  0  0  0
    5.5656    5.7532  -13.4472 H   0  0  0  0  0  0  0  0  0  0  0  0
    5.3002    6.4294  -11.8474 H   0  0  0  0  0  0  0  0  0  0  0  0
    6.8698    8.0886  -12.2509 H   0  0  0  0  0  0  0  0  0  0  0  0
    7.3316    7.3725  -13.7831 H   0  0  0  0  0  0  0  0  0  0  0  0
    9.1133    7.2710  -11.8129 H   0  0  0  0  0  0  0  0  0  0  0  0
    9.8894    5.0551  -12.7180 H   0  0  0  0  0  0  0  0  0  0  0  0
    9.0503    5.7724  -14.0863 H   0  0  0  0  0  0  0  0  0  0  0  0
    8.2813    3.4010  -12.6311 H   0  0  0  0  0  0  0  0  0  0  0  0
    7.3326    4.1676  -13.8936 H   0  0  0  0  0  0  0  0  0  0  0  0
   10.8077    6.4255  -10.6356 H   0  0  0  0  0  0  0  0  0  0  0  0
   13.2531    8.9703  -11.0726 H   0  0  0  0  0  0  0  0  0  0  0  0
   12.7518    7.3153  -11.1402 H   0  0  0  0  0  0  0  0  0  0  0  0
   11.5458    8.5719  -11.2862 H   0  0  0  0  0  0  0  0  0  0  0  0
    7.1694    6.4243  -10.5018 H   0  0  0  0  0  0  0  0  0  0  0  0
  2  1  1  0
  3  2  1  0
  4  3  1  0
  5  4  2  0
  6  5  1  0
  7  6  1  0
  8  7  1  0
  9  8  1  0
 10  9  1  0
 11 10  1  0
 12  8  1  0
 12 11  1  0
 13 12  1  0
 14  9  1  0
 14 13  1  0
 15  6  2  0
 16  3  2  0
 16 15  1  0
 17 16  1  0
 18 17  1  0
 19  1  1  0
 20  1  1  0
 21  1  1  0
 22  4  1  0
 23  5  1  0
 24  7  1  0
 25  7  1  0
  9 26  1  1
 27 10  1  0
 28 10  1  0
 29 11  1  0
 30 11  1  0
 12 31  1  1
 32 13  1  0
 33 13  1  0
 34 14  1  0
 35 14  1  0
 36 15  1  0
 37 18  1  0
 38 18  1  0
 39 18  1  0
  8 40  1  1
M  CHG  1   8   1
M  END
>  <b_m_subgroup_collapsed>  (1542) 
0

>  <r_i_docking_score>  (1542) 
-5.1136509824152601

>  <s_m_subgroup_title>  (1542) 
glide-dock_SP_D22_pv

>  <s_m_subgroupid>  (1542) 
glide-dock_SP_D22_pv

>  <Molecule ChEMBL ID>  (1542) 
CHEMBL2030624

>  <Standard Type>  (1542) 
Ki

>  <Standard Value>  (1542) 
10000.0

>  <label>  (1542) 
0

$$$$
CHEMBL5425944
     RDKit          3D

 59 62  0  0  1  0  0  0  0  0999 V2000
    9.9172    7.1971   -6.7868 Cl  0  0  0  0  0  0  0  0  0  0  0  0
   10.2757    7.3678   -8.4691 C   0  0  0  0  0  0  0  0  0  0  0  0
   11.0945    8.4351   -8.8819 C   0  0  0  0  0  0  0  0  0  0  0  0
   11.4390    8.5728  -10.2373 C   0  0  0  0  0  0  0  0  0  0  0  0
   10.9374    7.6651  -11.1859 C   0  0  0  0  0  0  0  0  0  0  0  0
   10.0875    6.6086  -10.7954 C   0  0  0  0  0  0  0  0  0  0  0  0
    9.5941    5.7120  -11.7574 N   0  0  0  0  0  0  0  0  0  0  0  0
    8.1861    5.8508  -12.0950 C   0  0  0  0  0  0  0  0  0  0  0  0
    7.6916    4.5310  -12.7030 C   0  0  0  0  0  0  0  0  0  0  0  0
    8.4838    4.1171  -13.8779 N   0  0  0  0  0  0  0  0  0  0  0  0
    8.0191    2.7773  -14.2308 C   0  0  0  0  0  0  0  0  0  0  0  0
    8.4368    2.2467  -15.6149 C   0  0  0  0  0  0  0  0  0  0  0  0
    7.8730    0.8288  -15.8355 C   0  0  0  0  0  0  0  0  0  0  0  0
    6.4665    0.8643  -15.5845 O   0  0  0  0  0  0  0  0  0  0  0  0
    5.7367   -0.3628  -15.3828 C   0  0  0  0  0  0  0  0  0  0  0  0
    5.6336   -1.1863  -16.6745 C   0  0  0  0  0  0  0  0  0  0  0  0
    5.2859   -2.5554  -16.6605 C   0  0  0  0  0  0  0  0  0  0  0  0
    5.0696   -3.2176  -17.8819 C   0  0  0  0  0  0  0  0  0  0  0  0
    5.1975   -2.4926  -19.0800 C   0  0  0  0  0  0  0  0  0  0  0  0
    5.5298   -1.1288  -18.9991 C   0  0  0  0  0  0  0  0  0  0  0  0
    5.7336   -0.4857  -17.8312 N   0  0  0  0  0  0  0  0  0  0  0  0
    4.3111    0.0492  -14.9816 C   0  0  0  0  0  0  0  0  0  0  0  0
    4.3071    0.9086  -13.7088 C   0  0  0  0  0  0  0  0  0  0  0  0
    4.8864    0.1726  -12.6453 O   0  0  0  0  0  0  0  0  0  0  0  0
    6.2207   -0.2261  -12.8976 C   0  0  0  0  0  0  0  0  0  0  0  0
    6.2692   -1.1145  -14.1381 C   0  0  0  0  0  0  0  0  0  0  0  0
    9.9049    4.0435  -13.5090 C   0  0  0  0  0  0  0  0  0  0  0  0
   10.3875    5.3868  -12.9369 C   0  0  0  0  0  0  0  0  0  0  0  0
    9.7825    6.4423   -9.4187 C   0  0  0  0  0  0  0  0  0  0  0  0
    8.8917    5.0603   -8.8765 Cl  0  0  0  0  0  0  0  0  0  0  0  0
   11.4789    9.1351   -8.1550 H   0  0  0  0  0  0  0  0  0  0  0  0
   12.0870    9.3765  -10.5521 H   0  0  0  0  0  0  0  0  0  0  0  0
   11.2153    7.7742  -12.2226 H   0  0  0  0  0  0  0  0  0  0  0  0
    8.0533    6.6705  -12.8029 H   0  0  0  0  0  0  0  0  0  0  0  0
    7.5980    6.0976  -11.2100 H   0  0  0  0  0  0  0  0  0  0  0  0
    6.6438    4.6380  -12.9834 H   0  0  0  0  0  0  0  0  0  0  0  0
    7.7362    3.7727  -11.9230 H   0  0  0  0  0  0  0  0  0  0  0  0
    6.9308    2.7797  -14.1921 H   0  0  0  0  0  0  0  0  0  0  0  0
    8.3662    2.0793  -13.4724 H   0  0  0  0  0  0  0  0  0  0  0  0
    9.5234    2.2122  -15.7036 H   0  0  0  0  0  0  0  0  0  0  0  0
    8.0861    2.9154  -16.4004 H   0  0  0  0  0  0  0  0  0  0  0  0
    8.3912    0.1521  -15.1580 H   0  0  0  0  0  0  0  0  0  0  0  0
    8.0770    0.4837  -16.8498 H   0  0  0  0  0  0  0  0  0  0  0  0
    5.1503   -3.1023  -15.7410 H   0  0  0  0  0  0  0  0  0  0  0  0
    4.7896   -4.2611  -17.8932 H   0  0  0  0  0  0  0  0  0  0  0  0
    5.0296   -2.9661  -20.0352 H   0  0  0  0  0  0  0  0  0  0  0  0
    5.6243   -0.5352  -19.8967 H   0  0  0  0  0  0  0  0  0  0  0  0
    3.8312    0.5676  -15.7981 H   0  0  0  0  0  0  0  0  0  0  0  0
    3.7010   -0.8402  -14.8127 H   0  0  0  0  0  0  0  0  0  0  0  0
    4.8579    1.8397  -13.8444 H   0  0  0  0  0  0  0  0  0  0  0  0
    3.2843    1.1807  -13.4471 H   0  0  0  0  0  0  0  0  0  0  0  0
    6.8458    0.6442  -13.0466 H   0  0  0  0  0  0  0  0  0  0  0  0
    6.6149   -0.7512  -12.0291 H   0  0  0  0  0  0  0  0  0  0  0  0
    5.6902   -2.0152  -13.9404 H   0  0  0  0  0  0  0  0  0  0  0  0
    7.2879   -1.4277  -14.2480 H   0  0  0  0  0  0  0  0  0  0  0  0
   10.0731    3.2593  -12.7686 H   0  0  0  0  0  0  0  0  0  0  0  0
   10.5019    3.7863  -14.3843 H   0  0  0  0  0  0  0  0  0  0  0  0
   10.2880    6.1710  -13.6871 H   0  0  0  0  0  0  0  0  0  0  0  0
   11.4428    5.3229  -12.6833 H   0  0  0  0  0  0  0  0  0  0  0  0
  2  1  1  0
  3  2  1  0
  4  3  2  0
  5  4  1  0
  6  5  2  0
  7  6  1  0
  8  7  1  0
  9  8  1  0
 10  9  1  0
 11 10  1  0
 12 11  1  0
 13 12  1  0
 14 13  1  0
 15 14  1  0
 16 15  1  0
 17 16  2  0
 18 17  1  0
 19 18  2  0
 20 19  1  0
 21 16  1  0
 21 20  2  0
 22 15  1  0
 23 22  1  0
 24 23  1  0
 25 24  1  0
 26 15  1  0
 26 25  1  0
 27 10  1  0
 28  7  1  0
 28 27  1  0
 29  2  2  0
 29  6  1  0
 30 29  1  0
 31  3  1  0
 32  4  1  0
 33  5  1  0
 34  8  1  0
 35  8  1  0
 36  9  1  0
 37  9  1  0
 38 11  1  0
 39 11  1  0
 40 12  1  0
 41 12  1  0
 42 13  1  0
 43 13  1  0
 44 17  1  0
 45 18  1  0
 46 19  1  0
 47 20  1  0
 48 22  1  0
 49 22  1  0
 50 23  1  0
 51 23  1  0
 52 25  1  0
 53 25  1  0
 54 26  1  0
 55 26  1  0
 56 27  1  0
 57 27  1  0
 58 28  1  0
 59 28  1  0
M  END
>  <b_m_subgroup_collapsed>  (1543) 
0

>  <r_i_docking_score>  (1543) 
-5.1056757457885

>  <s_m_subgroup_title>  (1543) 
glide-dock_SP_D22_pv

>  <s_m_subgroupid>  (1543) 
glide-dock_SP_D22_pv

>  <Molecule ChEMBL ID>  (1543) 
CHEMBL5425944

>  <Standard Type>  (1543) 
Ki

>  <Standard Value>  (1543) 
58.8

>  <label>  (1543) 
1

$$$$
CHEMBL4243036
     RDKit          3D

 65 70  0  0  1  0  0  0  0  0999 V2000
    4.0848   -0.2277  -13.4469 O   0  0  0  0  0  0  0  0  0  0  0  0
    5.1002    0.1723  -14.0056 C   0  0  0  0  0  0  0  0  0  0  0  0
    5.8620    1.2804  -13.6749 N   0  0  0  0  0  0  0  0  0  0  0  0
    6.9029    1.4258  -14.5813 C   0  0  0  0  0  0  0  0  0  0  0  0
    7.9266    2.3932  -14.6946 C   0  0  0  0  0  0  0  0  0  0  0  0
    8.0603    3.5109  -13.8468 N   0  0  0  0  0  0  0  0  0  0  0  0
    6.9505    3.9822  -13.0219 C   0  0  0  0  0  0  0  0  0  0  0  0
    7.1742    5.4383  -12.5889 C   0  0  0  0  0  0  0  0  0  0  0  0
    8.4698    5.6236  -11.9328 N   0  0  0  0  0  0  0  0  0  0  0  0
    8.6266    7.0546  -11.6768 C   0  0  0  0  0  0  0  0  0  0  0  0
    9.0231    7.3357  -10.2213 C   0  0  0  0  0  0  0  0  0  0  0  0
   10.5002    7.1285   -9.8891 C   0  0  1  0  0  0  0  0  0  0  0  0
   11.4560    7.7115  -10.9322 C   0  0  0  0  0  0  0  0  0  0  0  0
   12.6356    8.1822  -10.1206 C   0  0  0  0  0  0  0  0  0  0  0  0
   12.0105    8.6665   -8.8321 C   0  0  0  0  0  0  0  0  0  0  0  0
   10.8238    7.8226   -8.6326 N   0  0  0  0  0  0  0  0  0  0  0  0
   10.6058    6.9589   -7.1428 S   0  0  0  0  0  0  0  0  0  0  0  0
   11.6860    5.9749   -7.0469 O   0  0  0  0  0  0  0  0  0  0  0  0
    9.2026    6.5344   -7.0609 O   0  0  0  0  0  0  0  0  0  0  0  0
   10.8844    8.1764   -5.8868 C   0  0  0  0  0  0  0  0  0  0  0  0
   10.5953    9.5128   -6.1910 C   0  0  0  0  0  0  0  0  0  0  0  0
   10.8170   10.5228   -5.3336 N   0  0  0  0  0  0  0  0  0  0  0  0
   11.2860   10.1948   -4.1227 C   0  0  0  0  0  0  0  0  0  0  0  0
   11.6589    8.9281   -3.7281 C   0  0  0  0  0  0  0  0  0  0  0  0
   12.1959    8.7531   -2.4474 C   0  0  0  0  0  0  0  0  0  0  0  0
   12.4860    7.4595   -2.0268 C   0  0  0  0  0  0  0  0  0  0  0  0
   12.2245    6.3714   -2.8646 C   0  0  0  0  0  0  0  0  0  0  0  0
   11.6860    6.5723   -4.1473 C   0  0  0  0  0  0  0  0  0  0  0  0
   11.4233    7.8659   -4.6180 C   0  0  0  0  0  0  0  0  0  0  0  0
    9.5395    5.1690  -12.8260 C   0  0  0  0  0  0  0  0  0  0  0  0
    9.3536    3.6906  -13.1964 C   0  0  0  0  0  0  0  0  0  0  0  0
    8.8426    2.2005  -15.7620 C   0  0  0  0  0  0  0  0  0  0  0  0
    8.7200    1.1080  -16.6562 C   0  0  0  0  0  0  0  0  0  0  0  0
    7.6725    0.1725  -16.5113 C   0  0  0  0  0  0  0  0  0  0  0  0
    6.7750    0.3600  -15.4497 C   0  0  0  0  0  0  0  0  0  0  0  0
    5.6903   -0.3930  -15.1004 O   0  0  0  0  0  0  0  0  0  0  0  0
    5.6482    1.8935  -12.9036 H   0  0  0  0  0  0  0  0  0  0  0  0
    6.8535    3.3723  -12.1262 H   0  0  0  0  0  0  0  0  0  0  0  0
    6.0134    3.9183  -13.5756 H   0  0  0  0  0  0  0  0  0  0  0  0
    6.3775    5.7402  -11.9061 H   0  0  0  0  0  0  0  0  0  0  0  0
    7.1202    6.0982  -13.4469 H   0  0  0  0  0  0  0  0  0  0  0  0
    7.6861    7.5765  -11.8470 H   0  0  0  0  0  0  0  0  0  0  0  0
    9.3078    7.5232  -12.3852 H   0  0  0  0  0  0  0  0  0  0  0  0
    8.4128    6.7394   -9.5432 H   0  0  0  0  0  0  0  0  0  0  0  0
    8.7743    8.3776  -10.0141 H   0  0  0  0  0  0  0  0  0  0  0  0
   10.7069    6.0651   -9.7670 H   0  0  0  0  0  0  0  0  0  0  0  0
   10.9998    8.5723  -11.4169 H   0  0  0  0  0  0  0  0  0  0  0  0
   11.7447    7.0037  -11.7075 H   0  0  0  0  0  0  0  0  0  0  0  0
   13.2099    8.9245  -10.6661 H   0  0  0  0  0  0  0  0  0  0  0  0
   13.2860    7.3724   -9.8468 H   0  0  0  0  0  0  0  0  0  0  0  0
   11.6859    9.7000   -8.9453 H   0  0  0  0  0  0  0  0  0  0  0  0
   12.7050    8.6062   -7.9931 H   0  0  0  0  0  0  0  0  0  0  0  0
   10.1531    9.7789   -7.1369 H   0  0  0  0  0  0  0  0  0  0  0  0
   11.3919   10.9723   -3.3983 H   0  0  0  0  0  0  0  0  0  0  0  0
   12.3693    9.5927   -1.7879 H   0  0  0  0  0  0  0  0  0  0  0  0
   12.8860    7.3000   -1.0468 H   0  0  0  0  0  0  0  0  0  0  0  0
   12.4325    5.3731   -2.5145 H   0  0  0  0  0  0  0  0  0  0  0  0
   11.4615    5.7155   -4.7490 H   0  0  0  0  0  0  0  0  0  0  0  0
    9.5630    5.7722  -13.7351 H   0  0  0  0  0  0  0  0  0  0  0  0
   10.4979    5.2908  -12.3280 H   0  0  0  0  0  0  0  0  0  0  0  0
    9.4025    3.0713  -12.3003 H   0  0  0  0  0  0  0  0  0  0  0  0
   10.1771    3.3732  -13.8345 H   0  0  0  0  0  0  0  0  0  0  0  0
    9.6427    2.9083  -15.9205 H   0  0  0  0  0  0  0  0  0  0  0  0
    9.4316    0.9928  -17.4606 H   0  0  0  0  0  0  0  0  0  0  0  0
    7.5673   -0.6646  -17.1859 H   0  0  0  0  0  0  0  0  0  0  0  0
  2  1  2  0
  3  2  1  0
  4  3  1  0
  5  4  2  0
  6  5  1  0
  7  6  1  0
  8  7  1  0
  9  8  1  0
 10  9  1  0
 11 10  1  0
 12 11  1  0
 13 12  1  0
 14 13  1  0
 15 14  1  0
 16 12  1  0
 16 15  1  0
 17 16  1  0
 18 17  2  0
 19 17  2  0
 20 17  1  0
 21 20  1  0
 22 21  2  0
 23 22  1  0
 24 23  2  0
 25 24  1  0
 26 25  2  0
 27 26  1  0
 28 27  2  0
 29 20  2  0
 29 24  1  0
 29 28  1  0
 30  9  1  0
 31  6  1  0
 31 30  1  0
 32  5  1  0
 33 32  2  0
 34 33  1  0
 35  4  1  0
 35 34  2  0
 36  2  1  0
 36 35  1  0
 37  3  1  0
 38  7  1  0
 39  7  1  0
 40  8  1  0
 41  8  1  0
 42 10  1  0
 43 10  1  0
 44 11  1  0
 45 11  1  0
 12 46  1  1
 47 13  1  0
 48 13  1  0
 49 14  1  0
 50 14  1  0
 51 15  1  0
 52 15  1  0
 53 21  1  0
 54 23  1  0
 55 25  1  0
 56 26  1  0
 57 27  1  0
 58 28  1  0
 59 30  1  0
 60 30  1  0
 61 31  1  0
 62 31  1  0
 63 32  1  0
 64 33  1  0
 65 34  1  0
M  END
>  <b_m_subgroup_collapsed>  (1544) 
0

>  <r_i_docking_score>  (1544) 
-5.1034084158192101

>  <s_m_subgroup_title>  (1544) 
glide-dock_SP_D22_pv

>  <s_m_subgroupid>  (1544) 
glide-dock_SP_D22_pv

>  <Molecule ChEMBL ID>  (1544) 
CHEMBL4243036

>  <Standard Type>  (1544) 
Ki

>  <Standard Value>  (1544) 
12.0

>  <label>  (1544) 
1

$$$$
CHEMBL5191141
     RDKit          3D

 53 56  0  0  1  0  0  0  0  0999 V2000
    4.5641   -2.0030  -15.2963 H   0  0  0  0  0  0  0  0  0  0  0  0
    5.2870   -1.2006  -15.3470 C   0  0  0  0  0  0  0  0  0  0  0  0
    6.1198   -0.9244  -14.2453 C   0  0  0  0  0  0  0  0  0  0  0  0
    6.0777   -1.5233  -13.3489 H   0  0  0  0  0  0  0  0  0  0  0  0
    7.0704    0.1112  -14.3148 C   0  0  0  0  0  0  0  0  0  0  0  0
    7.6950    0.3152  -13.4588 H   0  0  0  0  0  0  0  0  0  0  0  0
    7.2135    0.8679  -15.4969 C   0  0  0  0  0  0  0  0  0  0  0  0
    8.2158    2.0103  -15.5673 C   0  0  2  0  0  0  0  0  0  0  0  0
    9.7051    1.5610  -15.5308 C   0  0  0  0  0  0  0  0  0  0  0  0
   10.4763    2.5960  -14.6642 C   0  0  1  0  0  0  0  0  0  0  0  0
   11.2995    3.5405  -15.4824 N   0  0  2  0  0  0  0  0  0  0  0  0
   12.1366    4.4549  -14.6669 C   0  0  0  0  0  0  0  0  0  0  0  0
   13.1110    5.2360  -15.5621 C   0  0  0  0  0  0  0  0  0  0  0  0
   12.3635    5.9974  -16.5649 N   0  0  0  0  0  0  0  0  0  0  0  0
   13.2978    6.8726  -17.2760 C   0  0  0  0  0  0  0  0  0  0  0  0
   14.0367    6.3038  -17.8420 H   0  0  0  0  0  0  0  0  0  0  0  0
   12.7805    7.5495  -17.9564 H   0  0  0  0  0  0  0  0  0  0  0  0
   13.8385    7.5014  -16.5659 H   0  0  0  0  0  0  0  0  0  0  0  0
   11.5317    5.1255  -17.4269 C   0  0  0  0  0  0  0  0  0  0  0  0
   10.6739    6.0030  -18.3658 C   0  0  0  0  0  0  0  0  0  0  0  0
   12.3714    4.1553  -18.2986 C   0  0  0  0  0  0  0  0  0  0  0  0
   10.5643    4.3318  -16.5070 C   0  0  0  0  0  0  0  0  0  0  0  0
    9.3731    3.2770  -13.8912 C   0  0  0  0  0  0  0  0  0  0  0  0
    9.5070    4.0676  -12.7360 C   0  0  0  0  0  0  0  0  0  0  0  0
    8.3437    4.5801  -12.1328 C   0  0  0  0  0  0  0  0  0  0  0  0
    8.4881    5.5021  -10.6835 Cl  0  0  0  0  0  0  0  0  0  0  0  0
    7.0674    4.3264  -12.6939 C   0  0  0  0  0  0  0  0  0  0  0  0
    6.9456    3.5085  -13.8403 C   0  0  0  0  0  0  0  0  0  0  0  0
    8.1186    2.9730  -14.4084 C   0  0  0  0  0  0  0  0  0  0  0  0
    6.3985    0.5705  -16.6089 C   0  0  0  0  0  0  0  0  0  0  0  0
    6.4966    1.1360  -17.5234 H   0  0  0  0  0  0  0  0  0  0  0  0
    5.4315   -0.4557  -16.5334 C   0  0  0  0  0  0  0  0  0  0  0  0
    4.8048   -0.6733  -17.3859 H   0  0  0  0  0  0  0  0  0  0  0  0
    8.0306    2.5742  -16.4790 H   0  0  0  0  0  0  0  0  0  0  0  0
   10.1324    1.3684  -16.5143 H   0  0  0  0  0  0  0  0  0  0  0  0
    9.7604    0.6141  -14.9923 H   0  0  0  0  0  0  0  0  0  0  0  0
   11.1318    2.0704  -13.9681 H   0  0  0  0  0  0  0  0  0  0  0  0
   11.5096    5.1642  -14.1233 H   0  0  0  0  0  0  0  0  0  0  0  0
   12.6955    3.8848  -13.9235 H   0  0  0  0  0  0  0  0  0  0  0  0
   13.6801    5.9250  -14.9352 H   0  0  0  0  0  0  0  0  0  0  0  0
   13.8381    4.5716  -16.0290 H   0  0  0  0  0  0  0  0  0  0  0  0
    9.9625    5.3961  -18.9318 H   0  0  0  0  0  0  0  0  0  0  0  0
   10.0952    6.7444  -17.8121 H   0  0  0  0  0  0  0  0  0  0  0  0
   11.2788    6.5348  -19.1035 H   0  0  0  0  0  0  0  0  0  0  0  0
   11.7231    3.5409  -18.9281 H   0  0  0  0  0  0  0  0  0  0  0  0
   13.0384    4.6901  -18.9780 H   0  0  0  0  0  0  0  0  0  0  0  0
   12.9825    3.4681  -17.7148 H   0  0  0  0  0  0  0  0  0  0  0  0
    9.9590    3.6736  -17.1320 H   0  0  0  0  0  0  0  0  0  0  0  0
    9.8702    5.0141  -16.0119 H   0  0  0  0  0  0  0  0  0  0  0  0
   10.4760    4.2574  -12.2957 H   0  0  0  0  0  0  0  0  0  0  0  0
    6.1839    4.7331  -12.2184 H   0  0  0  0  0  0  0  0  0  0  0  0
    5.9736    3.2782  -14.2522 H   0  0  0  0  0  0  0  0  0  0  0  0
   11.9498    2.9621  -15.9927 H   0  0  0  0  0  0  0  0  0  0  0  0
  2  1  1  0
  3  2  2  0
  4  3  1  0
  5  3  1  0
  6  5  1  0
  7  5  2  0
  8  7  1  0
  9  8  1  0
 10  9  1  0
 11 10  1  0
 12 11  1  0
 13 12  1  0
 14 13  1  0
 15 14  1  0
 16 15  1  0
 17 15  1  0
 18 15  1  0
 19 14  1  0
 20 19  1  0
 21 19  1  0
 22 11  1  0
 22 19  1  0
 23 10  1  0
 24 23  1  0
 25 24  2  0
 26 25  1  0
 27 25  1  0
 28 27  2  0
 29  8  1  0
 29 23  2  0
 29 28  1  0
 30  7  1  0
 31 30  1  0
 32  2  1  0
 32 30  2  0
 33 32  1  0
  8 34  1  6
 35  9  1  0
 36  9  1  0
 10 37  1  1
 38 12  1  0
 39 12  1  0
 40 13  1  0
 41 13  1  0
 42 20  1  0
 43 20  1  0
 44 20  1  0
 45 21  1  0
 46 21  1  0
 47 21  1  0
 48 22  1  0
 49 22  1  0
 50 24  1  0
 51 27  1  0
 52 28  1  0
 11 53  1  6
M  ISO  8   1   2   4   2   6   2  16   2  17   2  18   2  31   2  33   2
M  CHG  1  11   1
M  END
>  <b_m_subgroup_collapsed>  (1545) 
0

>  <r_i_docking_score>  (1545) 
-5.1014541345417896

>  <s_m_subgroup_title>  (1545) 
glide-dock_SP_D22_pv

>  <s_m_subgroupid>  (1545) 
glide-dock_SP_D22_pv

>  <Molecule ChEMBL ID>  (1545) 
CHEMBL5191141

>  <Standard Type>  (1545) 
Ki

>  <Standard Value>  (1545) 
4.1

>  <label>  (1545) 
1

$$$$
CHEMBL392377
     RDKit          3D

 72 75  0  0  1  0  0  0  0  0999 V2000
   10.0996    6.3318   -8.4859 C   0  0  0  0  0  0  0  0  0  0  0  0
   10.3926    7.3529   -9.6069 C   0  0  0  0  0  0  0  0  0  0  0  0
    9.4762    8.5827   -9.6270 C   0  0  0  0  0  0  0  0  0  0  0  0
   10.6145    6.8067  -10.9100 O   0  0  0  0  0  0  0  0  0  0  0  0
    9.6859    6.0548  -11.6161 C   0  0  0  0  0  0  0  0  0  0  0  0
    8.3858    5.7737  -11.1318 C   0  0  0  0  0  0  0  0  0  0  0  0
    7.4822    4.9829  -11.8619 C   0  0  0  0  0  0  0  0  0  0  0  0
    7.8547    4.4710  -13.1114 C   0  0  0  0  0  0  0  0  0  0  0  0
    9.1392    4.7388  -13.6134 C   0  0  0  0  0  0  0  0  0  0  0  0
   10.0719    5.5162  -12.8823 C   0  0  0  0  0  0  0  0  0  0  0  0
   11.3502    5.7260  -13.4467 N   0  0  0  0  0  0  0  0  0  0  0  0
   12.0608    4.6455  -14.1179 C   0  0  0  0  0  0  0  0  0  0  0  0
   12.5261    5.1068  -15.5086 C   0  0  0  0  0  0  0  0  0  0  0  0
   13.3228    6.3662  -15.4242 N   0  0  0  0  0  0  0  0  0  0  0  0
   13.9089    6.8433  -16.7180 C   0  0  1  0  0  0  0  0  0  0  0  0
   14.9322    5.8450  -17.3244 C   0  0  0  0  0  0  0  0  0  0  0  0
   15.5310    6.3641  -18.6481 C   0  0  0  0  0  0  0  0  0  0  0  0
   14.4108    6.7116  -19.6443 C   0  0  2  0  0  0  0  0  0  0  0  0
   14.9481    7.1903  -20.9193 N   0  0  0  0  0  0  0  0  0  0  0  0
   14.2721    6.5823  -22.3888 S   0  0  0  0  0  0  0  0  0  0  0  0
   14.9019    7.3171  -23.4965 O   0  0  0  0  0  0  0  0  0  0  0  0
   14.3416    5.1133  -22.3253 O   0  0  0  0  0  0  0  0  0  0  0  0
   12.5555    7.0787  -22.2566 C   0  0  0  0  0  0  0  0  0  0  0  0
   12.1672    8.3708  -22.6544 C   0  0  0  0  0  0  0  0  0  0  0  0
   10.8310    8.7781  -22.4724 C   0  0  0  0  0  0  0  0  0  0  0  0
    9.8792    7.9175  -21.8859 C   0  0  0  0  0  0  0  0  0  0  0  0
    8.6023    8.4197  -21.7109 O   0  0  0  0  0  0  0  0  0  0  0  0
    7.6359    7.6936  -21.0840 C   0  0  0  0  0  0  0  0  0  0  0  0
    6.5011    8.4289  -20.9964 F   0  0  0  0  0  0  0  0  0  0  0  0
    7.3255    6.5660  -21.7689 F   0  0  0  0  0  0  0  0  0  0  0  0
    7.9923    7.3680  -19.8156 F   0  0  0  0  0  0  0  0  0  0  0  0
   10.2811    6.6104  -21.5122 C   0  0  0  0  0  0  0  0  0  0  0  0
   11.6138    6.1903  -21.7025 C   0  0  0  0  0  0  0  0  0  0  0  0
   13.4776    7.7719  -19.0415 C   0  0  0  0  0  0  0  0  0  0  0  0
   12.8357    7.2446  -17.7582 C   0  0  0  0  0  0  0  0  0  0  0  0
   12.5984    7.4452  -14.6895 C   0  0  0  0  0  0  0  0  0  0  0  0
   12.0657    6.9890  -13.3216 C   0  0  0  0  0  0  0  0  0  0  0  0
   10.2159    6.8039   -7.5095 H   0  0  0  0  0  0  0  0  0  0  0  0
    9.0963    5.9128   -8.4998 H   0  0  0  0  0  0  0  0  0  0  0  0
   10.8057    5.5010   -8.5271 H   0  0  0  0  0  0  0  0  0  0  0  0
   11.3771    7.7493   -9.3534 H   0  0  0  0  0  0  0  0  0  0  0  0
    9.3429    8.9928   -8.6254 H   0  0  0  0  0  0  0  0  0  0  0  0
    9.8978    9.3715  -10.2471 H   0  0  0  0  0  0  0  0  0  0  0  0
    8.4886    8.3579  -10.0226 H   0  0  0  0  0  0  0  0  0  0  0  0
    8.0246    6.1723  -10.2032 H   0  0  0  0  0  0  0  0  0  0  0  0
    6.4998    4.7910  -11.4493 H   0  0  0  0  0  0  0  0  0  0  0  0
    7.1562    3.8797  -13.6853 H   0  0  0  0  0  0  0  0  0  0  0  0
    9.3977    4.3460  -14.5841 H   0  0  0  0  0  0  0  0  0  0  0  0
   12.9239    4.3838  -13.5073 H   0  0  0  0  0  0  0  0  0  0  0  0
   11.4639    3.7367  -14.1933 H   0  0  0  0  0  0  0  0  0  0  0  0
   13.1066    4.3004  -15.9552 H   0  0  0  0  0  0  0  0  0  0  0  0
   11.6492    5.2584  -16.1388 H   0  0  0  0  0  0  0  0  0  0  0  0
   14.4745    7.7504  -16.4845 H   0  0  0  0  0  0  0  0  0  0  0  0
   15.7333    5.6485  -16.6111 H   0  0  0  0  0  0  0  0  0  0  0  0
   14.4621    4.8844  -17.5291 H   0  0  0  0  0  0  0  0  0  0  0  0
   16.1889    5.6082  -19.0760 H   0  0  0  0  0  0  0  0  0  0  0  0
   16.1477    7.2416  -18.4559 H   0  0  0  0  0  0  0  0  0  0  0  0
   13.8390    5.8021  -19.8334 H   0  0  0  0  0  0  0  0  0  0  0  0
   15.9656    7.1647  -20.9475 H   0  0  0  0  0  0  0  0  0  0  0  0
   12.8914    9.0519  -23.0764 H   0  0  0  0  0  0  0  0  0  0  0  0
   10.5350    9.7723  -22.7746 H   0  0  0  0  0  0  0  0  0  0  0  0
    9.5910    5.9121  -21.0650 H   0  0  0  0  0  0  0  0  0  0  0  0
   11.9121    5.1992  -21.3953 H   0  0  0  0  0  0  0  0  0  0  0  0
   12.6914    8.0527  -19.7419 H   0  0  0  0  0  0  0  0  0  0  0  0
   14.0326    8.6886  -18.8317 H   0  0  0  0  0  0  0  0  0  0  0  0
   12.1926    6.4001  -18.0074 H   0  0  0  0  0  0  0  0  0  0  0  0
   12.1879    8.0297  -17.3755 H   0  0  0  0  0  0  0  0  0  0  0  0
   13.2545    8.3090  -14.5568 H   0  0  0  0  0  0  0  0  0  0  0  0
   11.7437    7.7727  -15.2801 H   0  0  0  0  0  0  0  0  0  0  0  0
   11.4120    7.7672  -12.9311 H   0  0  0  0  0  0  0  0  0  0  0  0
   12.8808    6.8645  -12.6113 H   0  0  0  0  0  0  0  0  0  0  0  0
   14.1085    6.1452  -14.8225 H   0  0  0  0  0  0  0  0  0  0  0  0
  2  1  1  0
  3  2  1  0
  4  2  1  0
  5  4  1  0
  6  5  2  0
  7  6  1  0
  8  7  2  0
  9  8  1  0
 10  5  1  0
 10  9  2  0
 11 10  1  0
 12 11  1  0
 13 12  1  0
 14 13  1  0
 15 14  1  0
 16 15  1  0
 17 16  1  0
 18 17  1  0
 19 18  1  0
 20 19  1  0
 21 20  2  0
 22 20  2  0
 23 20  1  0
 24 23  1  0
 25 24  2  0
 26 25  1  0
 27 26  1  0
 28 27  1  0
 29 28  1  0
 30 28  1  0
 31 28  1  0
 32 26  2  0
 33 23  2  0
 33 32  1  0
 34 18  1  0
 35 15  1  0
 35 34  1  0
 36 14  1  0
 37 11  1  0
 37 36  1  0
 38  1  1  0
 39  1  1  0
 40  1  1  0
 41  2  1  0
 42  3  1  0
 43  3  1  0
 44  3  1  0
 45  6  1  0
 46  7  1  0
 47  8  1  0
 48  9  1  0
 49 12  1  0
 50 12  1  0
 51 13  1  0
 52 13  1  0
 15 53  1  1
 54 16  1  0
 55 16  1  0
 56 17  1  0
 57 17  1  0
 18 58  1  6
 59 19  1  0
 60 24  1  0
 61 25  1  0
 62 32  1  0
 63 33  1  0
 64 34  1  0
 65 34  1  0
 66 35  1  0
 67 35  1  0
 68 36  1  0
 69 36  1  0
 70 37  1  0
 71 37  1  0
 72 14  1  0
M  CHG  1  14   1
M  END
>  <b_m_subgroup_collapsed>  (1546) 
0

>  <r_i_docking_score>  (1546) 
-5.06539151302968

>  <s_m_subgroup_title>  (1546) 
glide-dock_SP_D22_pv

>  <s_m_subgroupid>  (1546) 
glide-dock_SP_D22_pv

>  <Molecule ChEMBL ID>  (1546) 
CHEMBL392377

>  <Standard Type>  (1546) 
Ki

>  <Standard Value>  (1546) 
58.0

>  <label>  (1546) 
1

$$$$
CHEMBL5091479
     RDKit          3D

 38 40  0  0  1  0  0  0  0  0999 V2000
    5.9090    4.2996  -11.8471 C   0  0  0  0  0  0  0  0  0  0  0  0
    6.9742    5.2878  -11.5727 N   0  0  2  0  0  0  0  0  0  0  0  0
    6.9523    6.4846  -12.4150 C   0  0  0  0  0  0  0  0  0  0  0  0
    8.3135    7.1381  -12.1650 C   0  0  0  0  0  0  0  0  0  0  0  0
    9.2793    6.0135  -11.6853 C   0  0  0  0  0  0  0  0  0  0  0  0
   10.4861    5.8293  -12.6470 C   0  0  0  0  0  0  0  0  0  0  0  0
   11.2576    6.9437  -13.0479 C   0  0  0  0  0  0  0  0  0  0  0  0
   12.2587    6.8379  -14.0306 C   0  0  0  0  0  0  0  0  0  0  0  0
   12.5315    5.5928  -14.6210 C   0  0  0  0  0  0  0  0  0  0  0  0
   11.8234    4.4557  -14.2006 C   0  0  0  0  0  0  0  0  0  0  0  0
   10.8173    4.5723  -13.2223 C   0  0  0  0  0  0  0  0  0  0  0  0
    9.6860    6.3413  -10.2156 C   0  0  0  0  0  0  0  0  0  0  0  0
    8.9780    5.7973   -9.1098 C   0  0  0  0  0  0  0  0  0  0  0  0
    9.2812    6.1727   -7.7877 C   0  0  0  0  0  0  0  0  0  0  0  0
   10.3133    7.0856   -7.5228 C   0  0  0  0  0  0  0  0  0  0  0  0
   11.0330    7.6367   -8.5935 C   0  0  0  0  0  0  0  0  0  0  0  0
   10.7174    7.2734   -9.9165 C   0  0  0  0  0  0  0  0  0  0  0  0
    8.3367    4.7807  -11.7685 C   0  0  0  0  0  0  0  0  0  0  0  0
    5.8592    4.0441  -12.9063 H   0  0  0  0  0  0  0  0  0  0  0  0
    6.0852    3.3791  -11.2878 H   0  0  0  0  0  0  0  0  0  0  0  0
    4.9412    4.6929  -11.5387 H   0  0  0  0  0  0  0  0  0  0  0  0
    6.0978    7.1395  -12.2469 H   0  0  0  0  0  0  0  0  0  0  0  0
    6.9156    6.1472  -13.4466 H   0  0  0  0  0  0  0  0  0  0  0  0
    8.2200    7.9280  -11.4241 H   0  0  0  0  0  0  0  0  0  0  0  0
    8.6321    7.6602  -13.0469 H   0  0  0  0  0  0  0  0  0  0  0  0
   11.0032    7.9182  -12.6792 H   0  0  0  0  0  0  0  0  0  0  0  0
   12.8039    7.7149  -14.3471 H   0  0  0  0  0  0  0  0  0  0  0  0
   13.2991    5.5077  -15.3762 H   0  0  0  0  0  0  0  0  0  0  0  0
   12.0485    3.4912  -14.6324 H   0  0  0  0  0  0  0  0  0  0  0  0
   10.3153    3.6616  -12.9343 H   0  0  0  0  0  0  0  0  0  0  0  0
    8.1579    5.1088   -9.2300 H   0  0  0  0  0  0  0  0  0  0  0  0
    8.7005    5.7726   -6.9712 H   0  0  0  0  0  0  0  0  0  0  0  0
   10.5407    7.3696   -6.5059 H   0  0  0  0  0  0  0  0  0  0  0  0
   11.8234    8.3490   -8.4032 H   0  0  0  0  0  0  0  0  0  0  0  0
   11.2993    7.7545  -10.6783 H   0  0  0  0  0  0  0  0  0  0  0  0
    8.3153    4.3571  -12.7738 H   0  0  0  0  0  0  0  0  0  0  0  0
    8.6219    3.9771  -11.0963 H   0  0  0  0  0  0  0  0  0  0  0  0
    6.8767    5.6075  -10.6154 H   0  0  0  0  0  0  0  0  0  0  0  0
  2  1  1  0
  3  2  1  0
  4  3  1  0
  5  4  1  0
  6  5  1  0
  7  6  2  0
  8  7  1  0
  9  8  2  0
 10  9  1  0
 11  6  1  0
 11 10  2  0
 12  5  1  0
 13 12  2  0
 14 13  1  0
 15 14  2  0
 16 15  1  0
 17 12  1  0
 17 16  2  0
 18  2  1  0
 18  5  1  0
 19  1  1  0
 20  1  1  0
 21  1  1  0
 22  3  1  0
 23  3  1  0
 24  4  1  0
 25  4  1  0
 26  7  1  0
 27  8  1  0
 28  9  1  0
 29 10  1  0
 30 11  1  0
 31 13  1  0
 32 14  1  0
 33 15  1  0
 34 16  1  0
 35 17  1  0
 36 18  1  0
 37 18  1  0
  2 38  1  1
M  CHG  1   2   1
M  END
>  <b_m_subgroup_collapsed>  (1547) 
0

>  <r_i_docking_score>  (1547) 
-5.0611802310071399

>  <s_m_subgroup_title>  (1547) 
glide-dock_SP_D22_pv

>  <s_m_subgroupid>  (1547) 
glide-dock_SP_D22_pv

>  <Molecule ChEMBL ID>  (1547) 
CHEMBL5091479

>  <Standard Type>  (1547) 
Ki

>  <Standard Value>  (1547) 
100000.0

>  <label>  (1547) 
0

$$$$
CHEMBL5990865
     RDKit          3D

 64 67  0  0  1  0  0  0  0  0999 V2000
   12.1293    7.6469   -3.6048 C   0  0  0  0  0  0  0  0  0  0  0  0
   11.8573    9.0583   -4.1449 C   0  0  0  0  0  0  0  0  0  0  0  0
   12.9689    9.7724   -3.9835 F   0  0  0  0  0  0  0  0  0  0  0  0
   10.8861    9.6331   -3.4425 F   0  0  0  0  0  0  0  0  0  0  0  0
   11.4762    9.0907   -5.6313 C   0  0  0  0  0  0  0  0  0  0  0  0
   10.4853    8.1023   -5.8872 O   0  0  0  0  0  0  0  0  0  0  0  0
   10.2196    7.8167   -7.1788 C   0  0  0  0  0  0  0  0  0  0  0  0
    9.6528    6.6864   -7.6113 N   0  0  0  0  0  0  0  0  0  0  0  0
    9.5081    6.7026   -9.0007 C   0  0  0  0  0  0  0  0  0  0  0  0
    9.9591    7.8411   -9.6024 C   0  0  0  0  0  0  0  0  0  0  0  0
   10.6204    8.9721   -8.4653 S   0  0  0  0  0  0  0  0  0  0  0  0
    9.9214    8.0195  -11.0763 C   0  0  0  0  0  0  0  0  0  0  0  0
    9.9183    6.6537  -11.7906 C   0  0  0  0  0  0  0  0  0  0  0  0
    8.8775    5.7531  -11.2712 N   0  0  0  0  0  0  0  0  0  0  0  0
    8.8488    4.4475  -11.9365 C   0  0  0  0  0  0  0  0  0  0  0  0
    8.9090    4.5165  -13.4761 C   0  0  0  0  0  0  0  0  0  0  0  0
    8.8961    3.1292  -14.1321 C   0  0  1  0  0  0  0  0  0  0  0  0
    7.4667    2.6324  -14.4088 C   0  0  0  0  0  0  0  0  0  0  0  0
    7.4864    1.2241  -15.0405 C   0  0  0  0  0  0  0  0  0  0  0  0
    8.3776    1.1580  -16.2987 C   0  0  2  0  0  0  0  0  0  0  0  0
    8.5066   -0.2269  -16.7544 N   0  0  0  0  0  0  0  0  0  0  0  0
    8.5763   -0.6061  -18.4327 S   0  0  0  0  0  0  0  0  0  0  0  0
    8.8272   -2.0494  -18.5410 O   0  0  0  0  0  0  0  0  0  0  0  0
    9.4760    0.3608  -19.0777 O   0  0  0  0  0  0  0  0  0  0  0  0
    6.9021   -0.2991  -18.9816 C   0  0  0  0  0  0  0  0  0  0  0  0
    5.8087   -0.7504  -18.2142 C   0  0  0  0  0  0  0  0  0  0  0  0
    4.4967   -0.4768  -18.6509 C   0  0  0  0  0  0  0  0  0  0  0  0
    4.2893    0.2423  -19.8450 C   0  0  0  0  0  0  0  0  0  0  0  0
    5.3877    0.6863  -20.6069 C   0  0  0  0  0  0  0  0  0  0  0  0
    5.1866    1.3722  -21.7562 F   0  0  0  0  0  0  0  0  0  0  0  0
    6.6975    0.4218  -20.1737 C   0  0  0  0  0  0  0  0  0  0  0  0
    9.7838    1.7177  -16.0331 C   0  0  0  0  0  0  0  0  0  0  0  0
    9.7175    3.1252  -15.4356 C   0  0  0  0  0  0  0  0  0  0  0  0
    9.0409    5.5381   -9.8199 C   0  0  0  0  0  0  0  0  0  0  0  0
   12.4618    7.6791   -2.5670 H   0  0  0  0  0  0  0  0  0  0  0  0
   11.2447    7.0137   -3.6490 H   0  0  0  0  0  0  0  0  0  0  0  0
   12.8984    7.1519   -4.1913 H   0  0  0  0  0  0  0  0  0  0  0  0
   12.3663    8.9000   -6.2335 H   0  0  0  0  0  0  0  0  0  0  0  0
   11.1091   10.0852   -5.8952 H   0  0  0  0  0  0  0  0  0  0  0  0
    9.0289    8.5852  -11.3506 H   0  0  0  0  0  0  0  0  0  0  0  0
   10.7844    8.5815  -11.4254 H   0  0  0  0  0  0  0  0  0  0  0  0
   10.8868    6.1725  -11.6974 H   0  0  0  0  0  0  0  0  0  0  0  0
    9.7628    6.8547  -12.8455 H   0  0  0  0  0  0  0  0  0  0  0  0
    7.9431    3.9283  -11.6265 H   0  0  0  0  0  0  0  0  0  0  0  0
    9.6895    3.8387  -11.5963 H   0  0  0  0  0  0  0  0  0  0  0  0
    9.8417    4.9912  -13.7753 H   0  0  0  0  0  0  0  0  0  0  0  0
    8.1082    5.1442  -13.8685 H   0  0  0  0  0  0  0  0  0  0  0  0
    9.3775    2.4276  -13.4474 H   0  0  0  0  0  0  0  0  0  0  0  0
    6.8970    2.5991  -13.4785 H   0  0  0  0  0  0  0  0  0  0  0  0
    6.9560    3.3600  -15.0461 H   0  0  0  0  0  0  0  0  0  0  0  0
    6.4707    0.9116  -15.2868 H   0  0  0  0  0  0  0  0  0  0  0  0
    7.8525    0.5115  -14.2966 H   0  0  0  0  0  0  0  0  0  0  0  0
    7.9050    1.7462  -17.0891 H   0  0  0  0  0  0  0  0  0  0  0  0
    8.0165   -0.9270  -16.1916 H   0  0  0  0  0  0  0  0  0  0  0  0
    5.9688   -1.3047  -17.3010 H   0  0  0  0  0  0  0  0  0  0  0  0
    3.6483   -0.8188  -18.0732 H   0  0  0  0  0  0  0  0  0  0  0  0
    3.2863    0.4542  -20.1824 H   0  0  0  0  0  0  0  0  0  0  0  0
    7.5375    0.7683  -20.7595 H   0  0  0  0  0  0  0  0  0  0  0  0
   10.3208    1.0578  -15.3478 H   0  0  0  0  0  0  0  0  0  0  0  0
   10.3637    1.7387  -16.9561 H   0  0  0  0  0  0  0  0  0  0  0  0
   10.7333    3.4723  -15.2483 H   0  0  0  0  0  0  0  0  0  0  0  0
    9.2778    3.8163  -16.1566 H   0  0  0  0  0  0  0  0  0  0  0  0
    8.0884    5.1751   -9.4300 H   0  0  0  0  0  0  0  0  0  0  0  0
    9.7536    4.7295   -9.6553 H   0  0  0  0  0  0  0  0  0  0  0  0
  2  1  1  0
  3  2  1  0
  4  2  1  0
  5  2  1  0
  6  5  1  0
  7  6  1  0
  8  7  2  0
  9  8  1  0
 10  9  2  0
 11  7  1  0
 11 10  1  0
 12 10  1  0
 13 12  1  0
 14 13  1  0
 15 14  1  0
 16 15  1  0
 17 16  1  0
 18 17  1  0
 19 18  1  0
 20 19  1  0
 21 20  1  0
 22 21  1  0
 23 22  2  0
 24 22  2  0
 25 22  1  0
 26 25  2  0
 27 26  1  0
 28 27  2  0
 29 28  1  0
 30 29  1  0
 31 25  1  0
 31 29  2  0
 32 20  1  0
 33 17  1  0
 33 32  1  0
 34  9  1  0
 34 14  1  0
 35  1  1  0
 36  1  1  0
 37  1  1  0
 38  5  1  0
 39  5  1  0
 40 12  1  0
 41 12  1  0
 42 13  1  0
 43 13  1  0
 44 15  1  0
 45 15  1  0
 46 16  1  0
 47 16  1  0
 17 48  1  1
 49 18  1  0
 50 18  1  0
 51 19  1  0
 52 19  1  0
 20 53  1  6
 54 21  1  0
 55 26  1  0
 56 27  1  0
 57 28  1  0
 58 31  1  0
 59 32  1  0
 60 32  1  0
 61 33  1  0
 62 33  1  0
 63 34  1  0
 64 34  1  0
M  END
>  <b_m_subgroup_collapsed>  (1548) 
0

>  <r_i_docking_score>  (1548) 
-5.0562802444658503

>  <s_m_subgroup_title>  (1548) 
glide-dock_SP_D22_pv

>  <s_m_subgroupid>  (1548) 
glide-dock_SP_D22_pv

>  <Molecule ChEMBL ID>  (1548) 
CHEMBL5990865

>  <Standard Type>  (1548) 
Ki

>  <Standard Value>  (1548) 
79.0

>  <label>  (1548) 
1

$$$$
CHEMBL346331
     RDKit          3D

 48 49  0  0  1  0  0  0  0  0999 V2000
    5.9383    7.9584  -12.8870 C   0  0  0  0  0  0  0  0  0  0  0  0
    6.4027    6.5295  -12.6431 C   0  0  0  0  0  0  0  0  0  0  0  0
    7.9257    6.3980  -12.5213 C   0  0  0  0  0  0  0  0  0  0  0  0
    8.5847    7.4057  -12.2472 O   0  0  0  0  0  0  0  0  0  0  0  0
    8.6579    5.0228  -12.6393 C   0  0  0  0  0  0  0  0  0  0  0  0
    9.1654    4.6258  -11.2034 C   0  0  0  0  0  0  0  0  0  0  0  0
    9.7363    5.6617  -10.1856 C   0  0  0  0  0  0  0  0  0  0  0  0
    8.7510    6.2464   -9.2416 N   0  0  0  0  0  0  0  0  0  0  0  0
    8.4479    5.3483   -8.1036 C   0  0  0  0  0  0  0  0  0  0  0  0
    9.1784    7.5818   -8.7616 C   0  0  0  0  0  0  0  0  0  0  0  0
    7.7639    3.8027  -13.0806 C   0  0  0  0  0  0  0  0  0  0  0  0
    6.4385    3.5925  -12.6008 C   0  0  0  0  0  0  0  0  0  0  0  0
    5.6592    2.4924  -13.0028 C   0  0  0  0  0  0  0  0  0  0  0  0
    6.1995    1.5133  -13.8474 C   0  0  0  0  0  0  0  0  0  0  0  0
    7.5354    1.6317  -14.2627 C   0  0  0  0  0  0  0  0  0  0  0  0
    8.3076    2.7407  -13.8600 C   0  0  0  0  0  0  0  0  0  0  0  0
    9.8174    5.2779  -13.6694 C   0  0  0  0  0  0  0  0  0  0  0  0
    9.6255    5.0439  -15.0599 C   0  0  0  0  0  0  0  0  0  0  0  0
   10.6418    5.2564  -16.0102 C   0  0  0  0  0  0  0  0  0  0  0  0
   11.8859    5.7589  -15.6037 C   0  0  0  0  0  0  0  0  0  0  0  0
   12.0879    6.0652  -14.2507 C   0  0  0  0  0  0  0  0  0  0  0  0
   11.0725    5.8329  -13.3055 C   0  0  0  0  0  0  0  0  0  0  0  0
    4.8855    8.0750  -12.6623 H   0  0  0  0  0  0  0  0  0  0  0  0
    6.4503    8.6868  -12.2512 H   0  0  0  0  0  0  0  0  0  0  0  0
    6.0863    8.1728  -13.9388 H   0  0  0  0  0  0  0  0  0  0  0  0
    6.0129    5.8917  -13.4361 H   0  0  0  0  0  0  0  0  0  0  0  0
    5.9633    6.2057  -11.7022 H   0  0  0  0  0  0  0  0  0  0  0  0
    8.3234    4.1725  -10.6830 H   0  0  0  0  0  0  0  0  0  0  0  0
    9.8907    3.8191  -11.3263 H   0  0  0  0  0  0  0  0  0  0  0  0
   10.4860    5.1666   -9.5741 H   0  0  0  0  0  0  0  0  0  0  0  0
   10.2596    6.4794  -10.6669 H   0  0  0  0  0  0  0  0  0  0  0  0
    9.3389    5.1900   -7.4948 H   0  0  0  0  0  0  0  0  0  0  0  0
    7.6858    5.7778   -7.4556 H   0  0  0  0  0  0  0  0  0  0  0  0
    8.0872    4.3770   -8.4414 H   0  0  0  0  0  0  0  0  0  0  0  0
   10.1663    7.5366   -8.2990 H   0  0  0  0  0  0  0  0  0  0  0  0
    9.2155    8.2900   -9.5911 H   0  0  0  0  0  0  0  0  0  0  0  0
    8.4852    7.9801   -8.0214 H   0  0  0  0  0  0  0  0  0  0  0  0
    5.9906    4.2300  -11.8621 H   0  0  0  0  0  0  0  0  0  0  0  0
    4.6490    2.3830  -12.6311 H   0  0  0  0  0  0  0  0  0  0  0  0
    5.6075    0.6586  -14.1438 H   0  0  0  0  0  0  0  0  0  0  0  0
    7.9807    0.8566  -14.8683 H   0  0  0  0  0  0  0  0  0  0  0  0
    9.3476    2.7327  -14.1499 H   0  0  0  0  0  0  0  0  0  0  0  0
    8.6720    4.7097  -15.4278 H   0  0  0  0  0  0  0  0  0  0  0  0
   10.4591    5.0504  -17.0555 H   0  0  0  0  0  0  0  0  0  0  0  0
   12.6667    5.9391  -16.3260 H   0  0  0  0  0  0  0  0  0  0  0  0
   13.0259    6.4963  -13.9345 H   0  0  0  0  0  0  0  0  0  0  0  0
   11.2945    6.1574  -12.3107 H   0  0  0  0  0  0  0  0  0  0  0  0
    7.8837    6.4278   -9.7425 H   0  0  0  0  0  0  0  0  0  0  0  0
  2  1  1  0
  3  2  1  0
  4  3  2  0
  5  3  1  0
  6  5  1  0
  7  6  1  0
  8  7  1  0
  9  8  1  0
 10  8  1  0
 11  5  1  0
 12 11  2  0
 13 12  1  0
 14 13  2  0
 15 14  1  0
 16 11  1  0
 16 15  2  0
 17  5  1  0
 18 17  2  0
 19 18  1  0
 20 19  2  0
 21 20  1  0
 22 17  1  0
 22 21  2  0
 23  1  1  0
 24  1  1  0
 25  1  1  0
 26  2  1  0
 27  2  1  0
 28  6  1  0
 29  6  1  0
 30  7  1  0
 31  7  1  0
 32  9  1  0
 33  9  1  0
 34  9  1  0
 35 10  1  0
 36 10  1  0
 37 10  1  0
 38 12  1  0
 39 13  1  0
 40 14  1  0
 41 15  1  0
 42 16  1  0
 43 18  1  0
 44 19  1  0
 45 20  1  0
 46 21  1  0
 47 22  1  0
 48  8  1  0
M  CHG  1   8   1
M  END
>  <b_m_subgroup_collapsed>  (1549) 
0

>  <r_i_docking_score>  (1549) 
-5.0520875494425299

>  <s_m_subgroup_title>  (1549) 
glide-dock_SP_D22_pv

>  <s_m_subgroupid>  (1549) 
glide-dock_SP_D22_pv

>  <Molecule ChEMBL ID>  (1549) 
CHEMBL346331

>  <Standard Type>  (1549) 
Ki

>  <Standard Value>  (1549) 
34900.0

>  <label>  (1549) 
0

$$$$
CHEMBL14998
     RDKit          3D

 42 44  0  0  1  0  0  0  0  0999 V2000
    5.1559    0.9293  -13.8580 C   0  0  0  0  0  0  0  0  0  0  0  0
    6.4892    1.6049  -14.0960 C   0  0  0  0  0  0  0  0  0  0  0  0
    7.4408    0.8639  -14.6563 N   0  0  0  0  0  0  0  0  0  0  0  0
    8.6777    1.3952  -14.7334 C   0  0  0  0  0  0  0  0  0  0  0  0
    9.9290    0.4289  -15.4335 Cl  0  0  0  0  0  0  0  0  0  0  0  0
    8.9565    2.6845  -14.2224 C   0  0  0  0  0  0  0  0  0  0  0  0
   10.6048    3.3569  -14.2751 S   0  0  0  0  0  0  0  0  0  0  0  0
   10.6187    4.3506  -15.7406 C   0  0  0  0  0  0  0  0  0  0  0  0
   11.6039    5.3519  -15.8627 C   0  0  0  0  0  0  0  0  0  0  0  0
   11.6499    6.1667  -17.0114 C   0  0  0  0  0  0  0  0  0  0  0  0
   10.7089    5.9805  -18.0443 C   0  0  0  0  0  0  0  0  0  0  0  0
   10.7462    6.9901  -19.4437 Cl  0  0  0  0  0  0  0  0  0  0  0  0
    9.7309    4.9731  -17.9317 C   0  0  0  0  0  0  0  0  0  0  0  0
    9.6878    4.1550  -16.7857 C   0  0  0  0  0  0  0  0  0  0  0  0
    7.8703    3.3722  -13.6189 C   0  0  0  0  0  0  0  0  0  0  0  0
    8.0452    4.5564  -12.8875 N   0  0  0  0  0  0  0  0  0  0  0  0
    8.9097    4.5384  -11.7115 C   0  0  0  0  0  0  0  0  0  0  0  0
    9.5166    5.9400  -11.4958 C   0  0  0  0  0  0  0  0  0  0  0  0
    8.4861    7.0150  -11.5467 N   0  0  0  0  0  0  0  0  0  0  0  0
    9.0695    8.3715  -11.4875 C   0  0  0  0  0  0  0  0  0  0  0  0
    7.5326    6.8751  -12.6792 C   0  0  0  0  0  0  0  0  0  0  0  0
    6.9309    5.4731  -12.7421 C   0  0  0  0  0  0  0  0  0  0  0  0
    6.6274    2.8394  -13.6170 N   0  0  0  0  0  0  0  0  0  0  0  0
    4.4247    1.6260  -13.4456 H   0  0  0  0  0  0  0  0  0  0  0  0
    4.7616    0.5175  -14.7858 H   0  0  0  0  0  0  0  0  0  0  0  0
    5.2780    0.1100  -13.1496 H   0  0  0  0  0  0  0  0  0  0  0  0
   12.3271    5.4986  -15.0729 H   0  0  0  0  0  0  0  0  0  0  0  0
   12.4018    6.9376  -17.0984 H   0  0  0  0  0  0  0  0  0  0  0  0
    9.0113    4.8254  -18.7236 H   0  0  0  0  0  0  0  0  0  0  0  0
    8.9347    3.3825  -16.7325 H   0  0  0  0  0  0  0  0  0  0  0  0
    8.3036    4.2676  -10.8450 H   0  0  0  0  0  0  0  0  0  0  0  0
    9.6905    3.7815  -11.7751 H   0  0  0  0  0  0  0  0  0  0  0  0
   10.0491    5.9807  -10.5434 H   0  0  0  0  0  0  0  0  0  0  0  0
   10.2572    6.1265  -12.2778 H   0  0  0  0  0  0  0  0  0  0  0  0
    9.6525    8.5798  -12.3837 H   0  0  0  0  0  0  0  0  0  0  0  0
    8.2820    9.1220  -11.4195 H   0  0  0  0  0  0  0  0  0  0  0  0
    9.7149    8.4837  -10.6158 H   0  0  0  0  0  0  0  0  0  0  0  0
    6.7504    7.6348  -12.6427 H   0  0  0  0  0  0  0  0  0  0  0  0
    8.0851    7.0025  -13.6043 H   0  0  0  0  0  0  0  0  0  0  0  0
    6.2296    5.3731  -13.5704 H   0  0  0  0  0  0  0  0  0  0  0  0
    6.3739    5.2472  -11.8308 H   0  0  0  0  0  0  0  0  0  0  0  0
    7.8856    6.9513  -10.7245 H   0  0  0  0  0  0  0  0  0  0  0  0
  2  1  1  0
  3  2  2  0
  4  3  1  0
  5  4  1  0
  6  4  2  0
  7  6  1  0
  8  7  1  0
  9  8  1  0
 10  9  2  0
 11 10  1  0
 12 11  1  0
 13 11  2  0
 14  8  2  0
 14 13  1  0
 15  6  1  0
 16 15  1  0
 17 16  1  0
 18 17  1  0
 19 18  1  0
 20 19  1  0
 21 19  1  0
 22 16  1  0
 22 21  1  0
 23  2  1  0
 23 15  2  0
 24  1  1  0
 25  1  1  0
 26  1  1  0
 27  9  1  0
 28 10  1  0
 29 13  1  0
 30 14  1  0
 31 17  1  0
 32 17  1  0
 33 18  1  0
 34 18  1  0
 35 20  1  0
 36 20  1  0
 37 20  1  0
 38 21  1  0
 39 21  1  0
 40 22  1  0
 41 22  1  0
 42 19  1  0
M  CHG  1  19   1
M  END
>  <b_m_subgroup_collapsed>  (1550) 
0

>  <r_i_docking_score>  (1550) 
-5.0129394193523904

>  <s_m_subgroup_title>  (1550) 
glide-dock_SP_D22_pv

>  <s_m_subgroupid>  (1550) 
glide-dock_SP_D22_pv

>  <Molecule ChEMBL ID>  (1550) 
CHEMBL14998

>  <Standard Type>  (1550) 
Ki

>  <Standard Value>  (1550) 
62.0

>  <label>  (1550) 
1

$$$$
CHEMBL4238479
     RDKit          3D

 65 70  0  0  1  0  0  0  0  0999 V2000
    9.9631    3.3404  -19.5429 O   0  0  0  0  0  0  0  0  0  0  0  0
    9.7426    1.9048  -19.7689 S   0  0  0  0  0  0  0  0  0  0  0  0
    8.6159    1.4795  -20.6139 O   0  0  0  0  0  0  0  0  0  0  0  0
   11.2498    1.1231  -20.4049 C   0  0  0  0  0  0  0  0  0  0  0  0
   11.0477    0.0290  -21.2761 C   0  0  0  0  0  0  0  0  0  0  0  0
   12.1358   -0.6900  -21.7997 C   0  0  0  0  0  0  0  0  0  0  0  0
   13.4469   -0.3329  -21.4474 C   0  0  0  0  0  0  0  0  0  0  0  0
   13.6669    0.7657  -20.5940 C   0  0  0  0  0  0  0  0  0  0  0  0
   14.9844    1.1283  -20.2478 C   0  0  0  0  0  0  0  0  0  0  0  0
   15.2810    2.1687  -19.4470 N   0  0  0  0  0  0  0  0  0  0  0  0
   14.2567    2.9037  -18.9719 C   0  0  0  0  0  0  0  0  0  0  0  0
   12.9086    2.6234  -19.2517 C   0  0  0  0  0  0  0  0  0  0  0  0
   12.5792    1.5209  -20.0750 C   0  0  0  0  0  0  0  0  0  0  0  0
    9.5143    1.1317  -18.2278 N   0  0  0  0  0  0  0  0  0  0  0  0
    9.2471   -0.3123  -18.1960 C   0  0  0  0  0  0  0  0  0  0  0  0
   10.2930   -0.8701  -17.2350 C   0  0  0  0  0  0  0  0  0  0  0  0
   10.3893    0.2368  -16.2000 C   0  0  0  0  0  0  0  0  0  0  0  0
   10.3351    1.5028  -17.0608 C   0  0  2  0  0  0  0  0  0  0  0  0
    9.7703    2.7296  -16.3265 C   0  0  0  0  0  0  0  0  0  0  0  0
   10.7046    3.1899  -15.1940 C   0  0  0  0  0  0  0  0  0  0  0  0
   10.2466    4.4215  -14.5543 N   0  0  0  0  0  0  0  0  0  0  0  0
    9.0902    4.1524  -13.6890 C   0  0  0  0  0  0  0  0  0  0  0  0
    8.6152    5.4677  -13.0530 C   0  0  0  0  0  0  0  0  0  0  0  0
    9.6809    6.0396  -12.2389 N   0  0  0  0  0  0  0  0  0  0  0  0
    9.6154    6.0136  -10.8272 C   0  0  0  0  0  0  0  0  0  0  0  0
    8.9144    4.9708  -10.1778 C   0  0  0  0  0  0  0  0  0  0  0  0
    8.8365    4.9022   -8.7778 C   0  0  0  0  0  0  0  0  0  0  0  0
    9.4380    5.8940   -7.9933 C   0  0  0  0  0  0  0  0  0  0  0  0
   10.1398    6.9346   -8.6158 C   0  0  0  0  0  0  0  0  0  0  0  0
   10.9943    8.2538   -7.8241 S   0  0  0  0  0  0  0  0  0  0  0  0
   11.4667    8.8942   -9.3631 C   0  0  0  0  0  0  0  0  0  0  0  0
   10.9935    8.1939  -10.4345 C   0  0  0  0  0  0  0  0  0  0  0  0
   10.2402    7.0265  -10.0438 C   0  0  0  0  0  0  0  0  0  0  0  0
   10.9554    6.2030  -12.9366 C   0  0  0  0  0  0  0  0  0  0  0  0
   11.3443    4.9316  -13.7240 C   0  0  0  0  0  0  0  0  0  0  0  0
   10.0475   -0.2786  -21.5445 H   0  0  0  0  0  0  0  0  0  0  0  0
   11.9628   -1.5271  -22.4607 H   0  0  0  0  0  0  0  0  0  0  0  0
   14.2800   -0.8987  -21.8411 H   0  0  0  0  0  0  0  0  0  0  0  0
   15.8284    0.5676  -20.6231 H   0  0  0  0  0  0  0  0  0  0  0  0
   14.5201    3.7378  -18.3388 H   0  0  0  0  0  0  0  0  0  0  0  0
   12.1654    3.2722  -18.8214 H   0  0  0  0  0  0  0  0  0  0  0  0
    8.2392   -0.4753  -17.8122 H   0  0  0  0  0  0  0  0  0  0  0  0
    9.3083   -0.7650  -19.1855 H   0  0  0  0  0  0  0  0  0  0  0  0
   10.0232   -1.8276  -16.8013 H   0  0  0  0  0  0  0  0  0  0  0  0
   11.2463   -0.9920  -17.7528 H   0  0  0  0  0  0  0  0  0  0  0  0
    9.5305    0.1865  -15.5289 H   0  0  0  0  0  0  0  0  0  0  0  0
   11.2869    0.1779  -15.5894 H   0  0  0  0  0  0  0  0  0  0  0  0
   11.3459    1.7086  -17.3994 H   0  0  0  0  0  0  0  0  0  0  0  0
    9.6388    3.5551  -17.0242 H   0  0  0  0  0  0  0  0  0  0  0  0
    8.7772    2.4902  -15.9487 H   0  0  0  0  0  0  0  0  0  0  0  0
   10.8303    2.4022  -14.4487 H   0  0  0  0  0  0  0  0  0  0  0  0
   11.6902    3.3653  -15.6279 H   0  0  0  0  0  0  0  0  0  0  0  0
    8.2677    3.7347  -14.2668 H   0  0  0  0  0  0  0  0  0  0  0  0
    9.3451    3.4215  -12.9195 H   0  0  0  0  0  0  0  0  0  0  0  0
    8.3527    6.1748  -13.8386 H   0  0  0  0  0  0  0  0  0  0  0  0
    7.7033    5.3178  -12.4741 H   0  0  0  0  0  0  0  0  0  0  0  0
    8.4441    4.1777  -10.7423 H   0  0  0  0  0  0  0  0  0  0  0  0
    8.2919    4.0944   -8.3099 H   0  0  0  0  0  0  0  0  0  0  0  0
    9.3667    5.8589   -6.9166 H   0  0  0  0  0  0  0  0  0  0  0  0
   12.0847    9.7725   -9.4280 H   0  0  0  0  0  0  0  0  0  0  0  0
   11.1751    8.4722  -11.4521 H   0  0  0  0  0  0  0  0  0  0  0  0
   10.8863    7.0502  -13.6109 H   0  0  0  0  0  0  0  0  0  0  0  0
   11.7603    6.4493  -12.2476 H   0  0  0  0  0  0  0  0  0  0  0  0
   11.6696    4.1513  -13.0442 H   0  0  0  0  0  0  0  0  0  0  0  0
   12.2041    5.1595  -14.3558 H   0  0  0  0  0  0  0  0  0  0  0  0
  2  1  2  0
  3  2  2  0
  4  2  1  0
  5  4  2  0
  6  5  1  0
  7  6  2  0
  8  7  1  0
  9  8  2  0
 10  9  1  0
 11 10  2  0
 12 11  1  0
 13  4  1  0
 13  8  1  0
 13 12  2  0
 14  2  1  0
 15 14  1  0
 16 15  1  0
 17 16  1  0
 18 14  1  0
 18 17  1  0
 19 18  1  0
 20 19  1  0
 21 20  1  0
 22 21  1  0
 23 22  1  0
 24 23  1  0
 25 24  1  0
 26 25  1  0
 27 26  2  0
 28 27  1  0
 29 28  2  0
 30 29  1  0
 31 30  1  0
 32 31  2  0
 33 25  2  0
 33 29  1  0
 33 32  1  0
 34 24  1  0
 35 21  1  0
 35 34  1  0
 36  5  1  0
 37  6  1  0
 38  7  1  0
 39  9  1  0
 40 11  1  0
 41 12  1  0
 42 15  1  0
 43 15  1  0
 44 16  1  0
 45 16  1  0
 46 17  1  0
 47 17  1  0
 18 48  1  6
 49 19  1  0
 50 19  1  0
 51 20  1  0
 52 20  1  0
 53 22  1  0
 54 22  1  0
 55 23  1  0
 56 23  1  0
 57 26  1  0
 58 27  1  0
 59 28  1  0
 60 31  1  0
 61 32  1  0
 62 34  1  0
 63 34  1  0
 64 35  1  0
 65 35  1  0
M  END
>  <b_m_subgroup_collapsed>  (1551) 
0

>  <r_i_docking_score>  (1551) 
-4.9973113576020403

>  <s_m_subgroup_title>  (1551) 
glide-dock_SP_D22_pv

>  <s_m_subgroupid>  (1551) 
glide-dock_SP_D22_pv

>  <Molecule ChEMBL ID>  (1551) 
CHEMBL4238479

>  <Standard Type>  (1551) 
Ki

>  <Standard Value>  (1551) 
5.0

>  <label>  (1551) 
1

$$$$
CHEMBL238401
     RDKit          3D

 82 85  0  0  1  0  0  0  0  0999 V2000
   12.4863    7.7359  -11.8308 C   0  0  0  0  0  0  0  0  0  0  0  0
   11.6441    7.1884  -12.9840 C   0  0  0  0  0  0  0  0  0  0  0  0
   10.4912    6.3728  -12.5164 N   0  0  0  0  0  0  0  0  0  0  0  0
   10.0987    5.3082  -13.5118 C   0  0  1  0  0  0  0  0  0  0  0  0
   11.1953    4.2358  -13.6241 C   0  0  0  0  0  0  0  0  0  0  0  0
   10.9079    3.2251  -14.7459 C   0  0  0  0  0  0  0  0  0  0  0  0
    9.5818    2.4739  -14.5206 C   0  0  2  0  0  0  0  0  0  0  0  0
    9.2334    1.5564  -15.6524 N   0  0  0  0  0  0  0  0  0  0  0  0
    9.0174    2.2299  -16.9769 C   0  0  0  0  0  0  0  0  0  0  0  0
    8.5987    1.2586  -18.0948 C   0  0  0  0  0  0  0  0  0  0  0  0
    7.4901    0.4398  -17.6357 N   0  0  0  0  0  0  0  0  0  0  0  0
    6.5214   -0.1017  -18.5037 C   0  0  0  0  0  0  0  0  0  0  0  0
    5.2180   -0.2722  -17.9822 C   0  0  0  0  0  0  0  0  0  0  0  0
    4.1978   -0.8524  -18.7517 C   0  0  0  0  0  0  0  0  0  0  0  0
    4.4770   -1.2677  -20.0618 C   0  0  0  0  0  0  0  0  0  0  0  0
    5.7598   -1.0848  -20.6071 C   0  0  0  0  0  0  0  0  0  0  0  0
    6.8011   -0.4982  -19.8422 C   0  0  0  0  0  0  0  0  0  0  0  0
    8.0871   -0.3307  -20.3239 O   0  0  0  0  0  0  0  0  0  0  0  0
    8.3944   -0.5774  -21.6927 C   0  0  0  0  0  0  0  0  0  0  0  0
    9.9223   -0.6496  -21.7817 C   0  0  0  0  0  0  0  0  0  0  0  0
    7.8471    0.5530  -22.5838 C   0  0  0  0  0  0  0  0  0  0  0  0
    7.7690   -0.3221  -16.4341 C   0  0  0  0  0  0  0  0  0  0  0  0
    8.1303    0.6210  -15.2860 C   0  0  0  0  0  0  0  0  0  0  0  0
    8.4352    3.4459  -14.1740 C   0  0  0  0  0  0  0  0  0  0  0  0
    8.7924    4.5451  -13.1879 C   0  0  0  0  0  0  0  0  0  0  0  0
    9.3180    7.2319  -11.5091 S   0  0  0  0  0  0  0  0  0  0  0  0
    9.2849    8.6217  -11.9860 O   0  0  0  0  0  0  0  0  0  0  0  0
    8.0860    6.4465  -11.4469 O   0  0  0  0  0  0  0  0  0  0  0  0
    9.9373    7.2264   -9.8184 C   0  0  0  0  0  0  0  0  0  0  0  0
    9.6210    6.1565   -8.9608 C   0  0  0  0  0  0  0  0  0  0  0  0
    9.9826    6.2160   -7.5992 C   0  0  0  0  0  0  0  0  0  0  0  0
   10.7046    7.3237   -7.0857 C   0  0  0  0  0  0  0  0  0  0  0  0
   11.1117    7.4917   -5.7803 O   0  0  0  0  0  0  0  0  0  0  0  0
   10.8855    6.4784   -4.8389 C   0  0  0  0  0  0  0  0  0  0  0  0
   11.0511    8.3610   -7.9703 C   0  0  0  0  0  0  0  0  0  0  0  0
   11.8808    9.3723   -7.5831 O   0  0  0  0  0  0  0  0  0  0  0  0
   11.5313   10.1277   -6.4301 C   0  0  0  0  0  0  0  0  0  0  0  0
   10.6211    8.3434   -9.3069 C   0  0  0  0  0  0  0  0  0  0  0  0
   13.5066    7.9313  -12.1582 H   0  0  0  0  0  0  0  0  0  0  0  0
   12.1133    8.6766  -11.4468 H   0  0  0  0  0  0  0  0  0  0  0  0
   12.4862    7.0285  -11.0024 H   0  0  0  0  0  0  0  0  0  0  0  0
   12.3155    6.6236  -13.6221 H   0  0  0  0  0  0  0  0  0  0  0  0
   11.2871    7.9874  -13.6320 H   0  0  0  0  0  0  0  0  0  0  0  0
    9.9765    5.7722  -14.4896 H   0  0  0  0  0  0  0  0  0  0  0  0
   12.1999    4.6163  -13.7858 H   0  0  0  0  0  0  0  0  0  0  0  0
   11.2044    3.7724  -12.6517 H   0  0  0  0  0  0  0  0  0  0  0  0
   11.7227    2.5050  -14.8161 H   0  0  0  0  0  0  0  0  0  0  0  0
   10.9006    3.7792  -15.6838 H   0  0  0  0  0  0  0  0  0  0  0  0
    9.7386    1.8497  -13.6408 H   0  0  0  0  0  0  0  0  0  0  0  0
    9.9120    2.7559  -17.3029 H   0  0  0  0  0  0  0  0  0  0  0  0
    8.2284    2.9726  -16.8966 H   0  0  0  0  0  0  0  0  0  0  0  0
    9.4386    0.6184  -18.3691 H   0  0  0  0  0  0  0  0  0  0  0  0
    8.3157    1.8192  -18.9874 H   0  0  0  0  0  0  0  0  0  0  0  0
    4.9927    0.0368  -16.9712 H   0  0  0  0  0  0  0  0  0  0  0  0
    3.2085   -0.9868  -18.3368 H   0  0  0  0  0  0  0  0  0  0  0  0
    3.6944   -1.7255  -20.6476 H   0  0  0  0  0  0  0  0  0  0  0  0
    5.9111   -1.4166  -21.6216 H   0  0  0  0  0  0  0  0  0  0  0  0
    8.0086   -1.5459  -22.0112 H   0  0  0  0  0  0  0  0  0  0  0  0
   10.2459   -0.8717  -22.7971 H   0  0  0  0  0  0  0  0  0  0  0  0
   10.3791    0.2932  -21.4814 H   0  0  0  0  0  0  0  0  0  0  0  0
   10.3143   -1.4282  -21.1290 H   0  0  0  0  0  0  0  0  0  0  0  0
    8.1126    0.3930  -23.6288 H   0  0  0  0  0  0  0  0  0  0  0  0
    6.7614    0.6240  -22.5346 H   0  0  0  0  0  0  0  0  0  0  0  0
    8.2536    1.5187  -22.2826 H   0  0  0  0  0  0  0  0  0  0  0  0
    6.9256   -0.9528  -16.1448 H   0  0  0  0  0  0  0  0  0  0  0  0
    8.6023   -0.9921  -16.6503 H   0  0  0  0  0  0  0  0  0  0  0  0
    8.4062    0.0381  -14.4057 H   0  0  0  0  0  0  0  0  0  0  0  0
    7.2278    1.1742  -15.0282 H   0  0  0  0  0  0  0  0  0  0  0  0
    8.0869    3.9689  -15.0461 H   0  0  0  0  0  0  0  0  0  0  0  0
    7.5726    2.9121  -13.7780 H   0  0  0  0  0  0  0  0  0  0  0  0
    7.9377    5.2101  -13.2893 H   0  0  0  0  0  0  0  0  0  0  0  0
    8.8154    4.1408  -12.1744 H   0  0  0  0  0  0  0  0  0  0  0  0
    9.0593    5.3134   -9.3360 H   0  0  0  0  0  0  0  0  0  0  0  0
    9.6859    5.3930   -6.9766 H   0  0  0  0  0  0  0  0  0  0  0  0
   11.1651    6.8381   -3.8499 H   0  0  0  0  0  0  0  0  0  0  0  0
    9.8404    6.1730   -4.8095 H   0  0  0  0  0  0  0  0  0  0  0  0
   11.5463    5.6545   -5.0747 H   0  0  0  0  0  0  0  0  0  0  0  0
   11.7163   11.1839   -6.6197 H   0  0  0  0  0  0  0  0  0  0  0  0
   10.4842   10.0213   -6.1506 H   0  0  0  0  0  0  0  0  0  0  0  0
   12.1503    9.8333   -5.5821 H   0  0  0  0  0  0  0  0  0  0  0  0
   10.8187    9.2030   -9.9285 H   0  0  0  0  0  0  0  0  0  0  0  0
   10.0391    0.9641  -15.7884 H   0  0  0  0  0  0  0  0  0  0  0  0
  2  1  1  0
  3  2  1  0
  4  3  1  0
  5  4  1  0
  6  5  1  0
  7  6  1  0
  8  7  1  0
  9  8  1  0
 10  9  1  0
 11 10  1  0
 12 11  1  0
 13 12  2  0
 14 13  1  0
 15 14  2  0
 16 15  1  0
 17 12  1  0
 17 16  2  0
 18 17  1  0
 19 18  1  0
 20 19  1  0
 21 19  1  0
 22 11  1  0
 23  8  1  0
 23 22  1  0
 24  7  1  0
 25  4  1  0
 25 24  1  0
 26  3  1  0
 27 26  2  0
 28 26  2  0
 29 26  1  0
 30 29  1  0
 31 30  2  0
 32 31  1  0
 33 32  1  0
 34 33  1  0
 35 32  2  0
 36 35  1  0
 37 36  1  0
 38 29  2  0
 38 35  1  0
 39  1  1  0
 40  1  1  0
 41  1  1  0
 42  2  1  0
 43  2  1  0
  4 44  1  6
 45  5  1  0
 46  5  1  0
 47  6  1  0
 48  6  1  0
  7 49  1  1
 50  9  1  0
 51  9  1  0
 52 10  1  0
 53 10  1  0
 54 13  1  0
 55 14  1  0
 56 15  1  0
 57 16  1  0
 58 19  1  0
 59 20  1  0
 60 20  1  0
 61 20  1  0
 62 21  1  0
 63 21  1  0
 64 21  1  0
 65 22  1  0
 66 22  1  0
 67 23  1  0
 68 23  1  0
 69 24  1  0
 70 24  1  0
 71 25  1  0
 72 25  1  0
 73 30  1  0
 74 31  1  0
 75 34  1  0
 76 34  1  0
 77 34  1  0
 78 37  1  0
 79 37  1  0
 80 37  1  0
 81 38  1  0
 82  8  1  0
M  CHG  1   8   1
M  END
>  <b_m_subgroup_collapsed>  (1552) 
0

>  <r_i_docking_score>  (1552) 
-4.9871703341953104

>  <s_m_subgroup_title>  (1552) 
glide-dock_SP_D22_pv

>  <s_m_subgroupid>  (1552) 
glide-dock_SP_D22_pv

>  <Molecule ChEMBL ID>  (1552) 
CHEMBL238401

>  <Standard Type>  (1552) 
Ki

>  <Standard Value>  (1552) 
2.7

>  <label>  (1552) 
1

$$$$
CHEMBL40650
     RDKit          3D

 55 60  0  0  1  0  0  0  0  0999 V2000
    5.1727    4.1894  -12.9629 C   0  0  0  0  0  0  0  0  0  0  0  0
    6.0866    3.3137  -13.5939 O   0  0  0  0  0  0  0  0  0  0  0  0
    7.4176    3.6665  -13.6262 C   0  0  0  0  0  0  0  0  0  0  0  0
    7.9340    4.8548  -13.0497 C   0  0  0  0  0  0  0  0  0  0  0  0
    9.3100    5.1424  -13.1209 C   0  0  0  0  0  0  0  0  0  0  0  0
   10.1854    4.2556  -13.7734 C   0  0  0  0  0  0  0  0  0  0  0  0
    9.6889    3.0678  -14.3447 C   0  0  0  0  0  0  0  0  0  0  0  0
    8.3088    2.7711  -14.2638 C   0  0  0  0  0  0  0  0  0  0  0  0
    7.8064    1.4600  -14.8496 C   0  0  0  0  0  0  0  0  0  0  0  0
    8.8044    0.3271  -14.5914 C   0  0  0  0  0  0  0  0  0  0  0  0
   10.2176    0.6335  -15.1134 C   0  0  1  0  0  0  0  0  0  0  0  0
   10.4200    0.2166  -16.5737 C   0  0  0  0  0  0  0  0  0  0  0  0
   11.2826    1.2540  -17.1216 N   0  0  0  0  0  0  0  0  0  0  0  0
   11.4687    1.2357  -18.5742 C   0  0  0  0  0  0  0  0  0  0  0  0
   10.2754    1.6863  -19.4661 C   0  0  0  0  0  0  0  0  0  0  0  0
    9.1550    0.7154  -19.5437 N   0  0  0  0  0  0  0  0  0  0  0  0
    9.3618   -0.5047  -20.1571 C   0  0  0  0  0  0  0  0  0  0  0  0
   10.4426   -0.7095  -20.7084 O   0  0  0  0  0  0  0  0  0  0  0  0
    8.3744   -1.4591  -20.1504 N   0  0  0  0  0  0  0  0  0  0  0  0
    7.1680   -1.2000  -19.5954 C   0  0  0  0  0  0  0  0  0  0  0  0
    6.9275    0.0222  -19.0444 C   0  0  0  0  0  0  0  0  0  0  0  0
    5.3421    0.2535  -18.3816 S   0  0  0  0  0  0  0  0  0  0  0  0
    4.9227   -1.3982  -18.8297 C   0  0  0  0  0  0  0  0  0  0  0  0
    3.7085   -2.0687  -18.6155 C   0  0  0  0  0  0  0  0  0  0  0  0
    3.6039   -3.3974  -19.0475 C   0  0  0  0  0  0  0  0  0  0  0  0
    4.7205   -3.9828  -19.6694 C   0  0  0  0  0  0  0  0  0  0  0  0
    5.8929   -3.3489  -19.8924 N   0  0  0  0  0  0  0  0  0  0  0  0
    6.0126   -2.0767  -19.4800 C   0  0  0  0  0  0  0  0  0  0  0  0
    7.9463    1.0753  -19.0103 C   0  0  0  0  0  0  0  0  0  0  0  0
    7.6879    2.1723  -18.5118 O   0  0  0  0  0  0  0  0  0  0  0  0
   10.8110    2.4975  -16.5366 C   0  0  0  0  0  0  0  0  0  0  0  0
   10.6369    2.1169  -15.0642 C   0  0  1  0  0  0  0  0  0  0  0  0
    4.1693    3.7724  -13.0471 H   0  0  0  0  0  0  0  0  0  0  0  0
    5.1683    5.1670  -13.4471 H   0  0  0  0  0  0  0  0  0  0  0  0
    5.3968    4.3082  -11.9020 H   0  0  0  0  0  0  0  0  0  0  0  0
    7.2963    5.5612  -12.5382 H   0  0  0  0  0  0  0  0  0  0  0  0
    9.6919    6.0494  -12.6735 H   0  0  0  0  0  0  0  0  0  0  0  0
   11.2395    4.4896  -13.8313 H   0  0  0  0  0  0  0  0  0  0  0  0
    6.8439    1.1808  -14.4212 H   0  0  0  0  0  0  0  0  0  0  0  0
    7.6456    1.5925  -15.9183 H   0  0  0  0  0  0  0  0  0  0  0  0
    8.8724    0.1721  -13.5147 H   0  0  0  0  0  0  0  0  0  0  0  0
    8.4334   -0.6052  -15.0176 H   0  0  0  0  0  0  0  0  0  0  0  0
   10.9102    0.0570  -14.5024 H   0  0  0  0  0  0  0  0  0  0  0  0
   10.8678   -0.7691  -16.6752 H   0  0  0  0  0  0  0  0  0  0  0  0
    9.4583    0.1918  -17.0733 H   0  0  0  0  0  0  0  0  0  0  0  0
   12.3004    1.9099  -18.7791 H   0  0  0  0  0  0  0  0  0  0  0  0
   11.8267    0.2464  -18.8607 H   0  0  0  0  0  0  0  0  0  0  0  0
    9.9587    2.6891  -19.1822 H   0  0  0  0  0  0  0  0  0  0  0  0
   10.6522    1.8277  -20.4811 H   0  0  0  0  0  0  0  0  0  0  0  0
    2.8855   -1.5767  -18.1176 H   0  0  0  0  0  0  0  0  0  0  0  0
    2.7035   -3.9692  -18.8666 H   0  0  0  0  0  0  0  0  0  0  0  0
    4.6750   -5.0102  -19.9977 H   0  0  0  0  0  0  0  0  0  0  0  0
   11.5076    3.3229  -16.6823 H   0  0  0  0  0  0  0  0  0  0  0  0
    9.8475    2.7752  -16.9659 H   0  0  0  0  0  0  0  0  0  0  0  0
   11.6109    2.1754  -14.5758 H   0  0  0  0  0  0  0  0  0  0  0  0
  2  1  1  0
  3  2  1  0
  4  3  1  0
  5  4  2  0
  6  5  1  0
  7  6  2  0
  8  3  2  0
  8  7  1  0
  9  8  1  0
 10  9  1  0
 11 10  1  0
 12 11  1  0
 13 12  1  0
 14 13  1  0
 15 14  1  0
 16 15  1  0
 17 16  1  0
 18 17  2  0
 19 17  1  0
 20 19  1  0
 21 20  2  0
 22 21  1  0
 23 22  1  0
 24 23  1  0
 25 24  2  0
 26 25  1  0
 27 26  2  0
 28 20  1  0
 28 23  2  0
 28 27  1  0
 29 16  1  0
 29 21  1  0
 30 29  2  0
 31 13  1  0
 32  7  1  0
 32 11  1  0
 32 31  1  0
 33  1  1  0
 34  1  1  0
 35  1  1  0
 36  4  1  0
 37  5  1  0
 38  6  1  0
 39  9  1  0
 40  9  1  0
 41 10  1  0
 42 10  1  0
 11 43  1  1
 44 12  1  0
 45 12  1  0
 46 14  1  0
 47 14  1  0
 48 15  1  0
 49 15  1  0
 50 24  1  0
 51 25  1  0
 52 26  1  0
 53 31  1  0
 54 31  1  0
 32 55  1  1
M  CHG  1  19  -1
M  END
>  <b_m_subgroup_collapsed>  (1553) 
0

>  <r_i_docking_score>  (1553) 
-4.9596638761219198

>  <s_m_subgroup_title>  (1553) 
glide-dock_SP_D22_pv

>  <s_m_subgroupid>  (1553) 
glide-dock_SP_D22_pv

>  <Molecule ChEMBL ID>  (1553) 
CHEMBL40650

>  <Standard Type>  (1553) 
Ki

>  <Standard Value>  (1553) 
19.7

>  <label>  (1553) 
1

$$$$
CHEMBL5091656
     RDKit          3D

 73 76  0  0  1  0  0  0  0  0999 V2000
    4.1181   -1.1142  -19.9608 C   0  0  0  0  0  0  0  0  0  0  0  0
    5.3618   -0.3443  -19.4901 C   0  0  0  0  0  0  0  0  0  0  0  0
    5.5666   -0.2869  -17.9775 C   0  0  0  0  0  0  0  0  0  0  0  0
    4.5261   -0.6323  -17.0918 C   0  0  0  0  0  0  0  0  0  0  0  0
    4.7228   -0.6032  -15.7037 C   0  0  0  0  0  0  0  0  0  0  0  0
    3.3850   -1.0278  -14.6967 Cl  0  0  0  0  0  0  0  0  0  0  0  0
    5.9770   -0.2187  -15.1682 C   0  0  0  0  0  0  0  0  0  0  0  0
    6.2024   -0.2769  -13.8136 O   0  0  0  0  0  0  0  0  0  0  0  0
    5.5503    0.7269  -13.0586 C   0  0  0  0  0  0  0  0  0  0  0  0
    7.0268    0.1713  -16.0454 C   0  0  0  0  0  0  0  0  0  0  0  0
    8.3605    0.6250  -15.5076 C   0  0  0  0  0  0  0  0  0  0  0  0
    9.4117    0.1390  -15.9256 O   0  0  0  0  0  0  0  0  0  0  0  0
    8.3161    1.6537  -14.6480 N   0  0  0  0  0  0  0  0  0  0  0  0
    9.4614    2.3735  -14.0936 C   0  0  0  0  0  0  0  0  0  0  0  0
    9.9764    3.4885  -15.0322 C   0  0  2  0  0  0  0  0  0  0  0  0
   10.7351    2.9629  -16.2604 C   0  0  0  0  0  0  0  0  0  0  0  0
   11.7071    4.0843  -16.5890 C   0  0  0  0  0  0  0  0  0  0  0  0
   12.1186    4.5759  -15.2054 C   0  0  0  0  0  0  0  0  0  0  0  0
   10.9280    4.4026  -14.3332 N   0  0  1  0  0  0  0  0  0  0  0  0
   10.3205    5.6776  -13.8462 C   0  0  0  0  0  0  0  0  0  0  0  0
   10.3710    5.7831  -12.3113 C   0  0  0  0  0  0  0  0  0  0  0  0
    9.2078    6.4934  -11.5530 C   0  0  0  0  0  0  0  0  0  0  0  0
    9.0391    7.8925  -11.9469 C   0  0  0  0  0  0  0  0  0  0  0  0
    8.8860    8.9909  -12.2473 N   0  0  0  0  0  0  0  0  0  0  0  0
    7.8821    5.7777  -11.8942 C   0  0  0  0  0  0  0  0  0  0  0  0
    7.6825    4.4462  -11.5190 C   0  0  0  0  0  0  0  0  0  0  0  0
    6.4921    3.7722  -11.8465 C   0  0  0  0  0  0  0  0  0  0  0  0
    5.5077    4.3650  -12.6319 C   0  0  0  0  0  0  0  0  0  0  0  0
    5.6870    5.6912  -13.0194 C   0  0  0  0  0  0  0  0  0  0  0  0
    6.8487    6.3960  -12.6468 C   0  0  0  0  0  0  0  0  0  0  0  0
    9.6142    6.5901  -10.0639 C   0  0  0  0  0  0  0  0  0  0  0  0
   10.7474    7.3733   -9.7185 C   0  0  0  0  0  0  0  0  0  0  0  0
   11.1353    7.5575   -8.3778 C   0  0  0  0  0  0  0  0  0  0  0  0
   10.3879    6.9661   -7.3462 C   0  0  0  0  0  0  0  0  0  0  0  0
    9.2580    6.1948   -7.6673 C   0  0  0  0  0  0  0  0  0  0  0  0
    8.8834    5.9993   -9.0098 C   0  0  0  0  0  0  0  0  0  0  0  0
    6.8159    0.1169  -17.4500 C   0  0  0  0  0  0  0  0  0  0  0  0
    7.8180    0.4647  -18.3177 O   0  0  0  0  0  0  0  0  0  0  0  0
    4.0979   -1.1771  -21.0471 H   0  0  0  0  0  0  0  0  0  0  0  0
    4.1087   -2.1340  -19.5759 H   0  0  0  0  0  0  0  0  0  0  0  0
    3.1986   -0.6203  -19.6476 H   0  0  0  0  0  0  0  0  0  0  0  0
    5.3234    0.6764  -19.8707 H   0  0  0  0  0  0  0  0  0  0  0  0
    6.2395   -0.8100  -19.9398 H   0  0  0  0  0  0  0  0  0  0  0  0
    3.5553   -0.9340  -17.4554 H   0  0  0  0  0  0  0  0  0  0  0  0
    5.8873    0.6649  -12.0256 H   0  0  0  0  0  0  0  0  0  0  0  0
    5.7919    1.7095  -13.4573 H   0  0  0  0  0  0  0  0  0  0  0  0
    4.4688    0.6346  -13.0469 H   0  0  0  0  0  0  0  0  0  0  0  0
    7.3997    1.9773  -14.3743 H   0  0  0  0  0  0  0  0  0  0  0  0
    9.1458    2.8082  -13.1474 H   0  0  0  0  0  0  0  0  0  0  0  0
   10.2635    1.6764  -13.8479 H   0  0  0  0  0  0  0  0  0  0  0  0
    9.1268    4.0577  -15.4106 H   0  0  0  0  0  0  0  0  0  0  0  0
   11.3002    2.0642  -16.0079 H   0  0  0  0  0  0  0  0  0  0  0  0
   10.0739    2.7205  -17.0939 H   0  0  0  0  0  0  0  0  0  0  0  0
   12.5531    3.7523  -17.1909 H   0  0  0  0  0  0  0  0  0  0  0  0
   11.1939    4.8787  -17.1318 H   0  0  0  0  0  0  0  0  0  0  0  0
   12.9071    3.9316  -14.8154 H   0  0  0  0  0  0  0  0  0  0  0  0
   12.5270    5.5866  -15.2353 H   0  0  0  0  0  0  0  0  0  0  0  0
   10.8860    6.5231  -14.2514 H   0  0  0  0  0  0  0  0  0  0  0  0
    9.2942    5.7724  -14.1982 H   0  0  0  0  0  0  0  0  0  0  0  0
   10.4768    4.7827  -11.8901 H   0  0  0  0  0  0  0  0  0  0  0  0
   11.2940    6.3104  -12.0953 H   0  0  0  0  0  0  0  0  0  0  0  0
    8.4440    3.9503  -10.9482 H   0  0  0  0  0  0  0  0  0  0  0  0
    6.3166    2.7875  -11.4589 H   0  0  0  0  0  0  0  0  0  0  0  0
    4.6047    3.8307  -12.8885 H   0  0  0  0  0  0  0  0  0  0  0  0
    4.9220    6.1753  -13.5990 H   0  0  0  0  0  0  0  0  0  0  0  0
    6.9108    7.4224  -12.9707 H   0  0  0  0  0  0  0  0  0  0  0  0
   11.3259    7.8680  -10.4841 H   0  0  0  0  0  0  0  0  0  0  0  0
   11.9980    8.1638   -8.1431 H   0  0  0  0  0  0  0  0  0  0  0  0
   10.6673    7.1141   -6.3135 H   0  0  0  0  0  0  0  0  0  0  0  0
    8.6552    5.7724   -6.8782 H   0  0  0  0  0  0  0  0  0  0  0  0
    7.9829    5.4389   -9.1984 H   0  0  0  0  0  0  0  0  0  0  0  0
    8.6703    0.4476  -17.9040 H   0  0  0  0  0  0  0  0  0  0  0  0
   11.2605    3.9097  -13.5171 H   0  0  0  0  0  0  0  0  0  0  0  0
  2  1  1  0
  3  2  1  0
  4  3  1  0
  5  4  2  0
  6  5  1  0
  7  5  1  0
  8  7  1  0
  9  8  1  0
 10  7  2  0
 11 10  1  0
 12 11  2  0
 13 11  1  0
 14 13  1  0
 15 14  1  0
 16 15  1  0
 17 16  1  0
 18 17  1  0
 19 15  1  0
 19 18  1  0
 20 19  1  0
 21 20  1  0
 22 21  1  0
 23 22  1  0
 24 23  3  0
 25 22  1  0
 26 25  2  0
 27 26  1  0
 28 27  2  0
 29 28  1  0
 30 25  1  0
 30 29  2  0
 31 22  1  0
 32 31  2  0
 33 32  1  0
 34 33  2  0
 35 34  1  0
 36 31  1  0
 36 35  2  0
 37  3  2  0
 37 10  1  0
 38 37  1  0
 39  1  1  0
 40  1  1  0
 41  1  1  0
 42  2  1  0
 43  2  1  0
 44  4  1  0
 45  9  1  0
 46  9  1  0
 47  9  1  0
 48 13  1  0
 49 14  1  0
 50 14  1  0
 15 51  1  6
 52 16  1  0
 53 16  1  0
 54 17  1  0
 55 17  1  0
 56 18  1  0
 57 18  1  0
 58 20  1  0
 59 20  1  0
 60 21  1  0
 61 21  1  0
 62 26  1  0
 63 27  1  0
 64 28  1  0
 65 29  1  0
 66 30  1  0
 67 32  1  0
 68 33  1  0
 69 34  1  0
 70 35  1  0
 71 36  1  0
 72 38  1  0
 19 73  1  1
M  CHG  1  19   1
M  END
>  <b_m_subgroup_collapsed>  (1554) 
0

>  <r_i_docking_score>  (1554) 
-4.9293328025167504

>  <s_m_subgroup_title>  (1554) 
glide-dock_SP_D22_pv

>  <s_m_subgroupid>  (1554) 
glide-dock_SP_D22_pv

>  <Molecule ChEMBL ID>  (1554) 
CHEMBL5091656

>  <Standard Type>  (1554) 
Ki

>  <Standard Value>  (1554) 
12400.0

>  <label>  (1554) 
0

$$$$
CHEMBL154274
     RDKit          3D

 45 47  0  0  1  0  0  0  0  0999 V2000
   12.4143    6.8941  -15.0630 C   0  0  0  0  0  0  0  0  0  0  0  0
   11.3425    6.1723  -14.4734 O   0  0  0  0  0  0  0  0  0  0  0  0
   11.0806    4.8913  -14.9113 C   0  0  0  0  0  0  0  0  0  0  0  0
   11.8480    4.2547  -15.9194 C   0  0  0  0  0  0  0  0  0  0  0  0
   11.5486    2.9454  -16.3316 C   0  0  0  0  0  0  0  0  0  0  0  0
   10.4860    2.2468  -15.7298 C   0  0  0  0  0  0  0  0  0  0  0  0
   10.1894    0.5313  -16.1972 S   0  0  0  0  0  0  0  0  0  0  0  0
   10.0860   -0.2202  -14.9377 O   0  0  0  0  0  0  0  0  0  0  0  0
   11.2860    0.1723  -17.1103 O   0  0  0  0  0  0  0  0  0  0  0  0
    8.7800    0.6939  -16.9950 N   0  0  0  0  0  0  0  0  0  0  0  0
    7.5276    0.4091  -16.5832 C   0  0  0  0  0  0  0  0  0  0  0  0
    7.1302    0.4433  -15.2249 C   0  0  0  0  0  0  0  0  0  0  0  0
    5.8063    0.1899  -14.8342 C   0  0  0  0  0  0  0  0  0  0  0  0
    5.2860    0.5723  -13.0469 Br  0  0  0  0  0  0  0  0  0  0  0  0
    4.8605   -0.2277  -15.7836 C   0  0  0  0  0  0  0  0  0  0  0  0
    5.2344   -0.3000  -17.1367 C   0  0  0  0  0  0  0  0  0  0  0  0
    6.5420    0.0437  -17.5357 C   0  0  0  0  0  0  0  0  0  0  0  0
    6.9544   -0.0070  -19.3975 Br  0  0  0  0  0  0  0  0  0  0  0  0
    9.7192    2.8710  -14.7253 C   0  0  0  0  0  0  0  0  0  0  0  0
    9.9903    4.1975  -14.3202 C   0  0  0  0  0  0  0  0  0  0  0  0
    9.1985    4.8254  -13.3326 N   0  0  0  0  0  0  0  0  0  0  0  0
    7.7931    4.4451  -13.2102 C   0  0  0  0  0  0  0  0  0  0  0  0
    7.0178    5.4907  -12.3831 C   0  0  0  0  0  0  0  0  0  0  0  0
    7.6860    5.7723  -11.0922 N   0  0  0  0  0  0  0  0  0  0  0  0
    9.1131    6.1286  -11.2349 C   0  0  0  0  0  0  0  0  0  0  0  0
    9.8767    5.0853  -12.0684 C   0  0  0  0  0  0  0  0  0  0  0  0
   12.4758    7.8814  -14.6052 H   0  0  0  0  0  0  0  0  0  0  0  0
   13.3706    6.3956  -14.8990 H   0  0  0  0  0  0  0  0  0  0  0  0
   12.2571    7.0383  -16.1327 H   0  0  0  0  0  0  0  0  0  0  0  0
   12.6822    4.7478  -16.3937 H   0  0  0  0  0  0  0  0  0  0  0  0
   12.1566    2.4756  -17.0911 H   0  0  0  0  0  0  0  0  0  0  0  0
    7.8231    0.6878  -14.4414 H   0  0  0  0  0  0  0  0  0  0  0  0
    3.8424   -0.4344  -15.4886 H   0  0  0  0  0  0  0  0  0  0  0  0
    4.5048   -0.5893  -17.8786 H   0  0  0  0  0  0  0  0  0  0  0  0
    8.9382    2.3229  -14.2366 H   0  0  0  0  0  0  0  0  0  0  0  0
    7.3441    4.3459  -14.1995 H   0  0  0  0  0  0  0  0  0  0  0  0
    7.7226    3.4708  -12.7269 H   0  0  0  0  0  0  0  0  0  0  0  0
    6.9469    6.4248  -12.9418 H   0  0  0  0  0  0  0  0  0  0  0  0
    5.9971    5.1560  -12.1955 H   0  0  0  0  0  0  0  0  0  0  0  0
    7.2077    6.5837  -10.6661 H   0  0  0  0  0  0  0  0  0  0  0  0
    9.1769    7.1035  -11.7206 H   0  0  0  0  0  0  0  0  0  0  0  0
    9.5613    6.2371  -10.2470 H   0  0  0  0  0  0  0  0  0  0  0  0
    9.9663    4.1482  -11.5165 H   0  0  0  0  0  0  0  0  0  0  0  0
   10.8860    5.4479  -12.2469 H   0  0  0  0  0  0  0  0  0  0  0  0
    7.5796    4.9761  -10.4804 H   0  0  0  0  0  0  0  0  0  0  0  0
  2  1  1  0
  3  2  1  0
  4  3  1  0
  5  4  2  0
  6  5  1  0
  7  6  1  0
  8  7  2  0
  9  7  2  0
 10  7  1  0
 11 10  1  0
 12 11  1  0
 13 12  2  0
 14 13  1  0
 15 13  1  0
 16 15  2  0
 17 11  2  0
 17 16  1  0
 18 17  1  0
 19  6  2  0
 20  3  2  0
 20 19  1  0
 21 20  1  0
 22 21  1  0
 23 22  1  0
 24 23  1  0
 25 24  1  0
 26 21  1  0
 26 25  1  0
 27  1  1  0
 28  1  1  0
 29  1  1  0
 30  4  1  0
 31  5  1  0
 32 12  1  0
 33 15  1  0
 34 16  1  0
 35 19  1  0
 36 22  1  0
 37 22  1  0
 38 23  1  0
 39 23  1  0
 40 24  1  0
 41 25  1  0
 42 25  1  0
 43 26  1  0
 44 26  1  0
 45 24  1  0
M  CHG  2  10  -1  24   1
M  END
>  <b_m_subgroup_collapsed>  (1555) 
0

>  <r_i_docking_score>  (1555) 
-4.9257945740627402

>  <s_m_subgroup_title>  (1555) 
glide-dock_SP_D22_pv

>  <s_m_subgroupid>  (1555) 
glide-dock_SP_D22_pv

>  <Molecule ChEMBL ID>  (1555) 
CHEMBL154274

>  <Standard Type>  (1555) 
Ki

>  <Standard Value>  (1555) 
10000.0

>  <label>  (1555) 
0

$$$$
CHEMBL5283608
     RDKit          3D

 47 49  0  0  1  0  0  0  0  0999 V2000
   12.8709    5.5406  -14.6449 C   0  0  0  0  0  0  0  0  0  0  0  0
   12.6941    6.9542  -14.0824 C   0  0  0  0  0  0  0  0  0  0  0  0
   11.9929    6.9323  -12.8402 O   0  0  0  0  0  0  0  0  0  0  0  0
   12.3565    7.7723  -11.8466 C   0  0  0  0  0  0  0  0  0  0  0  0
   13.2962    8.5690  -11.9318 O   0  0  0  0  0  0  0  0  0  0  0  0
   11.5129    7.6984  -10.6237 C   0  0  0  0  0  0  0  0  0  0  0  0
   11.9715    8.0307   -9.4266 N   0  0  0  0  0  0  0  0  0  0  0  0
   10.9404    7.8498   -8.5859 N   0  0  0  0  0  0  0  0  0  0  0  0
   11.1264    8.0523   -7.2075 C   0  0  0  0  0  0  0  0  0  0  0  0
   10.9859    6.9720   -6.3139 C   0  0  0  0  0  0  0  0  0  0  0  0
   11.2860    7.1454   -4.9482 C   0  0  0  0  0  0  0  0  0  0  0  0
   11.6858    8.4091   -4.4679 C   0  0  0  0  0  0  0  0  0  0  0  0
   11.7870    9.4962   -5.3576 C   0  0  0  0  0  0  0  0  0  0  0  0
   11.5214    9.3162   -6.7266 C   0  0  0  0  0  0  0  0  0  0  0  0
    9.8073    7.4596   -9.2611 C   0  0  0  0  0  0  0  0  0  0  0  0
   10.1276    7.3139  -10.5865 C   0  0  0  0  0  0  0  0  0  0  0  0
    9.1811    6.9168  -11.7056 C   0  0  0  0  0  0  0  0  0  0  0  0
    8.8888    5.4725  -11.8035 N   0  0  0  0  0  0  0  0  0  0  0  0
    8.0862    5.1357  -10.6268 C   0  0  0  0  0  0  0  0  0  0  0  0
    8.1428    5.1954  -13.0523 C   0  0  2  0  0  0  0  0  0  0  0  0
    7.5199    3.7855  -13.1786 C   0  0  0  0  0  0  0  0  0  0  0  0
    8.6407    2.8375  -13.5961 C   0  0  0  0  0  0  0  0  0  0  0  0
    9.5319    3.6646  -14.9059 S   0  0  0  0  0  0  0  0  0  0  0  0
    9.0564    5.3039  -14.2972 C   0  0  0  0  0  0  0  0  0  0  0  0
   13.5475    5.5489  -15.4989 H   0  0  0  0  0  0  0  0  0  0  0  0
   13.2853    4.8666  -13.8959 H   0  0  0  0  0  0  0  0  0  0  0  0
   11.9294    5.1217  -14.9837 H   0  0  0  0  0  0  0  0  0  0  0  0
   12.1518    7.5814  -14.7909 H   0  0  0  0  0  0  0  0  0  0  0  0
   13.6860    7.3908  -13.9711 H   0  0  0  0  0  0  0  0  0  0  0  0
   10.6895    6.0006   -6.6811 H   0  0  0  0  0  0  0  0  0  0  0  0
   11.2008    6.3085   -4.2697 H   0  0  0  0  0  0  0  0  0  0  0  0
   11.9068    8.5452   -3.4190 H   0  0  0  0  0  0  0  0  0  0  0  0
   12.0856   10.4684   -5.0038 H   0  0  0  0  0  0  0  0  0  0  0  0
   11.6354   10.1430   -7.4101 H   0  0  0  0  0  0  0  0  0  0  0  0
    8.8679    7.3072   -8.7464 H   0  0  0  0  0  0  0  0  0  0  0  0
    8.2363    7.4513  -11.5928 H   0  0  0  0  0  0  0  0  0  0  0  0
    9.5661    7.2939  -12.6468 H   0  0  0  0  0  0  0  0  0  0  0  0
    7.7639    4.1018  -10.6017 H   0  0  0  0  0  0  0  0  0  0  0  0
    8.6554    5.2568   -9.7089 H   0  0  0  0  0  0  0  0  0  0  0  0
    7.2022    5.7719  -10.5707 H   0  0  0  0  0  0  0  0  0  0  0  0
    7.3369    5.9288  -13.1159 H   0  0  0  0  0  0  0  0  0  0  0  0
    6.9534    3.4288  -12.3220 H   0  0  0  0  0  0  0  0  0  0  0  0
    6.7887    3.8146  -13.9883 H   0  0  0  0  0  0  0  0  0  0  0  0
    8.2752    1.8629  -13.9197 H   0  0  0  0  0  0  0  0  0  0  0  0
    9.3365    2.6907  -12.7698 H   0  0  0  0  0  0  0  0  0  0  0  0
    8.4961    5.7722  -15.0986 H   0  0  0  0  0  0  0  0  0  0  0  0
    9.9656    5.8701  -14.1311 H   0  0  0  0  0  0  0  0  0  0  0  0
  2  1  1  0
  3  2  1  0
  4  3  1  0
  5  4  2  0
  6  4  1  0
  7  6  2  0
  8  7  1  0
  9  8  1  0
 10  9  2  0
 11 10  1  0
 12 11  2  0
 13 12  1  0
 14  9  1  0
 14 13  2  0
 15  8  1  0
 16  6  1  0
 16 15  2  0
 17 16  1  0
 18 17  1  0
 19 18  1  0
 20 18  1  0
 21 20  1  0
 22 21  1  0
 23 22  1  0
 24 20  1  0
 24 23  1  0
 25  1  1  0
 26  1  1  0
 27  1  1  0
 28  2  1  0
 29  2  1  0
 30 10  1  0
 31 11  1  0
 32 12  1  0
 33 13  1  0
 34 14  1  0
 35 15  1  0
 36 17  1  0
 37 17  1  0
 38 19  1  0
 39 19  1  0
 40 19  1  0
 20 41  1  6
 42 21  1  0
 43 21  1  0
 44 22  1  0
 45 22  1  0
 46 24  1  0
 47 24  1  0
M  END
>  <b_m_subgroup_collapsed>  (1556) 
0

>  <r_i_docking_score>  (1556) 
-4.9221005085038998

>  <s_m_subgroup_title>  (1556) 
glide-dock_SP_D22_pv

>  <s_m_subgroupid>  (1556) 
glide-dock_SP_D22_pv

>  <Molecule ChEMBL ID>  (1556) 
CHEMBL5283608

>  <Standard Type>  (1556) 
Ki

>  <Standard Value>  (1556) 
10000.0

>  <label>  (1556) 
0

$$$$
CHEMBL75678
     RDKit          3D

 50 52  0  0  1  0  0  0  0  0999 V2000
   10.5095    8.7356   -7.5976 C   0  0  0  0  0  0  0  0  0  0  0  0
   10.9141    8.6330   -6.4505 C   0  0  0  0  0  0  0  0  0  0  0  0
   11.3909    8.4461   -5.0915 C   0  0  0  0  0  0  0  0  0  0  0  0
   11.6158    9.5600   -4.2615 C   0  0  0  0  0  0  0  0  0  0  0  0
   12.0851    9.3723   -2.9472 C   0  0  0  0  0  0  0  0  0  0  0  0
   12.3182    8.0757   -2.4557 C   0  0  0  0  0  0  0  0  0  0  0  0
   12.0856    6.9610   -3.2820 C   0  0  0  0  0  0  0  0  0  0  0  0
   11.6289    7.1445   -4.6019 C   0  0  0  0  0  0  0  0  0  0  0  0
   10.0181    8.7589   -8.9803 C   0  0  0  0  0  0  0  0  0  0  0  0
   10.8125    7.8721   -9.7593 O   0  0  0  0  0  0  0  0  0  0  0  0
   10.2002    7.4734  -10.9741 C   0  0  0  0  0  0  0  0  0  0  0  0
    9.2422    6.2991  -10.7072 C   0  0  0  0  0  0  0  0  0  0  0  0
    8.5266    5.7714  -11.9627 C   0  0  1  0  0  0  0  0  0  0  0  0
    9.4505    4.9166  -12.8529 C   0  0  0  0  0  0  0  0  0  0  0  0
    8.6772    4.3036  -14.0335 C   0  0  0  0  0  0  0  0  0  0  0  0
    7.5452    3.4827  -13.5379 N   0  0  2  0  0  0  0  0  0  0  0  0
    6.8887    2.6638  -14.5837 C   0  0  0  0  0  0  0  0  0  0  0  0
    6.3274    1.3771  -14.0043 C   0  0  0  0  0  0  0  0  0  0  0  0
    6.0685    0.1882  -14.8978 C   0  0  0  0  0  0  0  0  0  0  0  0
    7.1866    0.1392  -13.8841 C   0  0  0  0  0  0  0  0  0  0  0  0
    6.5883    4.3042  -12.7556 C   0  0  0  0  0  0  0  0  0  0  0  0
    7.2921    4.9492  -11.5550 C   0  0  0  0  0  0  0  0  0  0  0  0
   11.4263   10.5587   -4.6267 H   0  0  0  0  0  0  0  0  0  0  0  0
   12.2471   10.2228   -2.3037 H   0  0  0  0  0  0  0  0  0  0  0  0
   12.6678    7.9377   -1.4450 H   0  0  0  0  0  0  0  0  0  0  0  0
   12.2566    5.9638   -2.9051 H   0  0  0  0  0  0  0  0  0  0  0  0
   11.4537    6.2814   -5.2302 H   0  0  0  0  0  0  0  0  0  0  0  0
    8.9660    8.4742   -8.9533 H   0  0  0  0  0  0  0  0  0  0  0  0
   10.0808    9.7706   -9.3831 H   0  0  0  0  0  0  0  0  0  0  0  0
    9.6829    8.3122  -11.4471 H   0  0  0  0  0  0  0  0  0  0  0  0
   10.9914    7.1587  -11.6556 H   0  0  0  0  0  0  0  0  0  0  0  0
    9.7814    5.4877  -10.2147 H   0  0  0  0  0  0  0  0  0  0  0  0
    8.4865    6.6169   -9.9882 H   0  0  0  0  0  0  0  0  0  0  0  0
    8.1712    6.6259  -12.5417 H   0  0  0  0  0  0  0  0  0  0  0  0
   10.2737    5.5223  -13.2326 H   0  0  0  0  0  0  0  0  0  0  0  0
    9.9047    4.1181  -12.2619 H   0  0  0  0  0  0  0  0  0  0  0  0
    9.3588    3.6910  -14.6251 H   0  0  0  0  0  0  0  0  0  0  0  0
    8.3066    5.0963  -14.6842 H   0  0  0  0  0  0  0  0  0  0  0  0
    6.0856    3.2354  -15.0477 H   0  0  0  0  0  0  0  0  0  0  0  0
    7.5976    2.4062  -15.3722 H   0  0  0  0  0  0  0  0  0  0  0  0
    5.5916    1.5259  -13.2173 H   0  0  0  0  0  0  0  0  0  0  0  0
    5.1836   -0.4124  -14.6968 H   0  0  0  0  0  0  0  0  0  0  0  0
    6.3454    0.2658  -15.9475 H   0  0  0  0  0  0  0  0  0  0  0  0
    8.2057    0.1793  -14.2633 H   0  0  0  0  0  0  0  0  0  0  0  0
    7.0388   -0.4964  -13.0142 H   0  0  0  0  0  0  0  0  0  0  0  0
    5.7633    3.6911  -12.3957 H   0  0  0  0  0  0  0  0  0  0  0  0
    6.1522    5.0730  -13.3953 H   0  0  0  0  0  0  0  0  0  0  0  0
    7.5762    4.1750  -10.8407 H   0  0  0  0  0  0  0  0  0  0  0  0
    6.5787    5.6007  -11.0478 H   0  0  0  0  0  0  0  0  0  0  0  0
    7.9609    2.8224  -12.8960 H   0  0  0  0  0  0  0  0  0  0  0  0
  2  1  3  0
  3  2  1  0
  4  3  2  0
  5  4  1  0
  6  5  2  0
  7  6  1  0
  8  3  1  0
  8  7  2  0
  9  1  1  0
 10  9  1  0
 11 10  1  0
 12 11  1  0
 13 12  1  0
 14 13  1  0
 15 14  1  0
 16 15  1  0
 17 16  1  0
 18 17  1  0
 19 18  1  0
 20 18  1  0
 20 19  1  0
 21 16  1  0
 22 13  1  0
 22 21  1  0
 23  4  1  0
 24  5  1  0
 25  6  1  0
 26  7  1  0
 27  8  1  0
 28  9  1  0
 29  9  1  0
 30 11  1  0
 31 11  1  0
 32 12  1  0
 33 12  1  0
 13 34  1  6
 35 14  1  0
 36 14  1  0
 37 15  1  0
 38 15  1  0
 39 17  1  0
 40 17  1  0
 41 18  1  0
 42 19  1  0
 43 19  1  0
 44 20  1  0
 45 20  1  0
 46 21  1  0
 47 21  1  0
 48 22  1  0
 49 22  1  0
 16 50  1  1
M  CHG  1  16   1
M  END
>  <b_m_subgroup_collapsed>  (1557) 
0

>  <r_i_docking_score>  (1557) 
-4.8875413270221602

>  <s_m_subgroup_title>  (1557) 
glide-dock_SP_D22_pv

>  <s_m_subgroupid>  (1557) 
glide-dock_SP_D22_pv

>  <Molecule ChEMBL ID>  (1557) 
CHEMBL75678

>  <Standard Type>  (1557) 
Ki

>  <Standard Value>  (1557) 
10000.0

>  <label>  (1557) 
0

$$$$
CHEMBL184724
     RDKit          3D

 48 50  0  0  1  0  0  0  0  0999 V2000
   14.3334    4.1083  -18.1386 C   0  0  0  0  0  0  0  0  0  0  0  0
   14.3849    5.5454  -17.6031 C   0  0  2  0  0  0  0  0  0  0  0  0
   13.3202    5.8071  -16.5150 C   0  0  0  0  0  0  0  0  0  0  0  0
   13.2677    7.2145  -16.1131 N   0  0  0  0  0  0  0  0  0  0  0  0
   12.2379    7.4683  -15.1077 C   0  0  0  0  0  0  0  0  0  0  0  0
   12.5785    6.9737  -13.6954 C   0  0  0  0  0  0  0  0  0  0  0  0
   11.5305    7.2298  -12.7719 O   0  0  0  0  0  0  0  0  0  0  0  0
   10.4881    6.3328  -12.6467 C   0  0  0  0  0  0  0  0  0  0  0  0
   10.3873    5.1254  -13.3879 C   0  0  0  0  0  0  0  0  0  0  0  0
    9.3034    4.2513  -13.1863 C   0  0  0  0  0  0  0  0  0  0  0  0
    8.3018    4.5720  -12.2533 C   0  0  0  0  0  0  0  0  0  0  0  0
    8.3872    5.7696  -11.5242 C   0  0  0  0  0  0  0  0  0  0  0  0
    9.4701    6.6533  -11.7163 C   0  0  0  0  0  0  0  0  0  0  0  0
    9.5015    7.9695  -10.9502 C   0  0  0  0  0  0  0  0  0  0  0  0
   10.1351    7.8704   -9.5725 C   0  0  0  0  0  0  0  0  0  0  0  0
    9.4124    7.3147   -8.4955 C   0  0  0  0  0  0  0  0  0  0  0  0
    9.9727    7.2781   -7.2051 C   0  0  0  0  0  0  0  0  0  0  0  0
   11.2611    7.7991   -6.9841 C   0  0  0  0  0  0  0  0  0  0  0  0
   11.9937    8.3482   -8.0576 C   0  0  0  0  0  0  0  0  0  0  0  0
   11.4321    8.3803   -9.3498 C   0  0  0  0  0  0  0  0  0  0  0  0
   13.0624    8.0328  -17.3043 C   0  0  0  0  0  0  0  0  0  0  0  0
   14.1541    7.7931  -18.3551 C   0  0  0  0  0  0  0  0  0  0  0  0
   14.1685    6.4141  -18.7133 O   0  0  0  0  0  0  0  0  0  0  0  0
   14.4940    3.3758  -17.3487 H   0  0  0  0  0  0  0  0  0  0  0  0
   13.3650    3.8957  -18.5937 H   0  0  0  0  0  0  0  0  0  0  0  0
   15.0982    3.9523  -18.9003 H   0  0  0  0  0  0  0  0  0  0  0  0
   15.3775    5.7411  -17.1909 H   0  0  0  0  0  0  0  0  0  0  0  0
   13.5348    5.1751  -15.6530 H   0  0  0  0  0  0  0  0  0  0  0  0
   12.3435    5.4996  -16.8932 H   0  0  0  0  0  0  0  0  0  0  0  0
   11.2880    7.0456  -15.4358 H   0  0  0  0  0  0  0  0  0  0  0  0
   12.0860    8.5454  -15.0234 H   0  0  0  0  0  0  0  0  0  0  0  0
   13.4343    7.5462  -13.3382 H   0  0  0  0  0  0  0  0  0  0  0  0
   12.8859    5.9305  -13.6674 H   0  0  0  0  0  0  0  0  0  0  0  0
   11.1242    4.8366  -14.1201 H   0  0  0  0  0  0  0  0  0  0  0  0
    9.2410    3.3300  -13.7459 H   0  0  0  0  0  0  0  0  0  0  0  0
    7.4668    3.9061  -12.0977 H   0  0  0  0  0  0  0  0  0  0  0  0
    7.6122    6.0141  -10.8129 H   0  0  0  0  0  0  0  0  0  0  0  0
    8.4861    8.3435  -10.8434 H   0  0  0  0  0  0  0  0  0  0  0  0
   10.0155    8.7312  -11.5334 H   0  0  0  0  0  0  0  0  0  0  0  0
    8.4153    6.9303   -8.6529 H   0  0  0  0  0  0  0  0  0  0  0  0
    9.4084    6.8611   -6.3836 H   0  0  0  0  0  0  0  0  0  0  0  0
   11.6852    7.7816   -5.9910 H   0  0  0  0  0  0  0  0  0  0  0  0
   12.9804    8.7530   -7.8906 H   0  0  0  0  0  0  0  0  0  0  0  0
   11.9977    8.8145  -10.1627 H   0  0  0  0  0  0  0  0  0  0  0  0
   12.0841    7.8176  -17.7446 H   0  0  0  0  0  0  0  0  0  0  0  0
   13.0597    9.0893  -17.0398 H   0  0  0  0  0  0  0  0  0  0  0  0
   13.9580    8.3928  -19.2430 H   0  0  0  0  0  0  0  0  0  0  0  0
   15.1312    8.0933  -17.9712 H   0  0  0  0  0  0  0  0  0  0  0  0
  2  1  1  0
  3  2  1  0
  4  3  1  0
  5  4  1  0
  6  5  1  0
  7  6  1  0
  8  7  1  0
  9  8  2  0
 10  9  1  0
 11 10  2  0
 12 11  1  0
 13  8  1  0
 13 12  2  0
 14 13  1  0
 15 14  1  0
 16 15  2  0
 17 16  1  0
 18 17  2  0
 19 18  1  0
 20 15  1  0
 20 19  2  0
 21  4  1  0
 22 21  1  0
 23  2  1  0
 23 22  1  0
 24  1  1  0
 25  1  1  0
 26  1  1  0
  2 27  1  1
 28  3  1  0
 29  3  1  0
 30  5  1  0
 31  5  1  0
 32  6  1  0
 33  6  1  0
 34  9  1  0
 35 10  1  0
 36 11  1  0
 37 12  1  0
 38 14  1  0
 39 14  1  0
 40 16  1  0
 41 17  1  0
 42 18  1  0
 43 19  1  0
 44 20  1  0
 45 21  1  0
 46 21  1  0
 47 22  1  0
 48 22  1  0
M  END
>  <b_m_subgroup_collapsed>  (1558) 
0

>  <r_i_docking_score>  (1558) 
-4.8692832339351204

>  <s_m_subgroup_title>  (1558) 
glide-dock_SP_D22_pv

>  <s_m_subgroupid>  (1558) 
glide-dock_SP_D22_pv

>  <Molecule ChEMBL ID>  (1558) 
CHEMBL184724

>  <Standard Type>  (1558) 
Ki

>  <Standard Value>  (1558) 
10000.0

>  <label>  (1558) 
0

$$$$
CHEMBL215997
     RDKit          3D

 56 60  0  0  1  0  0  0  0  0999 V2000
   10.8414    8.3491  -20.8992 C   0  0  0  0  0  0  0  0  0  0  0  0
   11.4370    7.6821  -19.7196 N   0  0  0  0  0  0  0  0  0  0  0  0
   12.6951    6.9674  -20.0501 C   0  0  0  0  0  0  0  0  0  0  0  0
   13.3136    6.3399  -18.7893 C   0  0  0  0  0  0  0  0  0  0  0  0
   12.3587    5.4673  -18.1090 N   0  0  0  0  0  0  0  0  0  0  0  0
   12.5396    4.0818  -18.0193 C   0  0  0  0  0  0  0  0  0  0  0  0
   13.0937    3.4236  -18.9902 N   0  0  0  0  0  0  0  0  0  0  0  0
   13.2910    2.0349  -19.0586 C   0  0  0  0  0  0  0  0  0  0  0  0
   14.4255    1.6194  -19.7928 C   0  0  0  0  0  0  0  0  0  0  0  0
   14.6831    0.2574  -20.0354 C   0  0  0  0  0  0  0  0  0  0  0  0
   16.0864   -0.2231  -20.9151 Cl  0  0  0  0  0  0  0  0  0  0  0  0
   13.7907   -0.7171  -19.5661 C   0  0  0  0  0  0  0  0  0  0  0  0
   12.6522   -0.3232  -18.8444 C   0  0  0  0  0  0  0  0  0  0  0  0
   12.3919    1.0417  -18.5748 C   0  0  0  0  0  0  0  0  0  0  0  0
   11.2724    1.3709  -17.8014 N   0  0  0  0  0  0  0  0  0  0  0  0
    9.9998    1.0181  -18.2725 N   0  0  0  0  0  0  0  0  0  0  0  0
    9.3393   -0.1024  -17.9201 C   0  0  0  0  0  0  0  0  0  0  0  0
    9.8426   -1.0271  -17.2809 O   0  0  0  0  0  0  0  0  0  0  0  0
    7.9194   -0.1859  -18.3988 C   0  0  0  0  0  0  0  0  0  0  0  0
    7.3095   -1.4335  -18.6509 C   0  0  0  0  0  0  0  0  0  0  0  0
    5.9643   -1.4621  -19.0658 C   0  0  0  0  0  0  0  0  0  0  0  0
    5.2746   -0.2419  -19.2054 C   0  0  0  0  0  0  0  0  0  0  0  0
    5.8399    0.9589  -18.9540 N   0  0  0  0  0  0  0  0  0  0  0  0
    7.1250    0.9724  -18.5454 C   0  0  0  0  0  0  0  0  0  0  0  0
   11.3543    2.2150  -16.6864 C   0  0  0  0  0  0  0  0  0  0  0  0
   10.7781    1.7869  -15.4702 C   0  0  0  0  0  0  0  0  0  0  0  0
   10.8840    2.5683  -14.3076 C   0  0  0  0  0  0  0  0  0  0  0  0
   11.6026    3.7728  -14.3371 C   0  0  0  0  0  0  0  0  0  0  0  0
   12.1801    4.2064  -15.5408 C   0  0  0  0  0  0  0  0  0  0  0  0
   12.0313    3.4624  -16.7391 C   0  0  0  0  0  0  0  0  0  0  0  0
   11.1021    6.1443  -17.7785 C   0  0  0  0  0  0  0  0  0  0  0  0
   10.4683    6.7977  -19.0198 C   0  0  0  0  0  0  0  0  0  0  0  0
   10.4747    7.6175  -21.6200 H   0  0  0  0  0  0  0  0  0  0  0  0
   10.0069    8.9865  -20.6032 H   0  0  0  0  0  0  0  0  0  0  0  0
   11.5785    8.9732  -21.4018 H   0  0  0  0  0  0  0  0  0  0  0  0
   13.4063    7.6630  -20.4993 H   0  0  0  0  0  0  0  0  0  0  0  0
   12.4925    6.1918  -20.7903 H   0  0  0  0  0  0  0  0  0  0  0  0
   13.6192    7.1226  -18.0937 H   0  0  0  0  0  0  0  0  0  0  0  0
   14.2239    5.7988  -19.0518 H   0  0  0  0  0  0  0  0  0  0  0  0
   15.1060    2.3579  -20.1898 H   0  0  0  0  0  0  0  0  0  0  0  0
   13.9842   -1.7657  -19.7484 H   0  0  0  0  0  0  0  0  0  0  0  0
   11.9935   -1.0907  -18.4756 H   0  0  0  0  0  0  0  0  0  0  0  0
    9.5668    1.7237  -18.8486 H   0  0  0  0  0  0  0  0  0  0  0  0
    7.8572   -2.3564  -18.5273 H   0  0  0  0  0  0  0  0  0  0  0  0
    5.4673   -2.3993  -19.2670 H   0  0  0  0  0  0  0  0  0  0  0  0
    4.2417   -0.2292  -19.5212 H   0  0  0  0  0  0  0  0  0  0  0  0
    7.5267    1.9523  -18.3353 H   0  0  0  0  0  0  0  0  0  0  0  0
   10.2622    0.8400  -15.4094 H   0  0  0  0  0  0  0  0  0  0  0  0
   10.4310    2.2243  -13.3913 H   0  0  0  0  0  0  0  0  0  0  0  0
   11.7056    4.3685  -13.4411 H   0  0  0  0  0  0  0  0  0  0  0  0
   12.7149    5.1452  -15.5379 H   0  0  0  0  0  0  0  0  0  0  0  0
   10.3853    5.4506  -17.3377 H   0  0  0  0  0  0  0  0  0  0  0  0
   11.3016    6.8998  -17.0177 H   0  0  0  0  0  0  0  0  0  0  0  0
    9.5889    7.3723  -18.7242 H   0  0  0  0  0  0  0  0  0  0  0  0
   10.1271    6.0215  -19.7052 H   0  0  0  0  0  0  0  0  0  0  0  0
   11.6862    8.4176  -19.0706 H   0  0  0  0  0  0  0  0  0  0  0  0
  2  1  1  0
  3  2  1  0
  4  3  1  0
  5  4  1  0
  6  5  1  0
  7  6  2  0
  8  7  1  0
  9  8  1  0
 10  9  2  0
 11 10  1  0
 12 10  1  0
 13 12  2  0
 14  8  2  0
 14 13  1  0
 15 14  1  0
 16 15  1  0
 17 16  1  0
 18 17  2  0
 19 17  1  0
 20 19  1  0
 21 20  2  0
 22 21  1  0
 23 22  2  0
 24 19  2  0
 24 23  1  0
 25 15  1  0
 26 25  2  0
 27 26  1  0
 28 27  2  0
 29 28  1  0
 30  6  1  0
 30 25  1  0
 30 29  2  0
 31  5  1  0
 32  2  1  0
 32 31  1  0
 33  1  1  0
 34  1  1  0
 35  1  1  0
 36  3  1  0
 37  3  1  0
 38  4  1  0
 39  4  1  0
 40  9  1  0
 41 12  1  0
 42 13  1  0
 43 16  1  0
 44 20  1  0
 45 21  1  0
 46 22  1  0
 47 24  1  0
 48 26  1  0
 49 27  1  0
 50 28  1  0
 51 29  1  0
 52 31  1  0
 53 31  1  0
 54 32  1  0
 55 32  1  0
 56  2  1  0
M  CHG  1   2   1
M  END
>  <b_m_subgroup_collapsed>  (1559) 
0

>  <r_i_docking_score>  (1559) 
-4.86246740704581

>  <s_m_subgroup_title>  (1559) 
glide-dock_SP_D22_pv

>  <s_m_subgroupid>  (1559) 
glide-dock_SP_D22_pv

>  <Molecule ChEMBL ID>  (1559) 
CHEMBL215997

>  <Standard Type>  (1559) 
Ki

>  <Standard Value>  (1559) 
12710.0

>  <label>  (1559) 
0

$$$$
CHEMBL165022
     RDKit          3D

 44 44  0  0  1  0  0  0  0  0999 V2000
    9.2514    0.1739  -15.0736 C   0  0  0  0  0  0  0  0  0  0  0  0
    8.2869    0.8281  -14.7079 C   0  0  0  0  0  0  0  0  0  0  0  0
    7.1950    1.6276  -14.2449 C   0  0  0  0  0  0  0  0  0  0  0  0
    5.9419    0.9783  -14.0135 C   0  0  0  0  0  0  0  0  0  0  0  0
    4.8533    0.4361  -13.8895 C   0  0  0  0  0  0  0  0  0  0  0  0
    7.3530    2.9649  -14.0145 C   0  0  0  0  0  0  0  0  0  0  0  0
    6.2538    3.8933  -13.4782 C   0  0  0  0  0  0  0  0  0  0  0  0
    6.7131    4.6880  -12.2418 C   0  0  0  0  0  0  0  0  0  0  0  0
    8.0419    5.4454  -12.4843 C   0  0  0  0  0  0  0  0  0  0  0  0
    8.4848    6.2305  -11.2894 N   0  0  0  0  0  0  0  0  0  0  0  0
    8.8735    5.3829  -10.1436 C   0  0  0  0  0  0  0  0  0  0  0  0
    9.1491    6.1898   -8.8795 C   0  0  0  0  0  0  0  0  0  0  0  0
    9.6857    5.2645   -7.8428 C   0  0  0  0  0  0  0  0  0  0  0  0
    9.5306    7.2444  -11.5880 C   0  0  0  0  0  0  0  0  0  0  0  0
    9.2234    8.6027  -10.9507 C   0  0  0  0  0  0  0  0  0  0  0  0
    8.1459    9.3720  -11.7010 C   0  0  0  0  0  0  0  0  0  0  0  0
    9.1228    4.4669  -12.9994 C   0  0  0  0  0  0  0  0  0  0  0  0
    8.6573    3.7386  -14.2625 C   0  0  0  0  0  0  0  0  0  0  0  0
   10.0931   -0.3921  -15.4030 H   0  0  0  0  0  0  0  0  0  0  0  0
    3.8924   -0.0261  -13.8375 H   0  0  0  0  0  0  0  0  0  0  0  0
    5.9721    4.5778  -14.2713 H   0  0  0  0  0  0  0  0  0  0  0  0
    5.3357    3.3687  -13.2217 H   0  0  0  0  0  0  0  0  0  0  0  0
    5.9328    5.3876  -11.9356 H   0  0  0  0  0  0  0  0  0  0  0  0
    6.8098    3.9677  -11.4325 H   0  0  0  0  0  0  0  0  0  0  0  0
    7.8376    6.1705  -13.2745 H   0  0  0  0  0  0  0  0  0  0  0  0
    8.0868    4.6689   -9.9119 H   0  0  0  0  0  0  0  0  0  0  0  0
    9.7625    4.8045  -10.3900 H   0  0  0  0  0  0  0  0  0  0  0  0
    9.9208    6.9462   -9.0069 H   0  0  0  0  0  0  0  0  0  0  0  0
    8.2391    6.6744   -8.5269 H   0  0  0  0  0  0  0  0  0  0  0  0
    9.6755    5.7563   -6.8679 H   0  0  0  0  0  0  0  0  0  0  0  0
    9.0735    4.3627   -7.8411 H   0  0  0  0  0  0  0  0  0  0  0  0
   10.7095    4.9742   -8.0781 H   0  0  0  0  0  0  0  0  0  0  0  0
   10.5103    6.8876  -11.2663 H   0  0  0  0  0  0  0  0  0  0  0  0
    9.6394    7.3969  -12.6471 H   0  0  0  0  0  0  0  0  0  0  0  0
    8.8858    8.5198   -9.9211 H   0  0  0  0  0  0  0  0  0  0  0  0
   10.1456    9.1775  -10.9046 H   0  0  0  0  0  0  0  0  0  0  0  0
    7.7884   10.1708  -11.0471 H   0  0  0  0  0  0  0  0  0  0  0  0
    8.5351    9.7722  -12.6346 H   0  0  0  0  0  0  0  0  0  0  0  0
    7.2877    8.7566  -11.9595 H   0  0  0  0  0  0  0  0  0  0  0  0
   10.0545    4.9940  -13.2102 H   0  0  0  0  0  0  0  0  0  0  0  0
    9.3562    3.7086  -12.2504 H   0  0  0  0  0  0  0  0  0  0  0  0
    9.4731    3.1128  -14.6196 H   0  0  0  0  0  0  0  0  0  0  0  0
    8.4860    4.4730  -15.0464 H   0  0  0  0  0  0  0  0  0  0  0  0
    7.6665    6.7624  -10.9848 H   0  0  0  0  0  0  0  0  0  0  0  0
  2  1  3  0
  3  2  1  0
  4  3  1  0
  5  4  3  0
  6  3  2  3
  7  6  1  0
  8  7  1  0
  9  8  1  0
 10  9  1  0
 11 10  1  0
 12 11  1  0
 13 12  1  0
 14 10  1  0
 15 14  1  0
 16 15  1  0
 17  9  1  0
 18  6  1  0
 18 17  1  0
 19  1  1  0
 20  5  1  0
 21  7  1  0
 22  7  1  0
 23  8  1  0
 24  8  1  0
 25  9  1  0
 26 11  1  0
 27 11  1  0
 28 12  1  0
 29 12  1  0
 30 13  1  0
 31 13  1  0
 32 13  1  0
 33 14  1  0
 34 14  1  0
 35 15  1  0
 36 15  1  0
 37 16  1  0
 38 16  1  0
 39 16  1  0
 40 17  1  0
 41 17  1  0
 42 18  1  0
 43 18  1  0
 44 10  1  0
M  CHG  1  10   1
M  END
>  <b_m_subgroup_collapsed>  (1560) 
0

>  <r_i_docking_score>  (1560) 
-4.8499094112863599

>  <s_m_subgroup_title>  (1560) 
glide-dock_SP_D22_pv

>  <s_m_subgroupid>  (1560) 
glide-dock_SP_D22_pv

>  <Molecule ChEMBL ID>  (1560) 
CHEMBL165022

>  <Standard Type>  (1560) 
Ki

>  <Standard Value>  (1560) 
12000.0

>  <label>  (1560) 
0

$$$$
CHEMBL541055
     RDKit          3D

 39 42  0  0  1  0  0  0  0  0999 V2000
   10.4842    1.0684  -17.6403 C   0  0  0  0  0  0  0  0  0  0  0  0
   10.5042    2.1169  -16.6242 N   0  0  0  0  0  0  0  0  0  0  0  0
    9.3196    2.9747  -16.6773 C   0  0  1  0  0  0  0  0  0  0  0  0
    8.2111    2.1515  -15.9906 C   0  0  0  0  0  0  0  0  0  0  0  0
    8.9648    1.2011  -15.0598 C   0  0  0  0  0  0  0  0  0  0  0  0
   10.4406    1.5758  -15.2670 C   0  0  2  0  0  0  0  0  0  0  0  0
   10.9163    2.7004  -14.3189 C   0  0  0  0  0  0  0  0  0  0  0  0
   10.0820    4.0013  -14.4422 C   0  0  1  0  0  0  0  0  0  0  0  0
    9.6972    4.2710  -15.9169 C   0  0  0  0  0  0  0  0  0  0  0  0
    8.9001    3.8949  -13.6482 O   0  0  0  0  0  0  0  0  0  0  0  0
    8.9530    4.8456  -12.6650 C   0  0  0  0  0  0  0  0  0  0  0  0
   10.0282    5.6468  -12.6636 C   0  0  0  0  0  0  0  0  0  0  0  0
   10.3292    6.7170  -11.6805 C   0  0  0  0  0  0  0  0  0  0  0  0
    9.3825    7.0398  -10.6809 C   0  0  0  0  0  0  0  0  0  0  0  0
    9.6859    7.9805   -9.6785 C   0  0  0  0  0  0  0  0  0  0  0  0
   10.9461    8.6022   -9.6541 C   0  0  0  0  0  0  0  0  0  0  0  0
   11.8943    8.2940  -10.6463 C   0  0  0  0  0  0  0  0  0  0  0  0
   11.5841    7.3723  -11.6630 C   0  0  0  0  0  0  0  0  0  0  0  0
   10.8044    5.1908  -13.8117 C   0  0  0  0  0  0  0  0  0  0  0  0
   11.8630    5.6467  -14.2421 O   0  0  0  0  0  0  0  0  0  0  0  0
   11.3670    0.4378  -17.5415 H   0  0  0  0  0  0  0  0  0  0  0  0
    9.6028    0.4326  -17.5767 H   0  0  0  0  0  0  0  0  0  0  0  0
   10.5075    1.5156  -18.6359 H   0  0  0  0  0  0  0  0  0  0  0  0
    9.0562    3.2247  -17.7062 H   0  0  0  0  0  0  0  0  0  0  0  0
    7.4972    2.7741  -15.4484 H   0  0  0  0  0  0  0  0  0  0  0  0
    7.6447    1.5808  -16.7270 H   0  0  0  0  0  0  0  0  0  0  0  0
    8.7864    0.1645  -15.3503 H   0  0  0  0  0  0  0  0  0  0  0  0
    8.6572    1.3009  -14.0168 H   0  0  0  0  0  0  0  0  0  0  0  0
   11.0926    0.7087  -15.1523 H   0  0  0  0  0  0  0  0  0  0  0  0
   11.9648    2.9123  -14.5377 H   0  0  0  0  0  0  0  0  0  0  0  0
   10.8852    2.3411  -13.2939 H   0  0  0  0  0  0  0  0  0  0  0  0
    8.8879    4.9986  -15.9585 H   0  0  0  0  0  0  0  0  0  0  0  0
   10.5335    4.7370  -16.4407 H   0  0  0  0  0  0  0  0  0  0  0  0
    8.1198    4.8238  -11.9783 H   0  0  0  0  0  0  0  0  0  0  0  0
    8.4106    6.5701  -10.6555 H   0  0  0  0  0  0  0  0  0  0  0  0
    8.9445    8.2135   -8.9258 H   0  0  0  0  0  0  0  0  0  0  0  0
   11.1840    9.3187   -8.8829 H   0  0  0  0  0  0  0  0  0  0  0  0
   12.8610    8.7753  -10.6361 H   0  0  0  0  0  0  0  0  0  0  0  0
   12.3422    7.1560  -12.3987 H   0  0  0  0  0  0  0  0  0  0  0  0
  2  1  1  0
  3  2  1  0
  4  3  1  0
  5  4  1  0
  6  2  1  0
  6  5  1  0
  7  6  1  0
  8  7  1  0
  9  3  1  0
  9  8  1  0
  8 10  1  1
 11 10  1  0
 12 11  2  0
 13 12  1  0
 14 13  2  0
 15 14  1  0
 16 15  2  0
 17 16  1  0
 18 13  1  0
 18 17  2  0
 19  8  1  0
 19 12  1  0
 20 19  2  0
 21  1  1  0
 22  1  1  0
 23  1  1  0
  3 24  1  6
 25  4  1  0
 26  4  1  0
 27  5  1  0
 28  5  1  0
  6 29  1  6
 30  7  1  0
 31  7  1  0
 32  9  1  0
 33  9  1  0
 34 11  1  0
 35 14  1  0
 36 15  1  0
 37 16  1  0
 38 17  1  0
 39 18  1  0
M  END
>  <b_m_subgroup_collapsed>  (1561) 
0

>  <r_i_docking_score>  (1561) 
-4.8377144404545698

>  <s_m_subgroup_title>  (1561) 
glide-dock_SP_D22_pv

>  <s_m_subgroupid>  (1561) 
glide-dock_SP_D22_pv

>  <Molecule ChEMBL ID>  (1561) 
CHEMBL541055

>  <Standard Type>  (1561) 
Ki

>  <Standard Value>  (1561) 
10000.0

>  <label>  (1561) 
0

$$$$
CHEMBL4171581
     RDKit          3D

 47 50  0  0  1  0  0  0  0  0999 V2000
   11.8275    9.8897   -6.3169 C   0  0  0  0  0  0  0  0  0  0  0  0
   11.0015    8.9717   -7.1532 C   0  0  0  0  0  0  0  0  0  0  0  0
    9.8330    8.3472   -6.8027 C   0  0  0  0  0  0  0  0  0  0  0  0
    9.2861    7.5498   -7.8453 C   0  0  0  0  0  0  0  0  0  0  0  0
   10.0399    7.5785   -8.9871 C   0  0  0  0  0  0  0  0  0  0  0  0
    9.7812    6.9036  -10.2475 C   0  0  0  0  0  0  0  0  0  0  0  0
   10.4858    6.9081  -11.3783 N   0  0  0  0  0  0  0  0  0  0  0  0
    9.7945    6.0520  -12.2283 C   0  0  0  0  0  0  0  0  0  0  0  0
   10.2990    5.7269  -13.6032 C   0  0  0  0  0  0  0  0  0  0  0  0
   11.0853    4.5137  -13.8447 N   0  0  0  0  0  0  0  0  0  0  0  0
   10.2742    3.3354  -13.5537 C   0  0  0  0  0  0  0  0  0  0  0  0
   11.5528    4.4348  -15.2316 C   0  0  0  0  0  0  0  0  0  0  0  0
   12.8187    5.2783  -15.4868 C   0  0  2  0  0  0  0  0  0  0  0  0
   12.5626    6.7759  -15.8085 C   0  0  0  0  0  0  0  0  0  0  0  0
   13.4129    6.9787  -17.0096 C   0  0  0  0  0  0  0  0  0  0  0  0
   13.6918    8.1730  -17.6920 C   0  0  0  0  0  0  0  0  0  0  0  0
   14.5213    8.1019  -18.8325 C   0  0  0  0  0  0  0  0  0  0  0  0
   15.0393    6.8571  -19.2652 C   0  0  0  0  0  0  0  0  0  0  0  0
   14.7344    5.6695  -18.5621 C   0  0  0  0  0  0  0  0  0  0  0  0
   13.9140    5.7598  -17.4241 C   0  0  0  0  0  0  0  0  0  0  0  0
   13.5128    4.7288  -16.6241 O   0  0  0  0  0  0  0  0  0  0  0  0
    8.6607    5.6325  -11.5796 C   0  0  0  0  0  0  0  0  0  0  0  0
    7.4943    4.7918  -11.9681 C   0  0  0  0  0  0  0  0  0  0  0  0
    8.6703    6.1254  -10.3078 O   0  0  0  0  0  0  0  0  0  0  0  0
   11.4599    8.5723   -8.7914 S   0  0  0  0  0  0  0  0  0  0  0  0
   11.5645    9.8050   -5.2624 H   0  0  0  0  0  0  0  0  0  0  0  0
   12.8861    9.6579   -6.4187 H   0  0  0  0  0  0  0  0  0  0  0  0
   11.6799   10.9265   -6.6196 H   0  0  0  0  0  0  0  0  0  0  0  0
    9.3447    8.4344   -5.8473 H   0  0  0  0  0  0  0  0  0  0  0  0
    8.3640    6.9980   -7.7300 H   0  0  0  0  0  0  0  0  0  0  0  0
    9.4554    5.7306  -14.2946 H   0  0  0  0  0  0  0  0  0  0  0  0
   10.9148    6.5699  -13.9016 H   0  0  0  0  0  0  0  0  0  0  0  0
   10.8398    2.4192  -13.7297 H   0  0  0  0  0  0  0  0  0  0  0  0
    9.9740    3.3190  -12.5057 H   0  0  0  0  0  0  0  0  0  0  0  0
    9.3744    3.3040  -14.1700 H   0  0  0  0  0  0  0  0  0  0  0  0
   11.8352    3.3991  -15.4294 H   0  0  0  0  0  0  0  0  0  0  0  0
   10.7577    4.6696  -15.9406 H   0  0  0  0  0  0  0  0  0  0  0  0
   13.5088    5.1913  -14.6467 H   0  0  0  0  0  0  0  0  0  0  0  0
   11.5246    6.9717  -16.0780 H   0  0  0  0  0  0  0  0  0  0  0  0
   12.8556    7.4342  -14.9903 H   0  0  0  0  0  0  0  0  0  0  0  0
   13.2861    9.1153  -17.3551 H   0  0  0  0  0  0  0  0  0  0  0  0
   14.7563    9.0024  -19.3809 H   0  0  0  0  0  0  0  0  0  0  0  0
   15.6690    6.8140  -20.1412 H   0  0  0  0  0  0  0  0  0  0  0  0
   15.1199    4.7153  -18.8885 H   0  0  0  0  0  0  0  0  0  0  0  0
    7.3705    4.7660  -13.0518 H   0  0  0  0  0  0  0  0  0  0  0  0
    7.6183    3.7723  -11.6081 H   0  0  0  0  0  0  0  0  0  0  0  0
    6.5764    5.1889  -11.5296 H   0  0  0  0  0  0  0  0  0  0  0  0
  2  1  1  0
  3  2  2  0
  4  3  1  0
  5  4  2  0
  6  5  1  0
  7  6  2  0
  8  7  1  0
  9  8  1  0
 10  9  1  0
 11 10  1  0
 12 10  1  0
 13 12  1  0
 14 13  1  0
 15 14  1  0
 16 15  2  0
 17 16  1  0
 18 17  2  0
 19 18  1  0
 20 15  1  0
 20 19  2  0
 21 13  1  0
 21 20  1  0
 22  8  2  0
 23 22  1  0
 24  6  1  0
 24 22  1  0
 25  2  1  0
 25  5  1  0
 26  1  1  0
 27  1  1  0
 28  1  1  0
 29  3  1  0
 30  4  1  0
 31  9  1  0
 32  9  1  0
 33 11  1  0
 34 11  1  0
 35 11  1  0
 36 12  1  0
 37 12  1  0
 13 38  1  1
 39 14  1  0
 40 14  1  0
 41 16  1  0
 42 17  1  0
 43 18  1  0
 44 19  1  0
 45 23  1  0
 46 23  1  0
 47 23  1  0
M  END
>  <b_m_subgroup_collapsed>  (1562) 
0

>  <r_i_docking_score>  (1562) 
-4.8214218282551098

>  <s_m_subgroup_title>  (1562) 
glide-dock_SP_D22_pv

>  <s_m_subgroupid>  (1562) 
glide-dock_SP_D22_pv

>  <Molecule ChEMBL ID>  (1562) 
CHEMBL4171581

>  <Standard Type>  (1562) 
Ki

>  <Standard Value>  (1562) 
10000.0

>  <label>  (1562) 
0

$$$$
CHEMBL245764
     RDKit          3D

 52 55  0  0  1  0  0  0  0  0999 V2000
    9.7509    8.1707  -10.9217 C   0  0  0  0  0  0  0  0  0  0  0  0
   10.4026    7.2190  -11.7547 O   0  0  0  0  0  0  0  0  0  0  0  0
    9.6446    6.1966  -12.2822 C   0  0  0  0  0  0  0  0  0  0  0  0
    8.2545    6.0489  -12.0600 C   0  0  0  0  0  0  0  0  0  0  0  0
    7.5520    4.9763  -12.6323 C   0  0  0  0  0  0  0  0  0  0  0  0
    8.2412    4.0320  -13.4155 C   0  0  0  0  0  0  0  0  0  0  0  0
    9.6312    4.1535  -13.6672 C   0  0  0  0  0  0  0  0  0  0  0  0
   10.3075    5.2545  -13.0952 C   0  0  0  0  0  0  0  0  0  0  0  0
   10.0313    3.0418  -14.4782 C   0  0  0  0  0  0  0  0  0  0  0  0
    8.9141    2.2560  -14.6675 C   0  0  0  0  0  0  0  0  0  0  0  0
    7.8240    2.8696  -14.0362 N   0  0  0  0  0  0  0  0  0  0  0  0
    6.4559    2.3917  -13.9494 C   0  0  0  0  0  0  0  0  0  0  0  0
    8.8185    0.9256  -15.3781 C   0  0  0  0  0  0  0  0  0  0  0  0
    8.3389    1.0143  -16.8301 C   0  0  0  0  0  0  0  0  0  0  0  0
    6.9474    0.9211  -17.0666 C   0  0  0  0  0  0  0  0  0  0  0  0
    6.4236    0.9722  -18.3700 C   0  0  0  0  0  0  0  0  0  0  0  0
    7.2893    1.1256  -19.4644 C   0  0  0  0  0  0  0  0  0  0  0  0
    8.6755    1.2116  -19.2490 C   0  0  0  0  0  0  0  0  0  0  0  0
    9.2162    1.1453  -17.9453 C   0  0  0  0  0  0  0  0  0  0  0  0
   10.7372    1.1504  -17.8305 C   0  0  0  0  0  0  0  0  0  0  0  0
   11.4476    2.4701  -18.2239 C   0  0  0  0  0  0  0  0  0  0  0  0
   11.2114    3.6774  -17.3817 N   0  0  1  0  0  0  0  0  0  0  0  0
    9.8504    4.2638  -17.4322 C   0  0  0  0  0  0  0  0  0  0  0  0
   11.9186    3.7435  -16.0694 C   0  0  0  0  0  0  0  0  0  0  0  0
   11.4329    2.8033  -14.9440 C   0  0  0  0  0  0  0  0  0  0  0  0
   10.4761    8.9090  -10.5823 H   0  0  0  0  0  0  0  0  0  0  0  0
    9.3214    7.6998  -10.0357 H   0  0  0  0  0  0  0  0  0  0  0  0
    8.9644    8.7022  -11.4614 H   0  0  0  0  0  0  0  0  0  0  0  0
    7.7009    6.7428  -11.4472 H   0  0  0  0  0  0  0  0  0  0  0  0
    6.4967    4.8686  -12.4375 H   0  0  0  0  0  0  0  0  0  0  0  0
   11.3680    5.3683  -13.2618 H   0  0  0  0  0  0  0  0  0  0  0  0
    6.3796    1.3288  -14.1509 H   0  0  0  0  0  0  0  0  0  0  0  0
    5.8418    2.9578  -14.6466 H   0  0  0  0  0  0  0  0  0  0  0  0
    6.0704    2.5594  -12.9437 H   0  0  0  0  0  0  0  0  0  0  0  0
    9.7624    0.3928  -15.3101 H   0  0  0  0  0  0  0  0  0  0  0  0
    8.1435    0.2633  -14.8345 H   0  0  0  0  0  0  0  0  0  0  0  0
    6.2611    0.7762  -16.2485 H   0  0  0  0  0  0  0  0  0  0  0  0
    5.3571    0.8871  -18.5274 H   0  0  0  0  0  0  0  0  0  0  0  0
    6.8917    1.1591  -20.4698 H   0  0  0  0  0  0  0  0  0  0  0  0
    9.3284    1.2997  -20.1049 H   0  0  0  0  0  0  0  0  0  0  0  0
   11.0906    0.7581  -16.8876 H   0  0  0  0  0  0  0  0  0  0  0  0
   11.0800    0.3911  -18.5347 H   0  0  0  0  0  0  0  0  0  0  0  0
   12.5241    2.2863  -18.2429 H   0  0  0  0  0  0  0  0  0  0  0  0
   11.1822    2.7238  -19.2519 H   0  0  0  0  0  0  0  0  0  0  0  0
    9.1018    3.6525  -16.9394 H   0  0  0  0  0  0  0  0  0  0  0  0
    9.5334    4.3964  -18.4674 H   0  0  0  0  0  0  0  0  0  0  0  0
    9.8395    5.2469  -16.9594 H   0  0  0  0  0  0  0  0  0  0  0  0
   12.9777    3.5472  -16.2493 H   0  0  0  0  0  0  0  0  0  0  0  0
   11.8738    4.7746  -15.7171 H   0  0  0  0  0  0  0  0  0  0  0  0
   12.0855    2.9748  -14.0901 H   0  0  0  0  0  0  0  0  0  0  0  0
   11.6114    1.7620  -15.1811 H   0  0  0  0  0  0  0  0  0  0  0  0
   11.7308    4.3721  -17.9017 H   0  0  0  0  0  0  0  0  0  0  0  0
  2  1  1  0
  3  2  1  0
  4  3  2  0
  5  4  1  0
  6  5  2  0
  7  6  1  0
  8  3  1  0
  8  7  2  0
  9  7  1  0
 10  9  2  0
 11  6  1  0
 11 10  1  0
 12 11  1  0
 13 10  1  0
 14 13  1  0
 15 14  2  0
 16 15  1  0
 17 16  2  0
 18 17  1  0
 19 14  1  0
 19 18  2  0
 20 19  1  0
 21 20  1  0
 22 21  1  0
 23 22  1  0
 24 22  1  0
 25  9  1  0
 25 24  1  0
 26  1  1  0
 27  1  1  0
 28  1  1  0
 29  4  1  0
 30  5  1  0
 31  8  1  0
 32 12  1  0
 33 12  1  0
 34 12  1  0
 35 13  1  0
 36 13  1  0
 37 15  1  0
 38 16  1  0
 39 17  1  0
 40 18  1  0
 41 20  1  0
 42 20  1  0
 43 21  1  0
 44 21  1  0
 45 23  1  0
 46 23  1  0
 47 23  1  0
 48 24  1  0
 49 24  1  0
 50 25  1  0
 51 25  1  0
 22 52  1  6
M  CHG  1  22   1
M  END
>  <b_m_subgroup_collapsed>  (1563) 
0

>  <r_i_docking_score>  (1563) 
-4.8103287255511002

>  <s_m_subgroup_title>  (1563) 
glide-dock_SP_D22_pv

>  <s_m_subgroupid>  (1563) 
glide-dock_SP_D22_pv

>  <Molecule ChEMBL ID>  (1563) 
CHEMBL245764

>  <Standard Type>  (1563) 
Ki

>  <Standard Value>  (1563) 
1.7

>  <label>  (1563) 
1

$$$$
CHEMBL383451
     RDKit          3D

 41 43  0  0  1  0  0  0  0  0999 V2000
   10.8006    5.2339  -16.9385 C   0  0  0  0  0  0  0  0  0  0  0  0
   10.8842    4.1574  -15.9220 N   0  0  2  0  0  0  0  0  0  0  0  0
   11.2017    4.6795  -14.5681 C   0  0  0  0  0  0  0  0  0  0  0  0
   10.5438    3.8587  -13.4443 C   0  0  0  0  0  0  0  0  0  0  0  0
    9.0292    3.9878  -13.4054 C   0  0  0  0  0  0  0  0  0  0  0  0
    8.5051    5.1591  -12.8115 C   0  0  0  0  0  0  0  0  0  0  0  0
    7.1196    5.3437  -12.6633 C   0  0  0  0  0  0  0  0  0  0  0  0
    6.2366    4.3619  -13.1421 C   0  0  0  0  0  0  0  0  0  0  0  0
    6.7434    3.1967  -13.7452 C   0  0  0  0  0  0  0  0  0  0  0  0
    8.1367    2.9797  -13.8633 C   0  0  0  0  0  0  0  0  0  0  0  0
    8.6027    1.6216  -14.3934 C   0  0  0  0  0  0  0  0  0  0  0  0
    8.5877    1.5050  -15.9156 C   0  0  0  0  0  0  0  0  0  0  0  0
    7.3245    1.3226  -16.5143 C   0  0  0  0  0  0  0  0  0  0  0  0
    7.1831    1.2142  -17.9038 C   0  0  0  0  0  0  0  0  0  0  0  0
    5.6054    0.9714  -18.5695 Cl  0  0  0  0  0  0  0  0  0  0  0  0
    8.3206    1.2996  -18.7266 C   0  0  0  0  0  0  0  0  0  0  0  0
    8.1778    1.2593  -20.0868 O   0  0  0  0  0  0  0  0  0  0  0  0
    9.6035    1.4199  -18.1469 C   0  0  0  0  0  0  0  0  0  0  0  0
   10.9945    1.4206  -19.1848 Cl  0  0  0  0  0  0  0  0  0  0  0  0
    9.7531    1.5268  -16.7357 C   0  0  0  0  0  0  0  0  0  0  0  0
   11.1623    1.6644  -16.1479 C   0  0  0  0  0  0  0  0  0  0  0  0
   11.7815    3.0567  -16.3654 C   0  0  0  0  0  0  0  0  0  0  0  0
   11.7660    5.7231  -17.0816 H   0  0  0  0  0  0  0  0  0  0  0  0
   10.0845    5.9971  -16.6406 H   0  0  0  0  0  0  0  0  0  0  0  0
   10.4651    4.8341  -17.9001 H   0  0  0  0  0  0  0  0  0  0  0  0
   12.2821    4.7266  -14.4252 H   0  0  0  0  0  0  0  0  0  0  0  0
   10.8562    5.7101  -14.4756 H   0  0  0  0  0  0  0  0  0  0  0  0
   10.8844    2.8280  -13.4497 H   0  0  0  0  0  0  0  0  0  0  0  0
   10.8861    4.2438  -12.4890 H   0  0  0  0  0  0  0  0  0  0  0  0
    9.1700    5.9239  -12.4356 H   0  0  0  0  0  0  0  0  0  0  0  0
    6.7359    6.2335  -12.1838 H   0  0  0  0  0  0  0  0  0  0  0  0
    5.1702    4.4993  -13.0387 H   0  0  0  0  0  0  0  0  0  0  0  0
    6.0438    2.4413  -14.0710 H   0  0  0  0  0  0  0  0  0  0  0  0
    9.5263    1.2936  -13.9329 H   0  0  0  0  0  0  0  0  0  0  0  0
    7.8956    0.8776  -14.0233 H   0  0  0  0  0  0  0  0  0  0  0  0
    6.4410    1.2580  -15.8999 H   0  0  0  0  0  0  0  0  0  0  0  0
   11.2112    1.3923  -15.1011 H   0  0  0  0  0  0  0  0  0  0  0  0
   11.8005    0.9165  -16.6214 H   0  0  0  0  0  0  0  0  0  0  0  0
   12.0046    3.1742  -17.4265 H   0  0  0  0  0  0  0  0  0  0  0  0
   12.7570    3.1175  -15.8780 H   0  0  0  0  0  0  0  0  0  0  0  0
    9.9520    3.7647  -15.8700 H   0  0  0  0  0  0  0  0  0  0  0  0
  2  1  1  0
  3  2  1  0
  4  3  1  0
  5  4  1  0
  6  5  2  0
  7  6  1  0
  8  7  2  0
  9  8  1  0
 10  5  1  0
 10  9  2  0
 11 10  1  0
 12 11  1  0
 13 12  1  0
 14 13  2  0
 15 14  1  0
 16 14  1  0
 17 16  1  0
 18 16  2  0
 19 18  1  0
 20 12  2  0
 20 18  1  0
 21 20  1  0
 22  2  1  0
 22 21  1  0
 23  1  1  0
 24  1  1  0
 25  1  1  0
 26  3  1  0
 27  3  1  0
 28  4  1  0
 29  4  1  0
 30  6  1  0
 31  7  1  0
 32  8  1  0
 33  9  1  0
 34 11  1  0
 35 11  1  0
 36 13  1  0
 37 21  1  0
 38 21  1  0
 39 22  1  0
 40 22  1  0
  2 41  1  1
M  CHG  2   2   1  17  -1
M  END
>  <b_m_subgroup_collapsed>  (1564) 
0

>  <r_i_docking_score>  (1564) 
-4.7941790808515803

>  <s_m_subgroup_title>  (1564) 
glide-dock_SP_D22_pv

>  <s_m_subgroupid>  (1564) 
glide-dock_SP_D22_pv

>  <Molecule ChEMBL ID>  (1564) 
CHEMBL383451

>  <Standard Type>  (1564) 
Ki

>  <Standard Value>  (1564) 
37.5

>  <label>  (1564) 
1

$$$$
CHEMBL228445
     RDKit          3D

 66 69  0  0  1  0  0  0  0  0999 V2000
   15.0934   -0.6248  -19.8917 O   0  0  0  0  0  0  0  0  0  0  0  0
   14.8101    0.7133  -20.4304 S   0  0  0  0  0  0  0  0  0  0  0  0
   13.7475    0.9063  -21.4288 O   0  0  0  0  0  0  0  0  0  0  0  0
   14.4684    1.7308  -19.0802 N   0  0  0  0  0  0  0  0  0  0  0  0
   13.3652    2.6853  -19.1262 C   0  0  1  0  0  0  0  0  0  0  0  0
   12.0722    1.9662  -18.7105 C   0  0  0  0  0  0  0  0  0  0  0  0
   10.8865    2.9412  -18.6078 C   0  0  0  0  0  0  0  0  0  0  0  0
   11.1695    4.1574  -17.6856 C   0  0  1  0  0  0  0  0  0  0  0  0
   11.2024    3.8745  -16.2119 N   0  0  2  0  0  0  0  0  0  0  0  0
   10.3897    2.7148  -15.7460 C   0  0  0  0  0  0  0  0  0  0  0  0
   10.5293    2.4783  -14.2228 C   0  0  0  0  0  0  0  0  0  0  0  0
   10.1979    3.7304  -13.3804 C   0  0  2  0  0  0  0  0  0  0  0  0
    8.7029    4.0874  -13.2721 C   0  0  0  0  0  0  0  0  0  0  0  0
    7.7112    3.2906  -13.8936 C   0  0  0  0  0  0  0  0  0  0  0  0
    6.3484    3.5968  -13.7750 C   0  0  0  0  0  0  0  0  0  0  0  0
    5.9463    4.7225  -13.0458 C   0  0  0  0  0  0  0  0  0  0  0  0
    6.9120    5.5149  -12.4007 C   0  0  0  0  0  0  0  0  0  0  0  0
    8.2912    5.1871  -12.4717 C   0  0  0  0  0  0  0  0  0  0  0  0
    9.2665    5.8709  -11.7740 O   0  0  0  0  0  0  0  0  0  0  0  0
    8.8859    6.9296  -10.9039 C   0  0  0  0  0  0  0  0  0  0  0  0
   10.1149    7.4730  -10.1677 C   0  0  0  0  0  0  0  0  0  0  0  0
    9.8206    8.6448   -9.6045 F   0  0  0  0  0  0  0  0  0  0  0  0
   10.4865    6.6177   -9.2150 F   0  0  0  0  0  0  0  0  0  0  0  0
   11.1244    7.6574  -11.0203 F   0  0  0  0  0  0  0  0  0  0  0  0
   11.0947    4.8663  -13.9209 C   0  0  0  0  0  0  0  0  0  0  0  0
   10.8756    5.0926  -15.4208 C   0  0  0  0  0  0  0  0  0  0  0  0
   12.4766    4.8459  -18.1485 C   0  0  0  0  0  0  0  0  0  0  0  0
   13.6651    3.8709  -18.1956 C   0  0  0  0  0  0  0  0  0  0  0  0
   16.3171    1.4486  -21.0578 C   0  0  0  0  0  0  0  0  0  0  0  0
   16.2201    2.5316  -21.9548 C   0  0  0  0  0  0  0  0  0  0  0  0
   17.3900    3.1476  -22.4391 C   0  0  0  0  0  0  0  0  0  0  0  0
   17.2698    4.4789  -23.5291 Cl  0  0  0  0  0  0  0  0  0  0  0  0
   18.6541    2.6788  -22.0315 C   0  0  0  0  0  0  0  0  0  0  0  0
   18.7465    1.5962  -21.1342 C   0  0  0  0  0  0  0  0  0  0  0  0
   17.5804    0.9746  -20.6472 C   0  0  0  0  0  0  0  0  0  0  0  0
   17.6856   -0.0564  -19.7776 F   0  0  0  0  0  0  0  0  0  0  0  0
   14.5209    1.2164  -18.1987 H   0  0  0  0  0  0  0  0  0  0  0  0
   13.2640    3.0644  -20.1443 H   0  0  0  0  0  0  0  0  0  0  0  0
   12.2325    1.4587  -17.7585 H   0  0  0  0  0  0  0  0  0  0  0  0
   11.8320    1.1836  -19.4329 H   0  0  0  0  0  0  0  0  0  0  0  0
    9.9746    2.4150  -18.3281 H   0  0  0  0  0  0  0  0  0  0  0  0
   10.6836    3.3187  -19.6116 H   0  0  0  0  0  0  0  0  0  0  0  0
   10.3436    4.8519  -17.8532 H   0  0  0  0  0  0  0  0  0  0  0  0
   10.7016    1.7959  -16.2366 H   0  0  0  0  0  0  0  0  0  0  0  0
    9.3526    2.8828  -16.0323 H   0  0  0  0  0  0  0  0  0  0  0  0
   11.5612    2.1913  -14.0196 H   0  0  0  0  0  0  0  0  0  0  0  0
    9.9353    1.6237  -13.9001 H   0  0  0  0  0  0  0  0  0  0  0  0
   10.4860    3.5277  -12.3514 H   0  0  0  0  0  0  0  0  0  0  0  0
    7.9582    2.4023  -14.4526 H   0  0  0  0  0  0  0  0  0  0  0  0
    5.6114    2.9673  -14.2463 H   0  0  0  0  0  0  0  0  0  0  0  0
    4.8953    4.9670  -12.9823 H   0  0  0  0  0  0  0  0  0  0  0  0
    6.5586    6.3687  -11.8468 H   0  0  0  0  0  0  0  0  0  0  0  0
    8.4197    7.7337  -11.4748 H   0  0  0  0  0  0  0  0  0  0  0  0
    8.1669    6.5702  -10.1677 H   0  0  0  0  0  0  0  0  0  0  0  0
   10.9498    5.8040  -13.3896 H   0  0  0  0  0  0  0  0  0  0  0  0
   12.1416    4.6092  -13.7496 H   0  0  0  0  0  0  0  0  0  0  0  0
   11.4861    5.9375  -15.7360 H   0  0  0  0  0  0  0  0  0  0  0  0
    9.8371    5.3739  -15.6006 H   0  0  0  0  0  0  0  0  0  0  0  0
   12.3233    5.2516  -19.1510 H   0  0  0  0  0  0  0  0  0  0  0  0
   12.7274    5.7044  -17.5270 H   0  0  0  0  0  0  0  0  0  0  0  0
   13.8928    3.5140  -17.1897 H   0  0  0  0  0  0  0  0  0  0  0  0
   14.5559    4.3960  -18.5442 H   0  0  0  0  0  0  0  0  0  0  0  0
   15.2507    2.8933  -22.2637 H   0  0  0  0  0  0  0  0  0  0  0  0
   19.5552    3.1487  -22.4018 H   0  0  0  0  0  0  0  0  0  0  0  0
   19.7167    1.2428  -20.8176 H   0  0  0  0  0  0  0  0  0  0  0  0
   12.1603    3.6361  -15.9998 H   0  0  0  0  0  0  0  0  0  0  0  0
  2  1  2  0
  3  2  2  0
  4  2  1  0
  5  4  1  0
  6  5  1  0
  7  6  1  0
  8  7  1  0
  9  8  1  0
 10  9  1  0
 11 10  1  0
 12 11  1  0
 13 12  1  0
 14 13  2  0
 15 14  1  0
 16 15  2  0
 17 16  1  0
 18 13  1  0
 18 17  2  0
 19 18  1  0
 20 19  1  0
 21 20  1  0
 22 21  1  0
 23 21  1  0
 24 21  1  0
 25 12  1  0
 26  9  1  0
 26 25  1  0
 27  8  1  0
 28  5  1  0
 28 27  1  0
 29  2  1  0
 30 29  1  0
 31 30  2  0
 32 31  1  0
 33 31  1  0
 34 33  2  0
 35 29  2  0
 35 34  1  0
 36 35  1  0
 37  4  1  0
  5 38  1  6
 39  6  1  0
 40  6  1  0
 41  7  1  0
 42  7  1  0
  8 43  1  1
 44 10  1  0
 45 10  1  0
 46 11  1  0
 47 11  1  0
 12 48  1  1
 49 14  1  0
 50 15  1  0
 51 16  1  0
 52 17  1  0
 53 20  1  0
 54 20  1  0
 55 25  1  0
 56 25  1  0
 57 26  1  0
 58 26  1  0
 59 27  1  0
 60 27  1  0
 61 28  1  0
 62 28  1  0
 63 30  1  0
 64 33  1  0
 65 34  1  0
  9 66  1  1
M  CHG  1   9   1
M  END
>  <b_m_subgroup_collapsed>  (1565) 
0

>  <r_i_docking_score>  (1565) 
-4.77815834133294

>  <s_m_subgroup_title>  (1565) 
glide-dock_SP_D22_pv

>  <s_m_subgroupid>  (1565) 
glide-dock_SP_D22_pv

>  <Molecule ChEMBL ID>  (1565) 
CHEMBL228445

>  <Standard Type>  (1565) 
Ki

>  <Standard Value>  (1565) 
78.0

>  <label>  (1565) 
1

$$$$
CHEMBL170923
     RDKit          3D

 41 44  0  0  1  0  0  0  0  0999 V2000
    9.2183    8.8301   -9.3843 C   0  0  0  0  0  0  0  0  0  0  0  0
   10.1303    7.9737  -10.2670 C   0  0  0  0  0  0  0  0  0  0  0  0
    9.3476    7.2106  -11.3518 C   0  0  0  0  0  0  0  0  0  0  0  0
   10.1295    6.2003  -12.0790 N   0  0  0  0  0  0  0  0  0  0  0  0
   11.2578    6.8050  -12.8065 C   0  0  0  0  0  0  0  0  0  0  0  0
   12.0714    5.8113  -13.6639 C   0  0  0  0  0  0  0  0  0  0  0  0
   11.2098    5.0073  -14.4585 O   0  0  0  0  0  0  0  0  0  0  0  0
   10.2457    4.3266  -13.6630 C   0  0  2  0  0  0  0  0  0  0  0  0
    9.4816    3.2793  -14.4441 C   0  0  0  0  0  0  0  0  0  0  0  0
   10.1801    2.4195  -15.3232 C   0  0  0  0  0  0  0  0  0  0  0  0
    9.4565    1.4342  -16.0138 C   0  0  0  0  0  0  0  0  0  0  0  0
    8.0910    1.3083  -15.8353 C   0  0  0  0  0  0  0  0  0  0  0  0
    7.3733    2.1375  -14.9592 C   0  0  0  0  0  0  0  0  0  0  0  0
    8.0817    3.1291  -14.2462 C   0  0  0  0  0  0  0  0  0  0  0  0
    7.3748    3.9322  -13.3807 O   0  0  0  0  0  0  0  0  0  0  0  0
    8.1237    4.6337  -12.3903 C   0  0  0  0  0  0  0  0  0  0  0  0
    9.3301    5.3776  -13.0020 C   0  0  1  0  0  0  0  0  0  0  0  0
    7.5869    0.1771  -16.6596 C   0  0  0  0  0  0  0  0  0  0  0  0
    8.8566   -0.2042  -17.4582 C   0  0  0  0  0  0  0  0  0  0  0  0
    9.9638    0.5170  -16.8901 O   0  0  0  0  0  0  0  0  0  0  0  0
    9.7972    9.3725   -8.6378 H   0  0  0  0  0  0  0  0  0  0  0  0
    8.4875    8.2142   -8.8576 H   0  0  0  0  0  0  0  0  0  0  0  0
    8.6660    9.5560   -9.9807 H   0  0  0  0  0  0  0  0  0  0  0  0
   10.8810    8.6221  -10.7188 H   0  0  0  0  0  0  0  0  0  0  0  0
   10.6660    7.2639   -9.6360 H   0  0  0  0  0  0  0  0  0  0  0  0
    8.5169    6.7311  -10.8366 H   0  0  0  0  0  0  0  0  0  0  0  0
    8.9023    7.9181  -12.0528 H   0  0  0  0  0  0  0  0  0  0  0  0
   10.8891    7.6017  -13.4467 H   0  0  0  0  0  0  0  0  0  0  0  0
   11.9448    7.2808  -12.1074 H   0  0  0  0  0  0  0  0  0  0  0  0
   12.7577    6.3519  -14.3167 H   0  0  0  0  0  0  0  0  0  0  0  0
   12.6846    5.1577  -13.0469 H   0  0  0  0  0  0  0  0  0  0  0  0
   10.7680    3.7727  -12.8819 H   0  0  0  0  0  0  0  0  0  0  0  0
   11.2471    2.5136  -15.4628 H   0  0  0  0  0  0  0  0  0  0  0  0
    6.3108    2.0096  -14.8185 H   0  0  0  0  0  0  0  0  0  0  0  0
    7.4228    5.3225  -11.9217 H   0  0  0  0  0  0  0  0  0  0  0  0
    8.4516    3.9390  -11.6159 H   0  0  0  0  0  0  0  0  0  0  0  0
    8.9269    6.0210  -13.7845 H   0  0  0  0  0  0  0  0  0  0  0  0
    7.2594   -0.6284  -16.0041 H   0  0  0  0  0  0  0  0  0  0  0  0
    6.7606    0.4808  -17.3026 H   0  0  0  0  0  0  0  0  0  0  0  0
    9.0388   -1.2793  -17.4472 H   0  0  0  0  0  0  0  0  0  0  0  0
    8.7540    0.0998  -18.5006 H   0  0  0  0  0  0  0  0  0  0  0  0
  2  1  1  0
  3  2  1  0
  4  3  1  0
  5  4  1  0
  6  5  1  0
  7  6  1  0
  8  7  1  0
  9  8  1  0
 10  9  2  0
 11 10  1  0
 12 11  2  0
 13 12  1  0
 14  9  1  0
 14 13  2  0
 15 14  1  0
 16 15  1  0
 17  4  1  0
 17  8  1  0
 17 16  1  0
 18 12  1  0
 19 18  1  0
 20 11  1  0
 20 19  1  0
 21  1  1  0
 22  1  1  0
 23  1  1  0
 24  2  1  0
 25  2  1  0
 26  3  1  0
 27  3  1  0
 28  5  1  0
 29  5  1  0
 30  6  1  0
 31  6  1  0
  8 32  1  1
 33 10  1  0
 34 13  1  0
 35 16  1  0
 36 16  1  0
 17 37  1  6
 38 18  1  0
 39 18  1  0
 40 19  1  0
 41 19  1  0
M  END
>  <b_m_subgroup_collapsed>  (1566) 
0

>  <r_i_docking_score>  (1566) 
-4.7174760771584197

>  <s_m_subgroup_title>  (1566) 
glide-dock_SP_D22_pv

>  <s_m_subgroupid>  (1566) 
glide-dock_SP_D22_pv

>  <Molecule ChEMBL ID>  (1566) 
CHEMBL170923

>  <Standard Type>  (1566) 
Ki

>  <Standard Value>  (1566) 
12589.25

>  <label>  (1566) 
0

$$$$
CHEMBL540799
     RDKit          3D

 53 56  0  0  1  0  0  0  0  0999 V2000
   16.3464    5.7692  -17.4123 O   0  0  0  0  0  0  0  0  0  0  0  0
   15.4238    6.5734  -17.5179 C   0  0  0  0  0  0  0  0  0  0  0  0
   14.4341    6.7124  -16.3568 C   0  0  0  0  0  0  0  0  0  0  0  0
   13.0843    6.0154  -16.5891 C   0  0  0  0  0  0  0  0  0  0  0  0
   13.1324    4.4882  -16.3753 C   0  0  0  0  0  0  0  0  0  0  0  0
   11.8363    3.8744  -16.6608 N   0  0  0  0  0  0  0  0  0  0  0  0
   10.8730    4.1381  -15.5886 C   0  0  0  0  0  0  0  0  0  0  0  0
    9.4872    3.6351  -16.0132 C   0  0  0  0  0  0  0  0  0  0  0  0
    9.5045    2.1267  -16.3146 C   0  0  0  0  0  0  0  0  0  0  0  0
   10.6674    1.7939  -17.2707 C   0  0  0  0  0  0  0  0  0  0  0  0
   11.9919    2.4249  -16.7996 C   0  0  0  0  0  0  0  0  0  0  0  0
    9.6365    1.3955  -15.0952 O   0  0  0  0  0  0  0  0  0  0  0  0
    8.5143    0.6343  -14.9316 C   0  0  0  0  0  0  0  0  0  0  0  0
    7.6107    0.6851  -15.9188 C   0  0  0  0  0  0  0  0  0  0  0  0
    6.2934    0.0150  -15.9538 C   0  0  0  0  0  0  0  0  0  0  0  0
    5.6885   -0.3219  -17.1864 C   0  0  0  0  0  0  0  0  0  0  0  0
    4.4613   -1.0154  -17.2101 C   0  0  0  0  0  0  0  0  0  0  0  0
    3.8250   -1.3623  -16.0040 C   0  0  0  0  0  0  0  0  0  0  0  0
    4.4200   -1.0235  -14.7745 C   0  0  0  0  0  0  0  0  0  0  0  0
    5.6507   -0.3432  -14.7465 C   0  0  0  0  0  0  0  0  0  0  0  0
    8.1616    1.6466  -16.8591 C   0  0  0  0  0  0  0  0  0  0  0  0
    7.6680    2.0549  -17.9134 O   0  0  0  0  0  0  0  0  0  0  0  0
   15.2793    7.4876  -18.6916 C   0  0  0  0  0  0  0  0  0  0  0  0
   16.2272    7.4097  -19.7394 C   0  0  0  0  0  0  0  0  0  0  0  0
   16.1478    8.2744  -20.8489 C   0  0  0  0  0  0  0  0  0  0  0  0
   15.1195    9.2306  -20.9258 C   0  0  0  0  0  0  0  0  0  0  0  0
   15.0469   10.0687  -21.9845 F   0  0  0  0  0  0  0  0  0  0  0  0
   14.1662    9.3154  -19.8919 C   0  0  0  0  0  0  0  0  0  0  0  0
   14.2425    8.4477  -18.7861 C   0  0  0  0  0  0  0  0  0  0  0  0
   14.2607    7.7722  -16.1793 H   0  0  0  0  0  0  0  0  0  0  0  0
   14.8957    6.3321  -15.4459 H   0  0  0  0  0  0  0  0  0  0  0  0
   12.7146    6.2281  -17.5934 H   0  0  0  0  0  0  0  0  0  0  0  0
   12.3700    6.4763  -15.9069 H   0  0  0  0  0  0  0  0  0  0  0  0
   13.4508    4.2439  -15.3596 H   0  0  0  0  0  0  0  0  0  0  0  0
   13.8841    4.0716  -17.0506 H   0  0  0  0  0  0  0  0  0  0  0  0
   10.7912    5.2034  -15.3825 H   0  0  0  0  0  0  0  0  0  0  0  0
   11.1907    3.6599  -14.6601 H   0  0  0  0  0  0  0  0  0  0  0  0
    9.1687    4.1924  -16.8962 H   0  0  0  0  0  0  0  0  0  0  0  0
    8.7648    3.8503  -15.2249 H   0  0  0  0  0  0  0  0  0  0  0  0
   10.7854    0.7125  -17.3620 H   0  0  0  0  0  0  0  0  0  0  0  0
   10.4427    2.1611  -18.2745 H   0  0  0  0  0  0  0  0  0  0  0  0
   12.7696    2.2039  -17.5333 H   0  0  0  0  0  0  0  0  0  0  0  0
   12.3109    1.9844  -15.8528 H   0  0  0  0  0  0  0  0  0  0  0  0
    8.4795    0.0810  -14.0052 H   0  0  0  0  0  0  0  0  0  0  0  0
    6.1658   -0.0702  -18.1237 H   0  0  0  0  0  0  0  0  0  0  0  0
    4.0069   -1.2784  -18.1547 H   0  0  0  0  0  0  0  0  0  0  0  0
    2.8865   -1.8978  -16.0273 H   0  0  0  0  0  0  0  0  0  0  0  0
    3.9275   -1.2960  -13.8552 H   0  0  0  0  0  0  0  0  0  0  0  0
    6.0961   -0.1018  -13.7929 H   0  0  0  0  0  0  0  0  0  0  0  0
   17.0315    6.6909  -19.7007 H   0  0  0  0  0  0  0  0  0  0  0  0
   16.8786    8.2084  -21.6417 H   0  0  0  0  0  0  0  0  0  0  0  0
   13.3764   10.0501  -19.9441 H   0  0  0  0  0  0  0  0  0  0  0  0
   13.4880    8.5505  -18.0191 H   0  0  0  0  0  0  0  0  0  0  0  0
  2  1  2  0
  3  2  1  0
  4  3  1  0
  5  4  1  0
  6  5  1  0
  7  6  1  0
  8  7  1  0
  9  8  1  0
 10  9  1  0
 11  6  1  0
 11 10  1  0
 12  9  1  0
 13 12  1  0
 14 13  2  0
 15 14  1  0
 16 15  2  0
 17 16  1  0
 18 17  2  0
 19 18  1  0
 20 15  1  0
 20 19  2  0
 21  9  1  0
 21 14  1  0
 22 21  2  0
 23  2  1  0
 24 23  1  0
 25 24  2  0
 26 25  1  0
 27 26  1  0
 28 26  2  0
 29 23  2  0
 29 28  1  0
 30  3  1  0
 31  3  1  0
 32  4  1  0
 33  4  1  0
 34  5  1  0
 35  5  1  0
 36  7  1  0
 37  7  1  0
 38  8  1  0
 39  8  1  0
 40 10  1  0
 41 10  1  0
 42 11  1  0
 43 11  1  0
 44 13  1  0
 45 16  1  0
 46 17  1  0
 47 18  1  0
 48 19  1  0
 49 20  1  0
 50 24  1  0
 51 25  1  0
 52 28  1  0
 53 29  1  0
M  END
>  <b_m_subgroup_collapsed>  (1567) 
0

>  <r_i_docking_score>  (1567) 
-4.6916587022112601

>  <s_m_subgroup_title>  (1567) 
glide-dock_SP_D22_pv

>  <s_m_subgroupid>  (1567) 
glide-dock_SP_D22_pv

>  <Molecule ChEMBL ID>  (1567) 
CHEMBL540799

>  <Standard Type>  (1567) 
Ki

>  <Standard Value>  (1567) 
70.0

>  <label>  (1567) 
1

$$$$
CHEMBL13647
     RDKit          3D

 59 62  0  0  1  0  0  0  0  0999 V2000
    8.4858    6.1735   -7.2242 C   0  0  0  0  0  0  0  0  0  0  0  0
    8.9081    5.9282   -8.5521 O   0  0  0  0  0  0  0  0  0  0  0  0
    9.8374    6.7897   -9.0949 C   0  0  0  0  0  0  0  0  0  0  0  0
   10.6129    7.6744   -8.3030 C   0  0  0  0  0  0  0  0  0  0  0  0
   11.5364    8.5500   -8.8991 C   0  0  0  0  0  0  0  0  0  0  0  0
   11.6860    8.5633  -10.2932 C   0  0  0  0  0  0  0  0  0  0  0  0
   10.9227    7.6907  -11.0895 C   0  0  0  0  0  0  0  0  0  0  0  0
   10.0084    6.7926  -10.5032 C   0  0  0  0  0  0  0  0  0  0  0  0
    9.2877    5.9148  -11.3270 N   0  0  0  0  0  0  0  0  0  0  0  0
    9.2771    4.4795  -11.1024 C   0  0  0  0  0  0  0  0  0  0  0  0
    9.7038    3.7560  -12.3970 C   0  0  0  0  0  0  0  0  0  0  0  0
    8.8219    4.1204  -13.5112 N   0  0  0  0  0  0  0  0  0  0  0  0
    9.1766    3.3595  -14.7100 C   0  0  0  0  0  0  0  0  0  0  0  0
    8.4320    2.0046  -14.7286 C   0  0  0  0  0  0  0  0  0  0  0  0
    8.7677    1.2045  -15.9257 N   0  0  0  0  0  0  0  0  0  0  0  0
    9.8224    0.3468  -15.8578 C   0  0  0  0  0  0  0  0  0  0  0  0
   10.4842    0.1743  -14.8354 O   0  0  0  0  0  0  0  0  0  0  0  0
   10.2334   -0.4620  -17.0946 C   0  0  0  0  0  0  0  0  0  0  0  0
    9.8472    0.2272  -18.4159 C   0  0  0  0  0  0  0  0  0  0  0  0
   10.1456   -0.6954  -19.6075 C   0  0  0  0  0  0  0  0  0  0  0  0
   11.6248   -0.4729  -19.9125 C   0  0  0  0  0  0  0  0  0  0  0  0
   11.8394    1.0219  -19.6742 C   0  0  0  0  0  0  0  0  0  0  0  0
   10.7350    1.4670  -18.7046 C   0  0  0  0  0  0  0  0  0  0  0  0
    8.3514    0.5694  -18.3186 C   0  0  0  0  0  0  0  0  0  0  0  0
    8.0269    1.3784  -17.0562 C   0  0  0  0  0  0  0  0  0  0  0  0
    7.0877    2.1722  -17.1236 O   0  0  0  0  0  0  0  0  0  0  0  0
    8.9899    5.5560  -13.7449 C   0  0  0  0  0  0  0  0  0  0  0  0
    8.5576    6.3694  -12.4991 C   0  0  0  0  0  0  0  0  0  0  0  0
    7.6863    5.4773   -6.9927 H   0  0  0  0  0  0  0  0  0  0  0  0
    9.2899    6.0099   -6.5083 H   0  0  0  0  0  0  0  0  0  0  0  0
    8.0908    7.1842   -7.0915 H   0  0  0  0  0  0  0  0  0  0  0  0
   10.5204    7.7050   -7.2285 H   0  0  0  0  0  0  0  0  0  0  0  0
   12.1259    9.2162   -8.2868 H   0  0  0  0  0  0  0  0  0  0  0  0
   12.3922    9.2328  -10.7559 H   0  0  0  0  0  0  0  0  0  0  0  0
   11.0586    7.6984  -12.1606 H   0  0  0  0  0  0  0  0  0  0  0  0
    9.9474    4.2105  -10.2854 H   0  0  0  0  0  0  0  0  0  0  0  0
    8.2730    4.1728  -10.8070 H   0  0  0  0  0  0  0  0  0  0  0  0
   10.7330    4.0182  -12.6468 H   0  0  0  0  0  0  0  0  0  0  0  0
    9.6851    2.6796  -12.2474 H   0  0  0  0  0  0  0  0  0  0  0  0
    8.8851    3.9184  -15.5995 H   0  0  0  0  0  0  0  0  0  0  0  0
   10.2570    3.2223  -14.7778 H   0  0  0  0  0  0  0  0  0  0  0  0
    8.6566    1.4340  -13.8340 H   0  0  0  0  0  0  0  0  0  0  0  0
    7.3565    2.1844  -14.6599 H   0  0  0  0  0  0  0  0  0  0  0  0
   11.3075   -0.6275  -17.0467 H   0  0  0  0  0  0  0  0  0  0  0  0
    9.7628   -1.4419  -17.0242 H   0  0  0  0  0  0  0  0  0  0  0  0
    9.9141   -1.7414  -19.4004 H   0  0  0  0  0  0  0  0  0  0  0  0
    9.5517   -0.4025  -20.4751 H   0  0  0  0  0  0  0  0  0  0  0  0
   12.2385   -1.0422  -19.2141 H   0  0  0  0  0  0  0  0  0  0  0  0
   11.9015   -0.7805  -20.9213 H   0  0  0  0  0  0  0  0  0  0  0  0
   12.8404    1.2312  -19.2861 H   0  0  0  0  0  0  0  0  0  0  0  0
   11.7389    1.5667  -20.6166 H   0  0  0  0  0  0  0  0  0  0  0  0
   10.1515    2.2648  -19.1715 H   0  0  0  0  0  0  0  0  0  0  0  0
   11.1652    1.8947  -17.7953 H   0  0  0  0  0  0  0  0  0  0  0  0
    8.0274    1.1262  -19.1982 H   0  0  0  0  0  0  0  0  0  0  0  0
    7.7568   -0.3440  -18.2944 H   0  0  0  0  0  0  0  0  0  0  0  0
   10.0289    5.7721  -14.0025 H   0  0  0  0  0  0  0  0  0  0  0  0
    8.3786    5.8397  -14.6011 H   0  0  0  0  0  0  0  0  0  0  0  0
    7.4923    6.2301  -12.3114 H   0  0  0  0  0  0  0  0  0  0  0  0
    8.7041    7.4379  -12.6469 H   0  0  0  0  0  0  0  0  0  0  0  0
  2  1  1  0
  3  2  1  0
  4  3  2  0
  5  4  1  0
  6  5  2  0
  7  6  1  0
  8  3  1  0
  8  7  2  0
  9  8  1  0
 10  9  1  0
 11 10  1  0
 12 11  1  0
 13 12  1  0
 14 13  1  0
 15 14  1  0
 16 15  1  0
 17 16  2  0
 18 16  1  0
 19 18  1  0
 20 19  1  0
 21 20  1  0
 22 21  1  0
 23 19  1  0
 23 22  1  0
 24 19  1  0
 25 15  1  0
 25 24  1  0
 26 25  2  0
 27 12  1  0
 28  9  1  0
 28 27  1  0
 29  1  1  0
 30  1  1  0
 31  1  1  0
 32  4  1  0
 33  5  1  0
 34  6  1  0
 35  7  1  0
 36 10  1  0
 37 10  1  0
 38 11  1  0
 39 11  1  0
 40 13  1  0
 41 13  1  0
 42 14  1  0
 43 14  1  0
 44 18  1  0
 45 18  1  0
 46 20  1  0
 47 20  1  0
 48 21  1  0
 49 21  1  0
 50 22  1  0
 51 22  1  0
 52 23  1  0
 53 23  1  0
 54 24  1  0
 55 24  1  0
 56 27  1  0
 57 27  1  0
 58 28  1  0
 59 28  1  0
M  END
>  <b_m_subgroup_collapsed>  (1568) 
0

>  <r_i_docking_score>  (1568) 
-4.6757743976689303

>  <s_m_subgroup_title>  (1568) 
glide-dock_SP_D22_pv

>  <s_m_subgroupid>  (1568) 
glide-dock_SP_D22_pv

>  <Molecule ChEMBL ID>  (1568) 
CHEMBL13647

>  <Standard Type>  (1568) 
Ki

>  <Standard Value>  (1568) 
14.0

>  <label>  (1568) 
1

$$$$
CHEMBL228333
     RDKit          3D

 70 75  0  0  1  0  0  0  0  0999 V2000
   13.6892   -2.0597  -21.1022 O   0  0  0  0  0  0  0  0  0  0  0  0
   13.9582   -0.9809  -22.0632 S   0  0  0  0  0  0  0  0  0  0  0  0
   13.8962   -1.2283  -23.5109 O   0  0  0  0  0  0  0  0  0  0  0  0
   12.8701    0.3128  -21.7142 N   0  0  0  0  0  0  0  0  0  0  0  0
   12.7521    0.8304  -20.3478 C   0  0  1  0  0  0  0  0  0  0  0  0
   13.6369    2.0845  -20.1700 C   0  0  0  0  0  0  0  0  0  0  0  0
   13.5034    2.6511  -18.7531 C   0  0  0  0  0  0  0  0  0  0  0  0
   12.0393    3.0080  -18.4675 C   0  0  2  0  0  0  0  0  0  0  0  0
   11.9266    3.7133  -17.1600 N   0  0  2  0  0  0  0  0  0  0  0  0
   11.6356    2.8651  -15.9688 C   0  0  0  0  0  0  0  0  0  0  0  0
   11.6829    3.6796  -14.6570 C   0  0  0  0  0  0  0  0  0  0  0  0
   10.7314    4.8818  -14.7401 C   0  0  1  0  0  0  0  0  0  0  0  0
   10.6366    5.6959  -13.4459 C   0  0  0  0  0  0  0  0  0  0  0  0
   11.6875    6.5719  -13.0828 C   0  0  0  0  0  0  0  0  0  0  0  0
   11.5918    7.3723  -11.9295 C   0  0  0  0  0  0  0  0  0  0  0  0
   10.4423    7.3088  -11.1259 C   0  0  0  0  0  0  0  0  0  0  0  0
    9.3963    6.4318  -11.4656 C   0  0  0  0  0  0  0  0  0  0  0  0
    9.4813    5.6121  -12.6211 C   0  0  0  0  0  0  0  0  0  0  0  0
    8.4785    4.7375  -12.9894 O   0  0  0  0  0  0  0  0  0  0  0  0
    7.3761    4.5725  -12.1072 C   0  0  0  0  0  0  0  0  0  0  0  0
    6.2448    5.5444  -12.3206 C   0  0  0  0  0  0  0  0  0  0  0  0
    6.1299    4.1247  -12.8295 C   0  0  0  0  0  0  0  0  0  0  0  0
   11.1440    5.7222  -15.9571 C   0  0  0  0  0  0  0  0  0  0  0  0
   11.0420    4.8995  -17.2398 C   0  0  0  0  0  0  0  0  0  0  0  0
   11.1269    1.7669  -18.6315 C   0  0  0  0  0  0  0  0  0  0  0  0
   11.2792    1.1544  -20.0363 C   0  0  0  0  0  0  0  0  0  0  0  0
   15.5355   -0.2336  -21.6864 C   0  0  0  0  0  0  0  0  0  0  0  0
   16.0827   -0.3949  -20.3884 C   0  0  0  0  0  0  0  0  0  0  0  0
   17.2662    0.2840  -20.0318 C   0  0  0  0  0  0  0  0  0  0  0  0
   17.8848    1.0861  -21.0083 C   0  0  0  0  0  0  0  0  0  0  0  0
   17.3629    1.2163  -22.2803 C   0  0  0  0  0  0  0  0  0  0  0  0
   16.1717    0.5740  -22.6568 C   0  0  0  0  0  0  0  0  0  0  0  0
   18.1814    1.9986  -23.0278 O   0  0  0  0  0  0  0  0  0  0  0  0
   19.2768    2.3147  -22.2029 C   0  0  0  0  0  0  0  0  0  0  0  0
   19.0516    1.7750  -20.9255 O   0  0  0  0  0  0  0  0  0  0  0  0
   12.9085    1.0445  -22.4219 H   0  0  0  0  0  0  0  0  0  0  0  0
   13.0843    0.0568  -19.6518 H   0  0  0  0  0  0  0  0  0  0  0  0
   13.3544    2.8484  -20.8994 H   0  0  0  0  0  0  0  0  0  0  0  0
   14.6861    1.8730  -20.3583 H   0  0  0  0  0  0  0  0  0  0  0  0
   14.1380    3.5349  -18.6555 H   0  0  0  0  0  0  0  0  0  0  0  0
   13.8616    1.9213  -18.0250 H   0  0  0  0  0  0  0  0  0  0  0  0
   11.7524    3.7126  -19.2520 H   0  0  0  0  0  0  0  0  0  0  0  0
   12.3540    2.0471  -15.9192 H   0  0  0  0  0  0  0  0  0  0  0  0
   10.6470    2.4135  -16.0649 H   0  0  0  0  0  0  0  0  0  0  0  0
   12.6998    4.0162  -14.4552 H   0  0  0  0  0  0  0  0  0  0  0  0
   11.3935    3.0353  -13.8275 H   0  0  0  0  0  0  0  0  0  0  0  0
    9.7365    4.4956  -14.9618 H   0  0  0  0  0  0  0  0  0  0  0  0
   12.5778    6.6405  -13.6891 H   0  0  0  0  0  0  0  0  0  0  0  0
   12.3986    8.0417  -11.6646 H   0  0  0  0  0  0  0  0  0  0  0  0
   10.3584    7.9284  -10.2443 H   0  0  0  0  0  0  0  0  0  0  0  0
    8.5286    6.4173  -10.8217 H   0  0  0  0  0  0  0  0  0  0  0  0
    7.5973    4.1735  -11.1182 H   0  0  0  0  0  0  0  0  0  0  0  0
    5.6534    5.8168  -11.4480 H   0  0  0  0  0  0  0  0  0  0  0  0
    6.3947    6.3408  -13.0467 H   0  0  0  0  0  0  0  0  0  0  0  0
    6.1901    3.9728  -13.9050 H   0  0  0  0  0  0  0  0  0  0  0  0
    5.4543    3.4577  -12.2967 H   0  0  0  0  0  0  0  0  0  0  0  0
   10.4862    6.5724  -16.0571 H   0  0  0  0  0  0  0  0  0  0  0  0
   12.1543    6.1194  -15.8469 H   0  0  0  0  0  0  0  0  0  0  0  0
   11.3330    5.5343  -18.0787 H   0  0  0  0  0  0  0  0  0  0  0  0
   10.0118    4.5873  -17.4167 H   0  0  0  0  0  0  0  0  0  0  0  0
   11.3742    1.0009  -17.8939 H   0  0  0  0  0  0  0  0  0  0  0  0
   10.0842    2.0403  -18.4677 H   0  0  0  0  0  0  0  0  0  0  0  0
   10.8879    1.8502  -20.7808 H   0  0  0  0  0  0  0  0  0  0  0  0
   10.6749    0.2487  -20.1115 H   0  0  0  0  0  0  0  0  0  0  0  0
   15.5821   -1.0194  -19.6624 H   0  0  0  0  0  0  0  0  0  0  0  0
   17.6913    0.1729  -19.0460 H   0  0  0  0  0  0  0  0  0  0  0  0
   15.7621    0.6946  -23.6489 H   0  0  0  0  0  0  0  0  0  0  0  0
   20.1904    1.8902  -22.6244 H   0  0  0  0  0  0  0  0  0  0  0  0
   19.3969    3.3968  -22.1359 H   0  0  0  0  0  0  0  0  0  0  0  0
   12.8467    4.0970  -16.9956 H   0  0  0  0  0  0  0  0  0  0  0  0
  2  1  2  0
  3  2  2  0
  4  2  1  0
  5  4  1  0
  6  5  1  0
  7  6  1  0
  8  7  1  0
  9  8  1  0
 10  9  1  0
 11 10  1  0
 12 11  1  0
 13 12  1  0
 14 13  2  0
 15 14  1  0
 16 15  2  0
 17 16  1  0
 18 13  1  0
 18 17  2  0
 19 18  1  0
 20 19  1  0
 21 20  1  0
 22 20  1  0
 22 21  1  0
 23 12  1  0
 24  9  1  0
 24 23  1  0
 25  8  1  0
 26  5  1  0
 26 25  1  0
 27  2  1  0
 28 27  1  0
 29 28  2  0
 30 29  1  0
 31 30  2  0
 32 27  2  0
 32 31  1  0
 33 31  1  0
 34 33  1  0
 35 30  1  0
 35 34  1  0
 36  4  1  0
  5 37  1  1
 38  6  1  0
 39  6  1  0
 40  7  1  0
 41  7  1  0
  8 42  1  6
 43 10  1  0
 44 10  1  0
 45 11  1  0
 46 11  1  0
 12 47  1  6
 48 14  1  0
 49 15  1  0
 50 16  1  0
 51 17  1  0
 52 20  1  0
 53 21  1  0
 54 21  1  0
 55 22  1  0
 56 22  1  0
 57 23  1  0
 58 23  1  0
 59 24  1  0
 60 24  1  0
 61 25  1  0
 62 25  1  0
 63 26  1  0
 64 26  1  0
 65 28  1  0
 66 29  1  0
 67 32  1  0
 68 34  1  0
 69 34  1  0
  9 70  1  1
M  CHG  1   9   1
M  END
>  <b_m_subgroup_collapsed>  (1569) 
0

>  <r_i_docking_score>  (1569) 
-4.6691820923297804

>  <s_m_subgroup_title>  (1569) 
glide-dock_SP_D22_pv

>  <s_m_subgroupid>  (1569) 
glide-dock_SP_D22_pv

>  <Molecule ChEMBL ID>  (1569) 
CHEMBL228333

>  <Standard Type>  (1569) 
Ki

>  <Standard Value>  (1569) 
71.0

>  <label>  (1569) 
1

$$$$
CHEMBL555744
     RDKit          3D

 41 43  0  0  1  0  0  0  0  0999 V2000
   10.5588   -0.7361  -17.4418 C   0  0  0  0  0  0  0  0  0  0  0  0
   10.1822   -0.2828  -16.1469 O   0  0  0  0  0  0  0  0  0  0  0  0
    9.6618    1.0400  -16.1749 C   0  0  0  0  0  0  0  0  0  0  0  0
    8.8974    1.4017  -14.8763 C   0  0  2  0  0  0  0  0  0  0  0  0
    7.8313    0.3543  -14.5261 C   0  0  0  0  0  0  0  0  0  0  0  0
    6.5335    0.8511  -15.1658 C   0  0  0  0  0  0  0  0  0  0  0  0
    6.8860    2.2471  -15.6818 C   0  0  0  0  0  0  0  0  0  0  0  0
    8.1494    2.6585  -15.0473 N   0  0  0  0  0  0  0  0  0  0  0  0
    8.0135    3.4148  -13.8468 N   0  0  0  0  0  0  0  0  0  0  0  0
    6.7382    3.5349  -13.1510 C   0  0  0  0  0  0  0  0  0  0  0  0
    7.1228    4.3747  -11.9411 C   0  0  0  0  0  0  0  0  0  0  0  0
    8.4942    4.7899  -12.2205 N   0  0  0  0  0  0  0  0  0  0  0  0
    9.1895    5.7061  -11.3718 C   0  0  0  0  0  0  0  0  0  0  0  0
   10.1564    6.6016  -11.8889 C   0  0  0  0  0  0  0  0  0  0  0  0
   10.8331    7.4979  -11.0402 C   0  0  0  0  0  0  0  0  0  0  0  0
   10.5570    7.5070   -9.6633 C   0  0  0  0  0  0  0  0  0  0  0  0
    9.5940    6.6264   -9.1359 C   0  0  0  0  0  0  0  0  0  0  0  0
    9.2855    6.6217   -7.4406 Cl  0  0  0  0  0  0  0  0  0  0  0  0
    8.8983    5.7426   -9.9860 C   0  0  0  0  0  0  0  0  0  0  0  0
    8.9877    4.1727  -13.3167 C   0  0  0  0  0  0  0  0  0  0  0  0
   10.1354    4.2615  -13.7597 O   0  0  0  0  0  0  0  0  0  0  0  0
   10.8852   -1.7771  -17.4068 H   0  0  0  0  0  0  0  0  0  0  0  0
    9.7198   -0.6924  -18.1405 H   0  0  0  0  0  0  0  0  0  0  0  0
   11.3771   -0.1348  -17.8442 H   0  0  0  0  0  0  0  0  0  0  0  0
    8.9956    1.1402  -17.0323 H   0  0  0  0  0  0  0  0  0  0  0  0
   10.4763    1.7465  -16.3356 H   0  0  0  0  0  0  0  0  0  0  0  0
    9.6229    1.4896  -14.0663 H   0  0  0  0  0  0  0  0  0  0  0  0
    7.7126    0.2878  -13.4464 H   0  0  0  0  0  0  0  0  0  0  0  0
    8.0982   -0.6277  -14.8835 H   0  0  0  0  0  0  0  0  0  0  0  0
    5.7268    0.8854  -14.4310 H   0  0  0  0  0  0  0  0  0  0  0  0
    6.2106    0.2021  -15.9797 H   0  0  0  0  0  0  0  0  0  0  0  0
    6.0898    2.9723  -15.5517 H   0  0  0  0  0  0  0  0  0  0  0  0
    7.0531    2.1858  -16.7561 H   0  0  0  0  0  0  0  0  0  0  0  0
    6.0101    4.0807  -13.7494 H   0  0  0  0  0  0  0  0  0  0  0  0
    6.3187    2.5731  -12.8632 H   0  0  0  0  0  0  0  0  0  0  0  0
    7.0776    3.7723  -11.0345 H   0  0  0  0  0  0  0  0  0  0  0  0
    6.4670    5.2381  -11.8160 H   0  0  0  0  0  0  0  0  0  0  0  0
   10.3888    6.6165  -12.9436 H   0  0  0  0  0  0  0  0  0  0  0  0
   11.5722    8.1716  -11.4463 H   0  0  0  0  0  0  0  0  0  0  0  0
   11.0847    8.1856   -9.0107 H   0  0  0  0  0  0  0  0  0  0  0  0
    8.1609    5.0825   -9.5550 H   0  0  0  0  0  0  0  0  0  0  0  0
  2  1  1  0
  3  2  1  0
  4  3  1  0
  5  4  1  0
  6  5  1  0
  7  6  1  0
  8  4  1  0
  8  7  1  0
  9  8  1  0
 10  9  1  0
 11 10  1  0
 12 11  1  0
 13 12  1  0
 14 13  2  0
 15 14  1  0
 16 15  2  0
 17 16  1  0
 18 17  1  0
 19 13  1  0
 19 17  2  0
 20  9  1  0
 20 12  1  0
 21 20  2  0
 22  1  1  0
 23  1  1  0
 24  1  1  0
 25  3  1  0
 26  3  1  0
  4 27  1  1
 28  5  1  0
 29  5  1  0
 30  6  1  0
 31  6  1  0
 32  7  1  0
 33  7  1  0
 34 10  1  0
 35 10  1  0
 36 11  1  0
 37 11  1  0
 38 14  1  0
 39 15  1  0
 40 16  1  0
 41 19  1  0
M  END
>  <b_m_subgroup_collapsed>  (1570) 
0

>  <r_i_docking_score>  (1570) 
-4.6147819574672901

>  <s_m_subgroup_title>  (1570) 
glide-dock_SP_D22_pv

>  <s_m_subgroupid>  (1570) 
glide-dock_SP_D22_pv

>  <Molecule ChEMBL ID>  (1570) 
CHEMBL555744

>  <Standard Type>  (1570) 
Ki

>  <Standard Value>  (1570) 
79.43

>  <label>  (1570) 
1

$$$$
CHEMBL1201087
     RDKit          3D

 71 74  0  0  1  0  0  0  0  0999 V2000
    9.3694    0.9140  -15.3247 C   0  0  0  0  0  0  0  0  0  0  0  0
    8.9914    2.1839  -15.1101 C   0  0  0  0  0  0  0  0  0  0  0  0
    9.1164    2.8980  -13.7771 C   0  0  0  0  0  0  0  0  0  0  0  0
    9.6971    4.2440  -13.8499 N   0  0  0  0  0  0  0  0  0  0  0  0
   10.9800    4.2290  -14.5682 C   0  0  0  0  0  0  0  0  0  0  0  0
   11.3506    5.6796  -14.9097 C   0  0  2  0  0  0  0  0  0  0  0  0
   12.4909    5.7633  -15.9537 C   0  0  0  0  0  0  0  0  0  0  0  0
   13.6401    5.7986  -15.5046 O   0  0  0  0  0  0  0  0  0  0  0  0
   12.2449    5.8705  -17.3038 N   0  0  0  0  0  0  0  0  0  0  0  0
   13.4170    6.1697  -18.1707 C   0  0  0  0  0  0  0  0  0  0  0  0
   13.6368    7.6834  -18.3626 C   0  0  0  0  0  0  0  0  0  0  0  0
   14.9025    7.9784  -19.1950 C   0  0  0  0  0  0  0  0  0  0  0  0
   15.0324    9.3886  -19.6523 N   0  0  0  0  0  0  0  0  0  0  0  0
   15.0489   10.3815  -18.5592 C   0  0  0  0  0  0  0  0  0  0  0  0
   14.0810    9.7543  -20.7241 C   0  0  0  0  0  0  0  0  0  0  0  0
   11.0403    5.5747  -17.8940 C   0  0  0  0  0  0  0  0  0  0  0  0
   10.1472    4.8950  -17.3912 O   0  0  0  0  0  0  0  0  0  0  0  0
   10.8566    6.1178  -19.1120 N   0  0  0  0  0  0  0  0  0  0  0  0
    9.7003    5.8711  -19.9720 C   0  0  0  0  0  0  0  0  0  0  0  0
    8.5184    6.7833  -19.6288 C   0  0  0  0  0  0  0  0  0  0  0  0
   11.6603    6.4113  -13.5892 C   0  0  0  0  0  0  0  0  0  0  0  0
   10.4498    6.3028  -12.6317 C   0  0  2  0  0  0  0  0  0  0  0  0
   10.7172    6.9724  -11.2781 C   0  0  0  0  0  0  0  0  0  0  0  0
   11.6723    7.9506  -10.9437 C   0  0  0  0  0  0  0  0  0  0  0  0
   11.7615    8.4043   -9.6158 C   0  0  0  0  0  0  0  0  0  0  0  0
   10.9257    7.8517   -8.6282 C   0  0  0  0  0  0  0  0  0  0  0  0
   10.0223    6.8546   -8.9499 C   0  0  0  0  0  0  0  0  0  0  0  0
    9.1624    6.1344   -8.1718 N   0  0  0  0  0  0  0  0  0  0  0  0
    8.4861    5.2044   -8.9437 C   0  0  0  0  0  0  0  0  0  0  0  0
    8.9336    5.3952  -10.2241 C   0  0  0  0  0  0  0  0  0  0  0  0
    9.9098    6.4185  -10.2635 C   0  0  0  0  0  0  0  0  0  0  0  0
    8.6775    4.7995  -11.5847 C   0  0  0  0  0  0  0  0  0  0  0  0
    9.9224    4.8326  -12.5142 C   0  0  1  0  0  0  0  0  0  0  0  0
    9.8007    0.3143  -14.5342 H   0  0  0  0  0  0  0  0  0  0  0  0
    9.2543    0.4581  -16.2962 H   0  0  0  0  0  0  0  0  0  0  0  0
    8.5614    2.7549  -15.9213 H   0  0  0  0  0  0  0  0  0  0  0  0
    8.0963    2.9761  -13.4048 H   0  0  0  0  0  0  0  0  0  0  0  0
    9.6832    2.2823  -13.0793 H   0  0  0  0  0  0  0  0  0  0  0  0
   11.7543    3.7530  -13.9651 H   0  0  0  0  0  0  0  0  0  0  0  0
   10.9284    3.6471  -15.4843 H   0  0  0  0  0  0  0  0  0  0  0  0
   10.4850    6.1734  -15.3371 H   0  0  0  0  0  0  0  0  0  0  0  0
   14.3302    5.7209  -17.7772 H   0  0  0  0  0  0  0  0  0  0  0  0
   13.3249    5.6867  -19.1444 H   0  0  0  0  0  0  0  0  0  0  0  0
   12.7565    8.1131  -18.8398 H   0  0  0  0  0  0  0  0  0  0  0  0
   13.7189    8.1649  -17.3869 H   0  0  0  0  0  0  0  0  0  0  0  0
   15.7874    7.7211  -18.6076 H   0  0  0  0  0  0  0  0  0  0  0  0
   14.9312    7.3312  -20.0740 H   0  0  0  0  0  0  0  0  0  0  0  0
   14.0880   10.4360  -18.0395 H   0  0  0  0  0  0  0  0  0  0  0  0
   15.2700   11.3713  -18.9578 H   0  0  0  0  0  0  0  0  0  0  0  0
   15.8299   10.1405  -17.8434 H   0  0  0  0  0  0  0  0  0  0  0  0
   13.0648    9.7721  -20.3365 H   0  0  0  0  0  0  0  0  0  0  0  0
   14.1233    9.0427  -21.5494 H   0  0  0  0  0  0  0  0  0  0  0  0
   14.3147   10.7413  -21.1238 H   0  0  0  0  0  0  0  0  0  0  0  0
   11.5972    6.6856  -19.4908 H   0  0  0  0  0  0  0  0  0  0  0  0
    9.9987    6.0322  -21.0089 H   0  0  0  0  0  0  0  0  0  0  0  0
    9.3977    4.8251  -19.9016 H   0  0  0  0  0  0  0  0  0  0  0  0
    7.6434    6.5233  -20.2250 H   0  0  0  0  0  0  0  0  0  0  0  0
    8.7580    7.8215  -19.8450 H   0  0  0  0  0  0  0  0  0  0  0  0
    8.2335    6.7032  -18.5788 H   0  0  0  0  0  0  0  0  0  0  0  0
   12.5379    5.9743  -13.1087 H   0  0  0  0  0  0  0  0  0  0  0  0
   11.8946    7.4563  -13.7879 H   0  0  0  0  0  0  0  0  0  0  0  0
    9.6254    6.8790  -13.0467 H   0  0  0  0  0  0  0  0  0  0  0  0
   12.3411    8.3562  -11.6883 H   0  0  0  0  0  0  0  0  0  0  0  0
   12.4859    9.1612   -9.3544 H   0  0  0  0  0  0  0  0  0  0  0  0
   11.0092    8.1919   -7.6073 H   0  0  0  0  0  0  0  0  0  0  0  0
    9.0046    6.2761   -7.1839 H   0  0  0  0  0  0  0  0  0  0  0  0
    7.7586    4.5270   -8.5297 H   0  0  0  0  0  0  0  0  0  0  0  0
    8.3307    3.7749  -11.4466 H   0  0  0  0  0  0  0  0  0  0  0  0
    7.8522    5.3302  -12.0608 H   0  0  0  0  0  0  0  0  0  0  0  0
   10.6751    4.2094  -12.0383 H   0  0  0  0  0  0  0  0  0  0  0  0
   15.9435    9.4450  -20.0832 H   0  0  0  0  0  0  0  0  0  0  0  0
  2  1  2  0
  3  2  1  0
  4  3  1  0
  5  4  1  0
  6  5  1  0
  7  6  1  0
  8  7  2  0
  9  7  1  0
 10  9  1  0
 11 10  1  0
 12 11  1  0
 13 12  1  0
 14 13  1  0
 15 13  1  0
 16  9  1  0
 17 16  2  0
 18 16  1  0
 19 18  1  0
 20 19  1  0
 21  6  1  0
 22 21  1  0
 23 22  1  0
 24 23  1  0
 25 24  2  0
 26 25  1  0
 27 26  2  0
 28 27  1  0
 29 28  1  0
 30 29  2  0
 31 23  2  0
 31 27  1  0
 31 30  1  0
 32 30  1  0
 33  4  1  0
 33 22  1  0
 33 32  1  0
 34  1  1  0
 35  1  1  0
 36  2  1  0
 37  3  1  0
 38  3  1  0
 39  5  1  0
 40  5  1  0
  6 41  1  6
 42 10  1  0
 43 10  1  0
 44 11  1  0
 45 11  1  0
 46 12  1  0
 47 12  1  0
 48 14  1  0
 49 14  1  0
 50 14  1  0
 51 15  1  0
 52 15  1  0
 53 15  1  0
 54 18  1  0
 55 19  1  0
 56 19  1  0
 57 20  1  0
 58 20  1  0
 59 20  1  0
 60 21  1  0
 61 21  1  0
 22 62  1  6
 63 24  1  0
 64 25  1  0
 65 26  1  0
 66 28  1  0
 67 29  1  0
 68 32  1  0
 69 32  1  0
 33 70  1  1
 71 13  1  0
M  CHG  1  13   1
M  END
>  <b_m_subgroup_collapsed>  (1571) 
0

>  <r_i_docking_score>  (1571) 
-4.61244603646667

>  <s_m_subgroup_title>  (1571) 
glide-dock_SP_D22_pv

>  <s_m_subgroupid>  (1571) 
glide-dock_SP_D22_pv

>  <Molecule ChEMBL ID>  (1571) 
CHEMBL1201087

>  <Standard Type>  (1571) 
Ki

>  <Standard Value>  (1571) 
0.36

>  <label>  (1571) 
1

$$$$
CHEMBL4579883
     RDKit          3D

 55 58  0  0  1  0  0  0  0  0999 V2000
   12.6149    9.2384   -1.2520 C   0  0  0  0  0  0  0  0  0  0  0  0
   12.1118    9.3748   -2.6821 C   0  0  0  0  0  0  0  0  0  0  0  0
   12.2357    8.0588   -3.4609 C   0  0  0  0  0  0  0  0  0  0  0  0
   11.3617    8.0353   -4.6533 N   0  0  0  0  0  0  0  0  0  0  0  0
   11.2485    6.6665   -5.2255 C   0  0  0  0  0  0  0  0  0  0  0  0
   10.3107    6.6165   -6.4377 C   0  0  0  0  0  0  0  0  0  0  0  0
   10.5992    7.7019   -7.3569 N   0  0  0  0  0  0  0  0  0  0  0  0
   10.7187    7.4966   -8.7421 C   0  0  0  0  0  0  0  0  0  0  0  0
   11.6818    8.2295   -9.4773 C   0  0  0  0  0  0  0  0  0  0  0  0
   11.7957    8.0842  -10.8741 C   0  0  0  0  0  0  0  0  0  0  0  0
   10.9443    7.2053  -11.5712 C   0  0  0  0  0  0  0  0  0  0  0  0
   10.0166    6.4364  -10.8407 C   0  0  0  0  0  0  0  0  0  0  0  0
    9.9079    6.5853   -9.4616 C   0  0  0  0  0  0  0  0  0  0  0  0
    8.8076    5.6996   -8.9646 C   0  0  0  0  0  0  0  0  0  0  0  0
    8.1958    5.2161  -10.2811 C   0  0  0  0  0  0  0  0  0  0  0  0
    9.1261    5.4959  -11.3761 N   0  0  0  0  0  0  0  0  0  0  0  0
    8.5398    5.5095  -13.0014 S   0  0  0  0  0  0  0  0  0  0  0  0
    9.7290    5.3728  -13.8588 O   0  0  0  0  0  0  0  0  0  0  0  0
    7.6855    6.7026  -13.0469 O   0  0  0  0  0  0  0  0  0  0  0  0
    7.5318    4.0422  -13.2239 C   0  0  0  0  0  0  0  0  0  0  0  0
    6.2458    3.9572  -12.6517 C   0  0  0  0  0  0  0  0  0  0  0  0
    5.4703    2.7987  -12.8624 C   0  0  0  0  0  0  0  0  0  0  0  0
    5.9687    1.7413  -13.6511 C   0  0  0  0  0  0  0  0  0  0  0  0
    7.2384    1.8443  -14.2486 C   0  0  0  0  0  0  0  0  0  0  0  0
    8.0243    2.9936  -14.0320 C   0  0  0  0  0  0  0  0  0  0  0  0
   10.6736    9.0475   -6.8137 C   0  0  0  0  0  0  0  0  0  0  0  0
   11.6751    9.0882   -5.6581 C   0  0  0  0  0  0  0  0  0  0  0  0
   12.4861   10.1724   -0.7152 H   0  0  0  0  0  0  0  0  0  0  0  0
   12.0471    8.4888   -0.7104 H   0  0  0  0  0  0  0  0  0  0  0  0
   13.6721    8.9723   -1.2188 H   0  0  0  0  0  0  0  0  0  0  0  0
   12.6645   10.1716   -3.1783 H   0  0  0  0  0  0  0  0  0  0  0  0
   11.0713    9.6959   -2.6547 H   0  0  0  0  0  0  0  0  0  0  0  0
   11.9352    7.2376   -2.8064 H   0  0  0  0  0  0  0  0  0  0  0  0
   13.2727    7.8675   -3.7432 H   0  0  0  0  0  0  0  0  0  0  0  0
   10.8865    5.9769   -4.4624 H   0  0  0  0  0  0  0  0  0  0  0  0
   12.2296    6.2990   -5.5168 H   0  0  0  0  0  0  0  0  0  0  0  0
    9.2654    6.6724   -6.1282 H   0  0  0  0  0  0  0  0  0  0  0  0
   10.4639    5.6655   -6.9353 H   0  0  0  0  0  0  0  0  0  0  0  0
   12.3532    8.9163   -8.9812 H   0  0  0  0  0  0  0  0  0  0  0  0
   12.5339    8.6593  -11.4151 H   0  0  0  0  0  0  0  0  0  0  0  0
   11.0310    7.1150  -12.6422 H   0  0  0  0  0  0  0  0  0  0  0  0
    9.2156    4.8487   -8.4206 H   0  0  0  0  0  0  0  0  0  0  0  0
    8.0861    6.2268   -8.3385 H   0  0  0  0  0  0  0  0  0  0  0  0
    7.2860    5.7723  -10.4814 H   0  0  0  0  0  0  0  0  0  0  0  0
    7.9118    4.1724  -10.2355 H   0  0  0  0  0  0  0  0  0  0  0  0
    5.8572    4.7710  -12.0556 H   0  0  0  0  0  0  0  0  0  0  0  0
    4.4873    2.7165  -12.4254 H   0  0  0  0  0  0  0  0  0  0  0  0
    5.3680    0.8559  -13.8096 H   0  0  0  0  0  0  0  0  0  0  0  0
    7.6127    1.0380  -14.8640 H   0  0  0  0  0  0  0  0  0  0  0  0
    9.0013    3.0633  -14.4891 H   0  0  0  0  0  0  0  0  0  0  0  0
   10.9318    9.7796   -7.5742 H   0  0  0  0  0  0  0  0  0  0  0  0
    9.6848    9.3225   -6.4515 H   0  0  0  0  0  0  0  0  0  0  0  0
   11.6267   10.0780   -5.2058 H   0  0  0  0  0  0  0  0  0  0  0  0
   12.6890    8.9725   -6.0389 H   0  0  0  0  0  0  0  0  0  0  0  0
   10.4320    8.2544   -4.3296 H   0  0  0  0  0  0  0  0  0  0  0  0
  2  1  1  0
  3  2  1  0
  4  3  1  0
  5  4  1  0
  6  5  1  0
  7  6  1  0
  8  7  1  0
  9  8  1  0
 10  9  2  0
 11 10  1  0
 12 11  2  0
 13  8  2  0
 13 12  1  0
 14 13  1  0
 15 14  1  0
 16 12  1  0
 16 15  1  0
 17 16  1  0
 18 17  2  0
 19 17  2  0
 20 17  1  0
 21 20  2  0
 22 21  1  0
 23 22  2  0
 24 23  1  0
 25 20  1  0
 25 24  2  0
 26  7  1  0
 27  4  1  0
 27 26  1  0
 28  1  1  0
 29  1  1  0
 30  1  1  0
 31  2  1  0
 32  2  1  0
 33  3  1  0
 34  3  1  0
 35  5  1  0
 36  5  1  0
 37  6  1  0
 38  6  1  0
 39  9  1  0
 40 10  1  0
 41 11  1  0
 42 14  1  0
 43 14  1  0
 44 15  1  0
 45 15  1  0
 46 21  1  0
 47 22  1  0
 48 23  1  0
 49 24  1  0
 50 25  1  0
 51 26  1  0
 52 26  1  0
 53 27  1  0
 54 27  1  0
 55  4  1  0
M  CHG  1   4   1
M  END
>  <b_m_subgroup_collapsed>  (1572) 
0

>  <r_i_docking_score>  (1572) 
-4.57165976266469

>  <s_m_subgroup_title>  (1572) 
glide-dock_SP_D22_pv

>  <s_m_subgroupid>  (1572) 
glide-dock_SP_D22_pv

>  <Molecule ChEMBL ID>  (1572) 
CHEMBL4579883

>  <Standard Type>  (1572) 
Ki

>  <Standard Value>  (1572) 
42.0

>  <label>  (1572) 
1

$$$$
CHEMBL4250274
     RDKit          3D

 70 75  0  0  1  0  0  0  0  0999 V2000
    9.5904    5.0713  -17.6184 O   0  0  0  0  0  0  0  0  0  0  0  0
    9.6153    3.7425  -18.2480 S   0  0  0  0  0  0  0  0  0  0  0  0
    8.8871    3.5574  -19.5129 O   0  0  0  0  0  0  0  0  0  0  0  0
   11.3517    3.2800  -18.4877 C   0  0  0  0  0  0  0  0  0  0  0  0
   12.3075    4.0988  -17.8503 C   0  0  0  0  0  0  0  0  0  0  0  0
   13.6655    3.7723  -17.9632 C   0  0  0  0  0  0  0  0  0  0  0  0
   14.1061    2.7018  -18.6473 N   0  0  0  0  0  0  0  0  0  0  0  0
   13.2101    1.8973  -19.2574 C   0  0  0  0  0  0  0  0  0  0  0  0
   13.6880    0.7601  -19.9415 C   0  0  0  0  0  0  0  0  0  0  0  0
   12.8130   -0.1114  -20.6118 C   0  0  0  0  0  0  0  0  0  0  0  0
   11.4366    0.1600  -20.6182 C   0  0  0  0  0  0  0  0  0  0  0  0
   10.9390    1.2880  -19.9406 C   0  0  0  0  0  0  0  0  0  0  0  0
   11.8065    2.1536  -19.2327 C   0  0  0  0  0  0  0  0  0  0  0  0
    8.9778    2.5779  -17.0878 N   0  0  0  0  0  0  0  0  0  0  0  0
    8.1241    1.4672  -17.5813 C   0  0  0  0  0  0  0  0  0  0  0  0
    8.3458    0.0940  -16.9114 C   0  0  0  0  0  0  0  0  0  0  0  0
    9.8144   -0.3427  -16.8017 C   0  0  0  0  0  0  0  0  0  0  0  0
   10.4918    0.1941  -15.5368 C   0  0  0  0  0  0  0  0  0  0  0  0
   10.7139    1.6982  -15.5230 C   0  0  0  0  0  0  0  0  0  0  0  0
    9.4129    2.5065  -15.6624 C   0  0  1  0  0  0  0  0  0  0  0  0
    9.5262    3.8738  -14.9706 C   0  0  0  0  0  0  0  0  0  0  0  0
    9.5982    3.7339  -13.4377 C   0  0  0  0  0  0  0  0  0  0  0  0
    9.2649    4.9770  -12.7598 N   0  0  0  0  0  0  0  0  0  0  0  0
    9.1670    4.7165  -11.3190 C   0  0  0  0  0  0  0  0  0  0  0  0
    8.8279    5.9986  -10.5379 C   0  0  0  0  0  0  0  0  0  0  0  0
    9.7390    7.0855  -10.8862 N   0  0  0  0  0  0  0  0  0  0  0  0
   10.7645    7.5209  -10.0303 C   0  0  0  0  0  0  0  0  0  0  0  0
   12.0107    7.6270  -10.4448 N   0  0  0  0  0  0  0  0  0  0  0  0
   12.9688    8.1723   -9.1891 S   0  0  0  0  0  0  0  0  0  0  0  0
   11.6706    8.4198   -8.0632 C   0  0  0  0  0  0  0  0  0  0  0  0
   11.6863    8.9590   -6.7667 C   0  0  0  0  0  0  0  0  0  0  0  0
   10.4856    9.0268   -6.0475 C   0  0  0  0  0  0  0  0  0  0  0  0
    9.2910    8.5724   -6.6469 C   0  0  0  0  0  0  0  0  0  0  0  0
    9.2884    8.0547   -7.9446 C   0  0  0  0  0  0  0  0  0  0  0  0
   10.4775    7.9646   -8.6899 C   0  0  0  0  0  0  0  0  0  0  0  0
    9.8276    7.2952  -12.3108 C   0  0  0  0  0  0  0  0  0  0  0  0
   10.2820    6.0011  -13.0032 C   0  0  0  0  0  0  0  0  0  0  0  0
   12.0107    4.9629  -17.2747 H   0  0  0  0  0  0  0  0  0  0  0  0
   14.4184    4.3791  -17.4808 H   0  0  0  0  0  0  0  0  0  0  0  0
   14.7484    0.5567  -19.9518 H   0  0  0  0  0  0  0  0  0  0  0  0
   13.1979   -0.9790  -21.1288 H   0  0  0  0  0  0  0  0  0  0  0  0
   10.7584   -0.4955  -21.1448 H   0  0  0  0  0  0  0  0  0  0  0  0
    9.8808    1.4583  -19.9881 H   0  0  0  0  0  0  0  0  0  0  0  0
    7.0823    1.7588  -17.4502 H   0  0  0  0  0  0  0  0  0  0  0  0
    8.2486    1.3428  -18.6525 H   0  0  0  0  0  0  0  0  0  0  0  0
    7.8664    0.0527  -15.9324 H   0  0  0  0  0  0  0  0  0  0  0  0
    7.8126   -0.6483  -17.5067 H   0  0  0  0  0  0  0  0  0  0  0  0
    9.8522   -1.4289  -16.7644 H   0  0  0  0  0  0  0  0  0  0  0  0
   10.3756   -0.0606  -17.6894 H   0  0  0  0  0  0  0  0  0  0  0  0
    9.9407   -0.1187  -14.6486 H   0  0  0  0  0  0  0  0  0  0  0  0
   11.4807   -0.2278  -15.4504 H   0  0  0  0  0  0  0  0  0  0  0  0
   11.2084    1.9282  -14.5808 H   0  0  0  0  0  0  0  0  0  0  0  0
   11.4409    1.9680  -16.2816 H   0  0  0  0  0  0  0  0  0  0  0  0
    8.6264    1.9926  -15.1089 H   0  0  0  0  0  0  0  0  0  0  0  0
   10.4071    4.4004  -15.3363 H   0  0  0  0  0  0  0  0  0  0  0  0
    8.6613    4.4839  -15.2168 H   0  0  0  0  0  0  0  0  0  0  0  0
    8.8737    2.9840  -13.1239 H   0  0  0  0  0  0  0  0  0  0  0  0
   10.5790    3.3858  -13.1127 H   0  0  0  0  0  0  0  0  0  0  0  0
    8.3677    3.9965  -11.1498 H   0  0  0  0  0  0  0  0  0  0  0  0
   10.0860    4.2743  -10.9400 H   0  0  0  0  0  0  0  0  0  0  0  0
    7.8081    6.2854  -10.7875 H   0  0  0  0  0  0  0  0  0  0  0  0
    8.8465    5.7927   -9.4675 H   0  0  0  0  0  0  0  0  0  0  0  0
   12.6085    9.3140   -6.3307 H   0  0  0  0  0  0  0  0  0  0  0  0
   10.4824    9.4347   -5.0478 H   0  0  0  0  0  0  0  0  0  0  0  0
    8.3469    8.6160   -6.1299 H   0  0  0  0  0  0  0  0  0  0  0  0
    8.3593    7.7296   -8.3826 H   0  0  0  0  0  0  0  0  0  0  0  0
    8.8347    7.5935  -12.6469 H   0  0  0  0  0  0  0  0  0  0  0  0
   10.4930    8.1234  -12.5434 H   0  0  0  0  0  0  0  0  0  0  0  0
   11.2617    5.6839  -12.6468 H   0  0  0  0  0  0  0  0  0  0  0  0
   10.3928    6.1721  -14.0708 H   0  0  0  0  0  0  0  0  0  0  0  0
  2  1  2  0
  3  2  2  0
  4  2  1  0
  5  4  2  0
  6  5  1  0
  7  6  2  0
  8  7  1  0
  9  8  2  0
 10  9  1  0
 11 10  2  0
 12 11  1  0
 13  4  1  0
 13  8  1  0
 13 12  2  0
 14  2  1  0
 15 14  1  0
 16 15  1  0
 17 16  1  0
 18 17  1  0
 19 18  1  0
 20 14  1  0
 20 19  1  0
 21 20  1  0
 22 21  1  0
 23 22  1  0
 24 23  1  0
 25 24  1  0
 26 25  1  0
 27 26  1  0
 28 27  2  0
 29 28  1  0
 30 29  1  0
 31 30  2  0
 32 31  1  0
 33 32  2  0
 34 33  1  0
 35 27  1  0
 35 30  1  0
 35 34  2  0
 36 26  1  0
 37 23  1  0
 37 36  1  0
 38  5  1  0
 39  6  1  0
 40  9  1  0
 41 10  1  0
 42 11  1  0
 43 12  1  0
 44 15  1  0
 45 15  1  0
 46 16  1  0
 47 16  1  0
 48 17  1  0
 49 17  1  0
 50 18  1  0
 51 18  1  0
 52 19  1  0
 53 19  1  0
 20 54  1  1
 55 21  1  0
 56 21  1  0
 57 22  1  0
 58 22  1  0
 59 24  1  0
 60 24  1  0
 61 25  1  0
 62 25  1  0
 63 31  1  0
 64 32  1  0
 65 33  1  0
 66 34  1  0
 67 36  1  0
 68 36  1  0
 69 37  1  0
 70 37  1  0
M  END
>  <b_m_subgroup_collapsed>  (1573) 
0

>  <r_i_docking_score>  (1573) 
-4.5679996438031196

>  <s_m_subgroup_title>  (1573) 
glide-dock_SP_D22_pv

>  <s_m_subgroupid>  (1573) 
glide-dock_SP_D22_pv

>  <Molecule ChEMBL ID>  (1573) 
CHEMBL4250274

>  <Standard Type>  (1573) 
Ki

>  <Standard Value>  (1573) 
3.0

>  <label>  (1573) 
1

$$$$
CHEMBL2391541
     RDKit          3D

 43 44  0  0  1  0  0  0  0  0999 V2000
    8.8105    3.7902   -8.2471 C   0  0  0  0  0  0  0  0  0  0  0  0
    9.4385    4.9723   -8.1565 C   0  0  0  0  0  0  0  0  0  0  0  0
    8.7414    6.3157   -8.0454 C   0  0  0  0  0  0  0  0  0  0  0  0
    8.8860    7.1934   -9.2479 N   0  0  0  0  0  0  0  0  0  0  0  0
    9.1853    8.6089   -8.8999 C   0  0  0  0  0  0  0  0  0  0  0  0
   10.6174    8.8203   -8.4382 C   0  0  0  0  0  0  0  0  0  0  0  0
   10.9670    9.1971   -7.1992 C   0  0  0  0  0  0  0  0  0  0  0  0
    9.7120    6.6117  -10.3381 C   0  0  0  0  0  0  0  0  0  0  0  0
    9.6996    7.3695  -11.6625 C   0  0  0  0  0  0  0  0  0  0  0  0
   10.4892    6.5694  -12.6469 C   0  0  0  0  0  0  0  0  0  0  0  0
   11.7760    6.8104  -13.0504 C   0  0  0  0  0  0  0  0  0  0  0  0
   12.1668    5.8110  -13.9233 N   0  0  0  0  0  0  0  0  0  0  0  0
   11.1470    4.9030  -14.1209 C   0  0  0  0  0  0  0  0  0  0  0  0
   11.0544    3.7293  -14.8860 C   0  0  0  0  0  0  0  0  0  0  0  0
    9.8466    3.0078  -14.8979 C   0  0  0  0  0  0  0  0  0  0  0  0
    8.7342    3.4551  -14.1558 C   0  0  0  0  0  0  0  0  0  0  0  0
    7.5789    2.7071  -14.2468 O   0  0  0  0  0  0  0  0  0  0  0  0
    6.3972    3.2192  -13.6438 C   0  0  0  0  0  0  0  0  0  0  0  0
    8.8563    4.6298  -13.3708 C   0  0  0  0  0  0  0  0  0  0  0  0
   10.0601    5.3732  -13.3327 C   0  0  0  0  0  0  0  0  0  0  0  0
    7.7360    3.7259   -8.2576 H   0  0  0  0  0  0  0  0  0  0  0  0
    9.3575    2.8610   -8.3043 H   0  0  0  0  0  0  0  0  0  0  0  0
   10.5189    4.9893   -8.1624 H   0  0  0  0  0  0  0  0  0  0  0  0
    7.6861    6.1263   -7.8752 H   0  0  0  0  0  0  0  0  0  0  0  0
    9.1064    6.8100   -7.1445 H   0  0  0  0  0  0  0  0  0  0  0  0
    8.9864    9.2545   -9.7554 H   0  0  0  0  0  0  0  0  0  0  0  0
    8.4924    8.9348   -8.1225 H   0  0  0  0  0  0  0  0  0  0  0  0
   11.3945    8.6577   -9.1715 H   0  0  0  0  0  0  0  0  0  0  0  0
   12.0048    9.3351   -6.9312 H   0  0  0  0  0  0  0  0  0  0  0  0
   10.2237    9.3719   -6.4354 H   0  0  0  0  0  0  0  0  0  0  0  0
   10.7426    6.4923  -10.0003 H   0  0  0  0  0  0  0  0  0  0  0  0
    9.3262    5.6162  -10.5629 H   0  0  0  0  0  0  0  0  0  0  0  0
    8.6760    7.5079  -12.0142 H   0  0  0  0  0  0  0  0  0  0  0  0
   10.1332    8.3630  -11.5500 H   0  0  0  0  0  0  0  0  0  0  0  0
   12.4603    7.6000  -12.7753 H   0  0  0  0  0  0  0  0  0  0  0  0
   13.0948    5.7672  -14.3211 H   0  0  0  0  0  0  0  0  0  0  0  0
   11.8988    3.3861  -15.4653 H   0  0  0  0  0  0  0  0  0  0  0  0
    9.7644    2.1061  -15.4882 H   0  0  0  0  0  0  0  0  0  0  0  0
    5.5699    2.5394  -13.8448 H   0  0  0  0  0  0  0  0  0  0  0  0
    6.4926    3.3014  -12.5613 H   0  0  0  0  0  0  0  0  0  0  0  0
    6.1312    4.1921  -14.0573 H   0  0  0  0  0  0  0  0  0  0  0  0
    8.0289    4.9944  -12.7840 H   0  0  0  0  0  0  0  0  0  0  0  0
    7.9365    7.2540   -9.6297 H   0  0  0  0  0  0  0  0  0  0  0  0
  2  1  2  0
  3  2  1  0
  4  3  1  0
  5  4  1  0
  6  5  1  0
  7  6  2  0
  8  4  1  0
  9  8  1  0
 10  9  1  0
 11 10  2  0
 12 11  1  0
 13 12  1  0
 14 13  2  0
 15 14  1  0
 16 15  2  0
 17 16  1  0
 18 17  1  0
 19 16  1  0
 20 10  1  0
 20 13  1  0
 20 19  2  0
 21  1  1  0
 22  1  1  0
 23  2  1  0
 24  3  1  0
 25  3  1  0
 26  5  1  0
 27  5  1  0
 28  6  1  0
 29  7  1  0
 30  7  1  0
 31  8  1  0
 32  8  1  0
 33  9  1  0
 34  9  1  0
 35 11  1  0
 36 12  1  0
 37 14  1  0
 38 15  1  0
 39 18  1  0
 40 18  1  0
 41 18  1  0
 42 19  1  0
 43  4  1  0
M  CHG  1   4   1
M  END
>  <b_m_subgroup_collapsed>  (1574) 
0

>  <r_i_docking_score>  (1574) 
-4.4376925344071303

>  <s_m_subgroup_title>  (1574) 
glide-dock_SP_D22_pv

>  <s_m_subgroupid>  (1574) 
glide-dock_SP_D22_pv

>  <Molecule ChEMBL ID>  (1574) 
CHEMBL2391541

>  <Standard Type>  (1574) 
Ki

>  <Standard Value>  (1574) 
10000.0

>  <label>  (1574) 
0

$$$$
CHEMBL212861
     RDKit          3D

 51 53  0  0  1  0  0  0  0  0999 V2000
   14.1126    5.8185  -16.6053 C   0  0  0  0  0  0  0  0  0  0  0  0
   13.0262    5.0771  -16.0802 O   0  0  0  0  0  0  0  0  0  0  0  0
   12.4366    5.8468  -15.0684 N   0  0  0  0  0  0  0  0  0  0  0  0
   11.6202    5.1924  -14.3402 C   0  0  0  0  0  0  0  0  0  0  0  0
   11.3285    3.7028  -14.5390 C   0  0  0  0  0  0  0  0  0  0  0  0
   10.2105    3.4775  -15.5739 C   0  0  0  0  0  0  0  0  0  0  0  0
    9.6776    2.1143  -15.5347 N   0  0  0  0  0  0  0  0  0  0  0  0
    8.7901    1.9419  -14.3735 C   0  0  0  0  0  0  0  0  0  0  0  0
    8.2513    0.5034  -14.3349 C   0  0  0  0  0  0  0  0  0  0  0  0
    7.5158    0.2251  -15.5601 N   0  0  0  0  0  0  0  0  0  0  0  0
    6.1768   -0.2165  -15.5575 C   0  0  0  0  0  0  0  0  0  0  0  0
    5.6414   -0.9262  -16.6577 C   0  0  0  0  0  0  0  0  0  0  0  0
    4.2988   -1.3468  -16.6188 C   0  0  0  0  0  0  0  0  0  0  0  0
    3.5255   -1.0260  -15.4916 C   0  0  0  0  0  0  0  0  0  0  0  0
    4.1334   -0.3146  -14.4455 C   0  0  0  0  0  0  0  0  0  0  0  0
    5.4261    0.0732  -14.4669 N   0  0  0  0  0  0  0  0  0  0  0  0
    8.2734    0.4725  -16.7821 C   0  0  0  0  0  0  0  0  0  0  0  0
    8.8860    1.8912  -16.7509 C   0  0  0  0  0  0  0  0  0  0  0  0
   10.9319    5.8378  -13.1873 C   0  0  0  0  0  0  0  0  0  0  0  0
   11.5033    6.9733  -12.5632 C   0  0  0  0  0  0  0  0  0  0  0  0
   10.8860    7.5703  -11.4466 C   0  0  0  0  0  0  0  0  0  0  0  0
    9.6790    7.0541  -10.9478 C   0  0  0  0  0  0  0  0  0  0  0  0
    9.0875    5.9383  -11.5673 C   0  0  0  0  0  0  0  0  0  0  0  0
    7.7929    5.3726  -11.0286 C   0  0  0  0  0  0  0  0  0  0  0  0
    9.7039    5.3443  -12.6839 C   0  0  0  0  0  0  0  0  0  0  0  0
   14.6103    5.2398  -17.3829 H   0  0  0  0  0  0  0  0  0  0  0  0
   13.7763    6.7582  -17.0468 H   0  0  0  0  0  0  0  0  0  0  0  0
   14.8506    6.0396  -15.8320 H   0  0  0  0  0  0  0  0  0  0  0  0
   11.0954    3.2583  -13.5725 H   0  0  0  0  0  0  0  0  0  0  0  0
   12.2264    3.1783  -14.8612 H   0  0  0  0  0  0  0  0  0  0  0  0
   10.6296    3.6822  -16.5612 H   0  0  0  0  0  0  0  0  0  0  0  0
    9.3965    4.1921  -15.4358 H   0  0  0  0  0  0  0  0  0  0  0  0
    7.9607    2.6510  -14.4101 H   0  0  0  0  0  0  0  0  0  0  0  0
    9.3243    2.1338  -13.4464 H   0  0  0  0  0  0  0  0  0  0  0  0
    7.6431    0.3500  -13.4463 H   0  0  0  0  0  0  0  0  0  0  0  0
    9.0816   -0.1998  -14.2638 H   0  0  0  0  0  0  0  0  0  0  0  0
    6.2421   -1.1844  -17.5151 H   0  0  0  0  0  0  0  0  0  0  0  0
    3.8673   -1.9018  -17.4385 H   0  0  0  0  0  0  0  0  0  0  0  0
    2.4878   -1.3163  -15.4428 H   0  0  0  0  0  0  0  0  0  0  0  0
    3.5661   -0.0509  -13.5640 H   0  0  0  0  0  0  0  0  0  0  0  0
    9.0571   -0.2805  -16.8732 H   0  0  0  0  0  0  0  0  0  0  0  0
    7.6467    0.3896  -17.6687 H   0  0  0  0  0  0  0  0  0  0  0  0
    8.0910    2.6359  -16.8174 H   0  0  0  0  0  0  0  0  0  0  0  0
    9.5231    2.0290  -17.6258 H   0  0  0  0  0  0  0  0  0  0  0  0
   12.4372    7.3834  -12.9219 H   0  0  0  0  0  0  0  0  0  0  0  0
   11.3407    8.4273  -10.9708 H   0  0  0  0  0  0  0  0  0  0  0  0
    9.1989    7.5144  -10.0949 H   0  0  0  0  0  0  0  0  0  0  0  0
    7.7729    4.2854  -11.1044 H   0  0  0  0  0  0  0  0  0  0  0  0
    7.6858    5.6399   -9.9771 H   0  0  0  0  0  0  0  0  0  0  0  0
    6.9393    5.7749  -11.5754 H   0  0  0  0  0  0  0  0  0  0  0  0
    9.2176    4.4973  -13.1389 H   0  0  0  0  0  0  0  0  0  0  0  0
  2  1  1  0
  3  2  1  0
  4  3  2  0
  5  4  1  0
  6  5  1  0
  7  6  1  0
  8  7  1  0
  9  8  1  0
 10  9  1  0
 11 10  1  0
 12 11  2  0
 13 12  1  0
 14 13  2  0
 15 14  1  0
 16 11  1  0
 16 15  2  0
 17 10  1  0
 18  7  1  0
 18 17  1  0
 19  4  1  0
 20 19  1  0
 21 20  2  0
 22 21  1  0
 23 22  2  0
 24 23  1  0
 25 19  2  0
 25 23  1  0
 26  1  1  0
 27  1  1  0
 28  1  1  0
 29  5  1  0
 30  5  1  0
 31  6  1  0
 32  6  1  0
 33  8  1  0
 34  8  1  0
 35  9  1  0
 36  9  1  0
 37 12  1  0
 38 13  1  0
 39 14  1  0
 40 15  1  0
 41 17  1  0
 42 17  1  0
 43 18  1  0
 44 18  1  0
 45 20  1  0
 46 21  1  0
 47 22  1  0
 48 24  1  0
 49 24  1  0
 50 24  1  0
 51 25  1  0
M  END
>  <b_m_subgroup_collapsed>  (1575) 
0

>  <r_i_docking_score>  (1575) 
-4.4342016790042198

>  <s_m_subgroup_title>  (1575) 
glide-dock_SP_D22_pv

>  <s_m_subgroupid>  (1575) 
glide-dock_SP_D22_pv

>  <Molecule ChEMBL ID>  (1575) 
CHEMBL212861

>  <Standard Type>  (1575) 
Ki

>  <Standard Value>  (1575) 
68.4

>  <label>  (1575) 
1

$$$$
CHEMBL2111582
     RDKit          3D

 54 55  0  0  1  0  0  0  0  0999 V2000
    9.2654    6.6187  -18.9686 C   0  0  0  0  0  0  0  0  0  0  0  0
    9.5476    5.2834  -18.2721 C   0  0  0  0  0  0  0  0  0  0  0  0
   10.6863    5.3899  -17.2411 C   0  0  0  0  0  0  0  0  0  0  0  0
   11.0071    4.0914  -16.5617 N   0  0  1  0  0  0  0  0  0  0  0  0
   12.4382    3.9701  -16.1437 C   0  0  0  0  0  0  0  0  0  0  0  0
   12.8821    5.0895  -15.1804 C   0  0  0  0  0  0  0  0  0  0  0  0
   13.3777    3.8465  -17.3606 C   0  0  0  0  0  0  0  0  0  0  0  0
   10.0280    3.5972  -15.5260 C   0  0  2  0  0  0  0  0  0  0  0  0
    9.0301    2.5872  -16.1180 C   0  0  0  0  0  0  0  0  0  0  0  0
    8.1704    2.0353  -15.1315 O   0  0  0  0  0  0  0  0  0  0  0  0
    7.5724    2.9056  -14.2469 C   0  0  0  0  0  0  0  0  0  0  0  0
    6.3805    2.4770  -13.6336 C   0  0  0  0  0  0  0  0  0  0  0  0
    5.7179    3.2978  -12.7053 C   0  0  0  0  0  0  0  0  0  0  0  0
    6.2521    4.5545  -12.3734 C   0  0  0  0  0  0  0  0  0  0  0  0
    7.4454    5.0073  -12.9736 C   0  0  0  0  0  0  0  0  0  0  0  0
    7.9184    6.3957  -12.6469 C   0  0  0  0  0  0  0  0  0  0  0  0
    7.2865    7.3725  -13.0465 O   0  0  0  0  0  0  0  0  0  0  0  0
    9.0762    6.4731  -11.9719 N   0  0  0  0  0  0  0  0  0  0  0  0
    9.8217    7.7075  -11.7126 C   0  0  0  0  0  0  0  0  0  0  0  0
   11.2878    7.3723  -11.4180 C   0  0  0  0  0  0  0  0  0  0  0  0
    9.2064    8.5179  -10.5641 C   0  0  0  0  0  0  0  0  0  0  0  0
    8.1057    4.1827  -13.9314 C   0  0  0  0  0  0  0  0  0  0  0  0
    9.2848    4.6989  -14.7462 C   0  0  0  0  0  0  0  0  0  0  0  0
    8.4683    6.5124  -19.7047 H   0  0  0  0  0  0  0  0  0  0  0  0
    8.9454    7.3723  -18.2474 H   0  0  0  0  0  0  0  0  0  0  0  0
   10.1486    6.9970  -19.4836 H   0  0  0  0  0  0  0  0  0  0  0  0
    9.8001    4.5341  -19.0236 H   0  0  0  0  0  0  0  0  0  0  0  0
    8.6206    4.9585  -17.8107 H   0  0  0  0  0  0  0  0  0  0  0  0
   10.4940    6.1845  -16.5224 H   0  0  0  0  0  0  0  0  0  0  0  0
   11.5555    5.7422  -17.7916 H   0  0  0  0  0  0  0  0  0  0  0  0
   12.5456    3.0225  -15.6151 H   0  0  0  0  0  0  0  0  0  0  0  0
   13.9294    4.9722  -14.9046 H   0  0  0  0  0  0  0  0  0  0  0  0
   12.7867    6.0812  -15.6246 H   0  0  0  0  0  0  0  0  0  0  0  0
   12.3034    5.0775  -14.2562 H   0  0  0  0  0  0  0  0  0  0  0  0
   14.3907    3.5979  -17.0469 H   0  0  0  0  0  0  0  0  0  0  0  0
   13.0477    3.0593  -18.0408 H   0  0  0  0  0  0  0  0  0  0  0  0
   13.4598    4.7716  -17.9321 H   0  0  0  0  0  0  0  0  0  0  0  0
   10.5745    3.0247  -14.7754 H   0  0  0  0  0  0  0  0  0  0  0  0
    8.4156    3.0140  -16.9056 H   0  0  0  0  0  0  0  0  0  0  0  0
    9.5729    1.7603  -16.5770 H   0  0  0  0  0  0  0  0  0  0  0  0
    5.9721    1.5077  -13.8755 H   0  0  0  0  0  0  0  0  0  0  0  0
    4.8055    2.9550  -12.2466 H   0  0  0  0  0  0  0  0  0  0  0  0
    5.7347    5.1833  -11.6600 H   0  0  0  0  0  0  0  0  0  0  0  0
    9.4855    5.6087  -11.6509 H   0  0  0  0  0  0  0  0  0  0  0  0
    9.7933    8.3187  -12.6158 H   0  0  0  0  0  0  0  0  0  0  0  0
   11.8841    8.2777  -11.3066 H   0  0  0  0  0  0  0  0  0  0  0  0
   11.3731    6.8135  -10.4862 H   0  0  0  0  0  0  0  0  0  0  0  0
   11.7330    6.7847  -12.2219 H   0  0  0  0  0  0  0  0  0  0  0  0
    9.8631    9.3280  -10.2467 H   0  0  0  0  0  0  0  0  0  0  0  0
    8.2654    8.9728  -10.8746 H   0  0  0  0  0  0  0  0  0  0  0  0
    9.0086    7.8931   -9.6912 H   0  0  0  0  0  0  0  0  0  0  0  0
    8.8174    5.3963  -15.4314 H   0  0  0  0  0  0  0  0  0  0  0  0
    9.9870    5.2560  -14.1300 H   0  0  0  0  0  0  0  0  0  0  0  0
   10.9432    3.4027  -17.2988 H   0  0  0  0  0  0  0  0  0  0  0  0
  2  1  1  0
  3  2  1  0
  4  3  1  0
  5  4  1  0
  6  5  1  0
  7  5  1  0
  8  4  1  0
  9  8  1  0
 10  9  1  0
 11 10  1  0
 12 11  1  0
 13 12  2  0
 14 13  1  0
 15 14  2  0
 16 15  1  0
 17 16  2  0
 18 16  1  0
 19 18  1  0
 20 19  1  0
 21 19  1  0
 22 11  2  0
 22 15  1  0
 23  8  1  0
 23 22  1  0
 24  1  1  0
 25  1  1  0
 26  1  1  0
 27  2  1  0
 28  2  1  0
 29  3  1  0
 30  3  1  0
 31  5  1  0
 32  6  1  0
 33  6  1  0
 34  6  1  0
 35  7  1  0
 36  7  1  0
 37  7  1  0
  8 38  1  1
 39  9  1  0
 40  9  1  0
 41 12  1  0
 42 13  1  0
 43 14  1  0
 44 18  1  0
 45 19  1  0
 46 20  1  0
 47 20  1  0
 48 20  1  0
 49 21  1  0
 50 21  1  0
 51 21  1  0
 52 23  1  0
 53 23  1  0
  4 54  1  6
M  CHG  1   4   1
M  END
>  <b_m_subgroup_collapsed>  (1576) 
0

>  <r_i_docking_score>  (1576) 
-4.3904920952950102

>  <s_m_subgroup_title>  (1576) 
glide-dock_SP_D22_pv

>  <s_m_subgroupid>  (1576) 
glide-dock_SP_D22_pv

>  <Molecule ChEMBL ID>  (1576) 
CHEMBL2111582

>  <Standard Type>  (1576) 
Ki

>  <Standard Value>  (1576) 
50000.0

>  <label>  (1576) 
0

$$$$
CHEMBL274585
     RDKit          3D

 39 40  0  0  1  0  0  0  0  0999 V2000
   10.3400   -0.7041  -17.4454 N   0  0  0  0  0  0  0  0  0  0  0  0
   10.0931    0.1684  -16.7267 C   0  0  0  0  0  0  0  0  0  0  0  0
    9.7837    1.2684  -15.8267 C   0  0  0  0  0  0  0  0  0  0  0  0
    8.4846    1.4039  -15.2955 C   0  0  0  0  0  0  0  0  0  0  0  0
    8.1844    2.4777  -14.4358 C   0  0  0  0  0  0  0  0  0  0  0  0
    9.1692    3.4242  -14.0844 C   0  0  0  0  0  0  0  0  0  0  0  0
    8.7859    4.4261  -13.2188 O   0  0  0  0  0  0  0  0  0  0  0  0
    9.7775    5.3068  -12.7029 C   0  0  0  0  0  0  0  0  0  0  0  0
    9.2506    5.9525  -11.4118 C   0  0  0  0  0  0  0  0  0  0  0  0
   10.1773    7.0683  -10.8975 C   0  0  0  0  0  0  0  0  0  0  0  0
    9.7110    7.6159   -9.5334 C   0  0  0  0  0  0  0  0  0  0  0  0
    9.6407    6.5373   -8.5401 N   0  0  0  0  0  0  0  0  0  0  0  0
    9.1910    7.0229   -7.2337 C   0  0  0  0  0  0  0  0  0  0  0  0
   10.1225    8.0373   -6.6013 C   0  0  0  0  0  0  0  0  0  0  0  0
   10.7696    7.8265   -5.4473 C   0  0  0  0  0  0  0  0  0  0  0  0
   12.0176    9.3719   -4.6173 I   0  0  0  0  0  0  0  0  0  0  0  0
    8.6573    5.5475   -8.9820 C   0  0  0  0  0  0  0  0  0  0  0  0
    9.0854    4.9013  -10.3038 C   0  0  0  0  0  0  0  0  0  0  0  0
   10.4704    3.2866  -14.6319 C   0  0  0  0  0  0  0  0  0  0  0  0
   10.7756    2.2128  -15.4920 C   0  0  0  0  0  0  0  0  0  0  0  0
    7.7153    0.6856  -15.5455 H   0  0  0  0  0  0  0  0  0  0  0  0
    7.1872    2.5703  -14.0293 H   0  0  0  0  0  0  0  0  0  0  0  0
   10.0052    6.0683  -13.4476 H   0  0  0  0  0  0  0  0  0  0  0  0
   10.7003    4.7761  -12.4735 H   0  0  0  0  0  0  0  0  0  0  0  0
    8.2742    6.3946  -11.6165 H   0  0  0  0  0  0  0  0  0  0  0  0
   10.2111    7.8830  -11.6223 H   0  0  0  0  0  0  0  0  0  0  0  0
   11.1979    6.7009  -10.7999 H   0  0  0  0  0  0  0  0  0  0  0  0
    8.7388    8.1031   -9.6307 H   0  0  0  0  0  0  0  0  0  0  0  0
   10.4207    8.3789   -9.2153 H   0  0  0  0  0  0  0  0  0  0  0  0
    9.0912    6.1769   -6.5526 H   0  0  0  0  0  0  0  0  0  0  0  0
    8.2011    7.4749   -7.3184 H   0  0  0  0  0  0  0  0  0  0  0  0
   10.2457    8.9823   -7.1093 H   0  0  0  0  0  0  0  0  0  0  0  0
   10.7013    6.9120   -4.8770 H   0  0  0  0  0  0  0  0  0  0  0  0
    8.5422    4.7687   -8.2281 H   0  0  0  0  0  0  0  0  0  0  0  0
    7.6857    6.0251   -9.0996 H   0  0  0  0  0  0  0  0  0  0  0  0
    8.3304    4.1727  -10.6035 H   0  0  0  0  0  0  0  0  0  0  0  0
   10.0155    4.3497  -10.1548 H   0  0  0  0  0  0  0  0  0  0  0  0
   11.2544    3.9941  -14.4110 H   0  0  0  0  0  0  0  0  0  0  0  0
   11.7761    2.1202  -15.8932 H   0  0  0  0  0  0  0  0  0  0  0  0
  2  1  3  0
  3  2  1  0
  4  3  1  0
  5  4  2  0
  6  5  1  0
  7  6  1  0
  8  7  1  0
  9  8  1  0
 10  9  1  0
 11 10  1  0
 12 11  1  0
 13 12  1  0
 14 13  1  0
 15 14  2  0
 16 15  1  0
 17 12  1  0
 18  9  1  0
 18 17  1  0
 19  6  2  0
 20  3  2  0
 20 19  1  0
 21  4  1  0
 22  5  1  0
 23  8  1  0
 24  8  1  0
 25  9  1  0
 26 10  1  0
 27 10  1  0
 28 11  1  0
 29 11  1  0
 30 13  1  0
 31 13  1  0
 32 14  1  0
 33 15  1  0
 34 17  1  0
 35 17  1  0
 36 18  1  0
 37 18  1  0
 38 19  1  0
 39 20  1  0
M  END
>  <b_m_subgroup_collapsed>  (1577) 
0

>  <r_i_docking_score>  (1577) 
-4.2779542944679401

>  <s_m_subgroup_title>  (1577) 
glide-dock_SP_D22_pv

>  <s_m_subgroupid>  (1577) 
glide-dock_SP_D22_pv

>  <Molecule ChEMBL ID>  (1577) 
CHEMBL274585

>  <Standard Type>  (1577) 
Ki

>  <Standard Value>  (1577) 
10000.0

>  <label>  (1577) 
0

$$$$
CHEMBL164736
     RDKit          3D

 68 68  0  0  1  0  0  0  0  0999 V2000
   14.6194    2.0940  -19.9018 C   0  0  0  0  0  0  0  0  0  0  0  0
   14.2064    2.8910  -18.6608 C   0  0  0  0  0  0  0  0  0  0  0  0
   14.2099    4.4109  -18.9023 C   0  0  0  0  0  0  0  0  0  0  0  0
   13.9767    5.1882  -17.6482 N   0  0  0  0  0  0  0  0  0  0  0  0
   15.0877    6.1528  -17.3701 C   0  0  0  0  0  0  0  0  0  0  0  0
   15.2741    7.2868  -18.4119 C   0  0  0  0  0  0  0  0  0  0  0  0
   14.4081    8.5392  -18.2064 C   0  0  0  0  0  0  0  0  0  0  0  0
   12.5843    5.7298  -17.5040 C   0  0  0  0  0  0  0  0  0  0  0  0
   11.5035    4.6225  -17.5475 C   0  0  0  0  0  0  0  0  0  0  0  0
   11.5110    3.7335  -16.2888 C   0  0  0  0  0  0  0  0  0  0  0  0
   11.3246    4.5871  -15.0324 C   0  0  0  0  0  0  0  0  0  0  0  0
   10.2924    4.4641  -14.1537 C   0  0  0  0  0  0  0  0  0  0  0  0
   10.1700    5.3506  -13.0410 C   0  0  0  0  0  0  0  0  0  0  0  0
   10.0850    6.1689  -12.1391 C   0  0  0  0  0  0  0  0  0  0  0  0
    9.9718    7.4569  -10.8421 Si  0  0  0  0  0  4  0  0  0  0  0  0
    9.2833    6.6638   -9.2635 C   0  0  0  0  0  0  0  0  0  0  0  0
   11.7225    8.1175  -10.5234 C   0  0  0  0  0  0  0  0  0  0  0  0
    8.8417    8.8341  -11.4973 C   0  0  0  0  0  0  0  0  0  0  0  0
    9.2733    3.4841  -14.3504 C   0  0  0  0  0  0  0  0  0  0  0  0
    8.3783    2.6811  -14.5598 C   0  0  0  0  0  0  0  0  0  0  0  0
    7.0254    1.4795  -14.8271 Si  0  0  0  0  0  4  0  0  0  0  0  0
    6.4984    1.5213  -16.6574 C   0  0  0  0  0  0  0  0  0  0  0  0
    7.6782   -0.2277  -14.3700 C   0  0  0  0  0  0  0  0  0  0  0  0
    5.6050    1.9621  -13.6695 C   0  0  0  0  0  0  0  0  0  0  0  0
   12.4166    5.6551  -14.9479 C   0  0  0  0  0  0  0  0  0  0  0  0
   12.3658    6.5398  -16.2013 C   0  0  0  0  0  0  0  0  0  0  0  0
   14.6251    1.0239  -19.6909 H   0  0  0  0  0  0  0  0  0  0  0  0
   15.6176    2.3713  -20.2408 H   0  0  0  0  0  0  0  0  0  0  0  0
   13.9265    2.2661  -20.7263 H   0  0  0  0  0  0  0  0  0  0  0  0
   13.2265    2.5425  -18.3419 H   0  0  0  0  0  0  0  0  0  0  0  0
   14.8860    2.6522  -17.8475 H   0  0  0  0  0  0  0  0  0  0  0  0
   15.1827    4.6613  -19.3267 H   0  0  0  0  0  0  0  0  0  0  0  0
   13.4844    4.6849  -19.6688 H   0  0  0  0  0  0  0  0  0  0  0  0
   15.0299    6.5571  -16.3597 H   0  0  0  0  0  0  0  0  0  0  0  0
   16.0059    5.5631  -17.3516 H   0  0  0  0  0  0  0  0  0  0  0  0
   16.3142    7.6126  -18.3468 H   0  0  0  0  0  0  0  0  0  0  0  0
   15.1526    6.9254  -19.4335 H   0  0  0  0  0  0  0  0  0  0  0  0
   14.7288    9.3410  -18.8732 H   0  0  0  0  0  0  0  0  0  0  0  0
   13.3552    8.3614  -18.4173 H   0  0  0  0  0  0  0  0  0  0  0  0
   14.4858    8.9163  -17.1880 H   0  0  0  0  0  0  0  0  0  0  0  0
   12.4021    6.3868  -18.3544 H   0  0  0  0  0  0  0  0  0  0  0  0
   10.5242    5.1013  -17.6155 H   0  0  0  0  0  0  0  0  0  0  0  0
   11.5740    4.0184  -18.4506 H   0  0  0  0  0  0  0  0  0  0  0  0
   10.7566    2.9574  -16.4005 H   0  0  0  0  0  0  0  0  0  0  0  0
   12.4596    3.2044  -16.1961 H   0  0  0  0  0  0  0  0  0  0  0  0
    9.1812    7.3913   -8.4579 H   0  0  0  0  0  0  0  0  0  0  0  0
    8.2908    6.2461   -9.4360 H   0  0  0  0  0  0  0  0  0  0  0  0
    9.9182    5.8554   -8.9030 H   0  0  0  0  0  0  0  0  0  0  0  0
   11.7078    9.0005   -9.8872 H   0  0  0  0  0  0  0  0  0  0  0  0
   12.3414    7.3735  -10.0256 H   0  0  0  0  0  0  0  0  0  0  0  0
   12.2289    8.3917  -11.4467 H   0  0  0  0  0  0  0  0  0  0  0  0
    8.5943    9.5532  -10.7167 H   0  0  0  0  0  0  0  0  0  0  0  0
    9.2848    9.3715  -12.3347 H   0  0  0  0  0  0  0  0  0  0  0  0
    7.8937    8.4237  -11.8476 H   0  0  0  0  0  0  0  0  0  0  0  0
    5.7276    0.7789  -16.8622 H   0  0  0  0  0  0  0  0  0  0  0  0
    6.1007    2.4930  -16.9521 H   0  0  0  0  0  0  0  0  0  0  0  0
    7.3374    1.2980  -17.3161 H   0  0  0  0  0  0  0  0  0  0  0  0
    6.8968   -0.9857  -14.4171 H   0  0  0  0  0  0  0  0  0  0  0  0
    8.4786   -0.5412  -15.0415 H   0  0  0  0  0  0  0  0  0  0  0  0
    8.0808   -0.2275  -13.3605 H   0  0  0  0  0  0  0  0  0  0  0  0
    4.7367    1.3187  -13.8057 H   0  0  0  0  0  0  0  0  0  0  0  0
    5.8991    1.8949  -12.6233 H   0  0  0  0  0  0  0  0  0  0  0  0
    5.2857    2.9894  -13.8463 H   0  0  0  0  0  0  0  0  0  0  0  0
   12.3443    6.2894  -14.0660 H   0  0  0  0  0  0  0  0  0  0  0  0
   13.3853    5.1604  -14.8680 H   0  0  0  0  0  0  0  0  0  0  0  0
   13.0459    7.3828  -16.1030 H   0  0  0  0  0  0  0  0  0  0  0  0
   11.3746    6.9907  -16.2428 H   0  0  0  0  0  0  0  0  0  0  0  0
   14.0566    4.5102  -16.9023 H   0  0  0  0  0  0  0  0  0  0  0  0
  2  1  1  0
  3  2  1  0
  4  3  1  0
  5  4  1  0
  6  5  1  0
  7  6  1  0
  8  4  1  0
  9  8  1  0
 10  9  1  0
 11 10  1  0
 12 11  2  3
 13 12  1  0
 14 13  3  0
 15 14  1  0
 16 15  1  0
 17 15  1  0
 18 15  1  0
 19 12  1  0
 20 19  3  0
 21 20  1  0
 22 21  1  0
 23 21  1  0
 24 21  1  0
 25 11  1  0
 26  8  1  0
 26 25  1  0
 27  1  1  0
 28  1  1  0
 29  1  1  0
 30  2  1  0
 31  2  1  0
 32  3  1  0
 33  3  1  0
 34  5  1  0
 35  5  1  0
 36  6  1  0
 37  6  1  0
 38  7  1  0
 39  7  1  0
 40  7  1  0
 41  8  1  0
 42  9  1  0
 43  9  1  0
 44 10  1  0
 45 10  1  0
 46 16  1  0
 47 16  1  0
 48 16  1  0
 49 17  1  0
 50 17  1  0
 51 17  1  0
 52 18  1  0
 53 18  1  0
 54 18  1  0
 55 22  1  0
 56 22  1  0
 57 22  1  0
 58 23  1  0
 59 23  1  0
 60 23  1  0
 61 24  1  0
 62 24  1  0
 63 24  1  0
 64 25  1  0
 65 25  1  0
 66 26  1  0
 67 26  1  0
 68  4  1  0
M  CHG  1   4   1
M  END
>  <b_m_subgroup_collapsed>  (1578) 
0

>  <r_i_docking_score>  (1578) 
-4.1375642341642003

>  <s_m_subgroup_title>  (1578) 
glide-dock_SP_D22_pv

>  <s_m_subgroupid>  (1578) 
glide-dock_SP_D22_pv

>  <Molecule ChEMBL ID>  (1578) 
CHEMBL164736

>  <Standard Type>  (1578) 
Ki

>  <Standard Value>  (1578) 
11000.0

>  <label>  (1578) 
0

$$$$
CHEMBL1224699
     RDKit          3D

 54 57  0  0  1  0  0  0  0  0999 V2000
    5.5545    4.4898  -12.1794 C   0  0  0  0  0  0  0  0  0  0  0  0
    6.8027    5.1524  -12.0980 O   0  0  0  0  0  0  0  0  0  0  0  0
    7.8468    4.6454  -12.8371 C   0  0  0  0  0  0  0  0  0  0  0  0
    7.6889    3.6715  -13.8482 C   0  0  0  0  0  0  0  0  0  0  0  0
    8.7978    3.1719  -14.5612 C   0  0  0  0  0  0  0  0  0  0  0  0
    8.5806    2.0927  -15.5819 C   0  0  2  0  0  0  0  0  0  0  0  0
    8.0416    0.8186  -14.9683 C   0  0  0  0  0  0  0  0  0  0  0  0
    8.9930   -0.2277  -15.3751 N   0  0  0  0  0  0  0  0  0  0  0  0
    9.6811    0.1903  -16.6139 C   0  0  0  0  0  0  0  0  0  0  0  0
    9.5963    1.6955  -16.6204 C   0  0  1  0  0  0  0  0  0  0  0  0
    8.3483    2.4332  -17.0372 C   0  0  0  0  0  0  0  0  0  0  0  0
   10.0832    3.6664  -14.2590 C   0  0  0  0  0  0  0  0  0  0  0  0
   10.2493    4.6505  -13.2697 C   0  0  0  0  0  0  0  0  0  0  0  0
    9.1352    5.1422  -12.5603 C   0  0  0  0  0  0  0  0  0  0  0  0
    9.2719    6.0999  -11.5553 N   0  0  0  0  0  0  0  0  0  0  0  0
   10.1007    7.6090  -11.6594 S   0  0  0  0  0  0  0  0  0  0  0  0
   11.3405    7.3720  -12.4155 O   0  0  0  0  0  0  0  0  0  0  0  0
    9.0971    8.5806  -12.1169 O   0  0  0  0  0  0  0  0  0  0  0  0
   10.5157    7.9506   -9.9616 C   0  0  0  0  0  0  0  0  0  0  0  0
   11.8480    8.2450   -9.6109 C   0  0  0  0  0  0  0  0  0  0  0  0
   12.1710    8.5007   -8.2652 C   0  0  0  0  0  0  0  0  0  0  0  0
   11.1681    8.4510   -7.2747 C   0  0  0  0  0  0  0  0  0  0  0  0
   11.5146    8.7122   -5.8192 C   0  0  0  0  0  0  0  0  0  0  0  0
   11.2874    7.4502   -4.9711 C   0  0  0  0  0  0  0  0  0  0  0  0
   10.7492    9.9267   -5.2892 C   0  0  0  0  0  0  0  0  0  0  0  0
    9.8349    8.1531   -7.6413 C   0  0  0  0  0  0  0  0  0  0  0  0
    9.5069    7.9106   -8.9849 C   0  0  0  0  0  0  0  0  0  0  0  0
    4.8861    4.9342  -11.4469 H   0  0  0  0  0  0  0  0  0  0  0  0
    5.0998    4.6016  -13.1648 H   0  0  0  0  0  0  0  0  0  0  0  0
    5.6467    3.4310  -11.9352 H   0  0  0  0  0  0  0  0  0  0  0  0
    6.7131    3.2824  -14.0937 H   0  0  0  0  0  0  0  0  0  0  0  0
    7.9833    0.8664  -13.8793 H   0  0  0  0  0  0  0  0  0  0  0  0
    7.0465    0.6097  -15.3646 H   0  0  0  0  0  0  0  0  0  0  0  0
    8.5314   -1.1336  -15.4645 H   0  0  0  0  0  0  0  0  0  0  0  0
    9.1743   -0.2133  -17.4915 H   0  0  0  0  0  0  0  0  0  0  0  0
   10.7189   -0.1458  -16.6188 H   0  0  0  0  0  0  0  0  0  0  0  0
   10.5363    2.2362  -16.6984 H   0  0  0  0  0  0  0  0  0  0  0  0
    7.5949    1.8699  -17.5843 H   0  0  0  0  0  0  0  0  0  0  0  0
    8.4894    3.4614  -17.3631 H   0  0  0  0  0  0  0  0  0  0  0  0
   10.9562    3.2899  -14.7702 H   0  0  0  0  0  0  0  0  0  0  0  0
   11.2435    5.0041  -13.0475 H   0  0  0  0  0  0  0  0  0  0  0  0
    8.3873    6.2185  -11.0735 H   0  0  0  0  0  0  0  0  0  0  0  0
   12.6182    8.2867  -10.3679 H   0  0  0  0  0  0  0  0  0  0  0  0
   13.1920    8.7351   -8.0017 H   0  0  0  0  0  0  0  0  0  0  0  0
   12.5697    8.9732   -5.7547 H   0  0  0  0  0  0  0  0  0  0  0  0
   11.9235    6.6301   -5.3079 H   0  0  0  0  0  0  0  0  0  0  0  0
   11.5137    7.6299   -3.9199 H   0  0  0  0  0  0  0  0  0  0  0  0
   10.2563    7.1050   -5.0464 H   0  0  0  0  0  0  0  0  0  0  0  0
   11.0325   10.8346   -5.8223 H   0  0  0  0  0  0  0  0  0  0  0  0
    9.6860    9.7761   -5.4449 H   0  0  0  0  0  0  0  0  0  0  0  0
   10.9285   10.0919   -4.2266 H   0  0  0  0  0  0  0  0  0  0  0  0
    9.0514    8.1070   -6.8982 H   0  0  0  0  0  0  0  0  0  0  0  0
    8.4871    7.6864   -9.2593 H   0  0  0  0  0  0  0  0  0  0  0  0
    9.6893   -0.2850  -14.6457 H   0  0  0  0  0  0  0  0  0  0  0  0
  2  1  1  0
  3  2  1  0
  4  3  1  0
  5  4  2  0
  6  5  1  1
  7  6  1  0
  8  7  1  0
  9  8  1  0
 10  6  1  0
 10  9  1  0
 11  6  1  0
 11 10  1  0
 12  5  1  0
 13 12  2  0
 14  3  2  0
 14 13  1  0
 15 14  1  0
 16 15  1  0
 17 16  2  0
 18 16  2  0
 19 16  1  0
 20 19  1  0
 21 20  2  0
 22 21  1  0
 23 22  1  0
 24 23  1  0
 25 23  1  0
 26 22  2  0
 27 19  2  0
 27 26  1  0
 28  1  1  0
 29  1  1  0
 30  1  1  0
 31  4  1  0
 32  7  1  0
 33  7  1  0
 34  8  1  0
 35  9  1  0
 36  9  1  0
 10 37  1  1
 38 11  1  0
 39 11  1  0
 40 12  1  0
 41 13  1  0
 42 15  1  0
 43 20  1  0
 44 21  1  0
 45 23  1  0
 46 24  1  0
 47 24  1  0
 48 24  1  0
 49 25  1  0
 50 25  1  0
 51 25  1  0
 52 26  1  0
 53 27  1  0
 54  8  1  0
M  CHG  1   8   1
M  END
>  <b_m_subgroup_collapsed>  (1579) 
0

>  <r_i_docking_score>  (1579) 
-4.0644508992241297

>  <s_m_subgroup_title>  (1579) 
glide-dock_SP_D22_pv

>  <s_m_subgroupid>  (1579) 
glide-dock_SP_D22_pv

>  <Molecule ChEMBL ID>  (1579) 
CHEMBL1224699

>  <Standard Type>  (1579) 
Ki

>  <Standard Value>  (1579) 
50.12

>  <label>  (1579) 
1

$$$$
CHEMBL651
     RDKit          3D

 51 52  0  0  1  0  0  0  0  0999 V2000
   10.6771    1.4728  -14.7264 C   0  0  0  0  0  0  0  0  0  0  0  0
   10.5667    2.9993  -14.8354 C   0  0  0  0  0  0  0  0  0  0  0  0
   10.0569    3.6964  -13.5503 C   0  0  0  0  0  0  0  0  0  0  0  0
    9.6838    2.9814  -12.6467 O   0  0  0  0  0  0  0  0  0  0  0  0
    9.8886    5.2493  -13.4770 C   0  0  0  0  0  0  0  0  0  0  0  0
    8.3980    5.5737  -13.8551 C   0  0  0  0  0  0  0  0  0  0  0  0
    7.2552    5.7774  -12.8141 C   0  0  2  0  0  0  0  0  0  0  0  0
    6.0914    4.7931  -13.0477 C   0  0  0  0  0  0  0  0  0  0  0  0
    6.8332    7.2153  -12.6465 N   0  0  0  0  0  0  0  0  0  0  0  0
    7.8371    8.2564  -12.3152 C   0  0  0  0  0  0  0  0  0  0  0  0
    5.6508    7.7463  -13.3126 C   0  0  0  0  0  0  0  0  0  0  0  0
   10.0970    5.8913  -12.0565 C   0  0  0  0  0  0  0  0  0  0  0  0
    9.6748    5.2776  -10.8403 C   0  0  0  0  0  0  0  0  0  0  0  0
    9.7813    5.9219   -9.5936 C   0  0  0  0  0  0  0  0  0  0  0  0
   10.4200    7.1673   -9.5002 C   0  0  0  0  0  0  0  0  0  0  0  0
   10.9017    7.7802  -10.6671 C   0  0  0  0  0  0  0  0  0  0  0  0
   10.7103    7.1684  -11.9203 C   0  0  0  0  0  0  0  0  0  0  0  0
   10.8847    5.7709  -14.5749 C   0  0  0  0  0  0  0  0  0  0  0  0
   10.4884    5.7703  -15.9435 C   0  0  0  0  0  0  0  0  0  0  0  0
   11.3655    6.1722  -16.9693 C   0  0  0  0  0  0  0  0  0  0  0  0
   12.6601    6.6114  -16.6546 C   0  0  0  0  0  0  0  0  0  0  0  0
   13.0881    6.5927  -15.3163 C   0  0  0  0  0  0  0  0  0  0  0  0
   12.2280    6.1288  -14.2961 C   0  0  0  0  0  0  0  0  0  0  0  0
   11.1764    1.0583  -15.6000 H   0  0  0  0  0  0  0  0  0  0  0  0
   11.2547    1.1879  -13.8512 H   0  0  0  0  0  0  0  0  0  0  0  0
    9.6957    1.0066  -14.6467 H   0  0  0  0  0  0  0  0  0  0  0  0
    9.8942    3.2401  -15.6575 H   0  0  0  0  0  0  0  0  0  0  0  0
   11.5541    3.3879  -15.0856 H   0  0  0  0  0  0  0  0  0  0  0  0
    8.4413    6.5555  -14.2510 H   0  0  0  0  0  0  0  0  0  0  0  0
    8.0485    4.9238  -14.6510 H   0  0  0  0  0  0  0  0  0  0  0  0
    7.5470    5.4996  -11.8160 H   0  0  0  0  0  0  0  0  0  0  0  0
    6.4502    3.7644  -12.9896 H   0  0  0  0  0  0  0  0  0  0  0  0
    5.3204    4.9031  -12.2846 H   0  0  0  0  0  0  0  0  0  0  0  0
    5.6232    4.9123  -14.0240 H   0  0  0  0  0  0  0  0  0  0  0  0
    8.6132    8.4090  -13.0425 H   0  0  0  0  0  0  0  0  0  0  0  0
    7.3541    9.2250  -12.1873 H   0  0  0  0  0  0  0  0  0  0  0  0
    8.3178    8.0196  -11.3717 H   0  0  0  0  0  0  0  0  0  0  0  0
    5.9372    8.1751  -14.2478 H   0  0  0  0  0  0  0  0  0  0  0  0
    4.9276    6.9622  -13.4728 H   0  0  0  0  0  0  0  0  0  0  0  0
    5.1815    8.5201  -12.7051 H   0  0  0  0  0  0  0  0  0  0  0  0
    9.1771    4.3231  -10.8289 H   0  0  0  0  0  0  0  0  0  0  0  0
    9.4005    5.4438   -8.7029 H   0  0  0  0  0  0  0  0  0  0  0  0
   10.5343    7.6540   -8.5433 H   0  0  0  0  0  0  0  0  0  0  0  0
   11.3815    8.7451  -10.6105 H   0  0  0  0  0  0  0  0  0  0  0  0
   11.0245    7.7350  -12.7834 H   0  0  0  0  0  0  0  0  0  0  0  0
    9.5085    5.4228  -16.2359 H   0  0  0  0  0  0  0  0  0  0  0  0
   11.0380    6.1605  -17.9993 H   0  0  0  0  0  0  0  0  0  0  0  0
   13.3270    6.9456  -17.4359 H   0  0  0  0  0  0  0  0  0  0  0  0
   14.0900    6.9230  -15.0862 H   0  0  0  0  0  0  0  0  0  0  0  0
   12.6149    6.0714  -13.2898 H   0  0  0  0  0  0  0  0  0  0  0  0
    6.4669    7.1720  -11.6894 H   0  0  0  0  0  0  0  0  0  0  0  0
  2  1  1  0
  3  2  1  0
  4  3  2  0
  5  3  1  0
  6  5  1  0
  7  6  1  0
  8  7  1  0
  9  7  1  0
 10  9  1  0
 11  9  1  0
 12  5  1  0
 13 12  2  0
 14 13  1  0
 15 14  2  0
 16 15  1  0
 17 12  1  0
 17 16  2  0
 18  5  1  0
 19 18  2  0
 20 19  1  0
 21 20  2  0
 22 21  1  0
 23 18  1  0
 23 22  2  0
 24  1  1  0
 25  1  1  0
 26  1  1  0
 27  2  1  0
 28  2  1  0
 29  6  1  0
 30  6  1  0
  7 31  1  1
 32  8  1  0
 33  8  1  0
 34  8  1  0
 35 10  1  0
 36 10  1  0
 37 10  1  0
 38 11  1  0
 39 11  1  0
 40 11  1  0
 41 13  1  0
 42 14  1  0
 43 15  1  0
 44 16  1  0
 45 17  1  0
 46 19  1  0
 47 20  1  0
 48 21  1  0
 49 22  1  0
 50 23  1  0
 51  9  1  0
M  CHG  1   9   1
M  END
>  <b_m_subgroup_collapsed>  (1580) 
0

>  <r_i_docking_score>  (1580) 
-4.0551746356813396

>  <s_m_subgroup_title>  (1580) 
glide-dock_SP_D22_pv

>  <s_m_subgroupid>  (1580) 
glide-dock_SP_D22_pv

>  <Molecule ChEMBL ID>  (1580) 
CHEMBL651

>  <Standard Type>  (1580) 
Ki

>  <Standard Value>  (1580) 
100000.0

>  <label>  (1580) 
0

$$$$
CHEMBL377452
     RDKit          3D

 59 63  0  0  1  0  0  0  0  0999 V2000
   10.7749    0.7279  -15.7448 C   0  0  0  0  0  0  0  0  0  0  0  0
    9.2835    0.6924  -16.0274 C   0  0  0  0  0  0  0  0  0  0  0  0
    8.4109    1.2232  -15.0522 C   0  0  0  0  0  0  0  0  0  0  0  0
    7.0174    1.1797  -15.2389 C   0  0  0  0  0  0  0  0  0  0  0  0
    6.4860    0.6206  -16.4137 C   0  0  0  0  0  0  0  0  0  0  0  0
    7.3395    0.1082  -17.4037 C   0  0  0  0  0  0  0  0  0  0  0  0
    8.7355    0.1241  -17.2101 C   0  0  0  0  0  0  0  0  0  0  0  0
    9.7409   -0.6637  -18.4792 S   0  0  0  0  0  0  0  0  0  0  0  0
    8.8645   -1.4282  -19.3796 O   0  0  0  0  0  0  0  0  0  0  0  0
   10.8859   -1.3303  -17.8469 O   0  0  0  0  0  0  0  0  0  0  0  0
   10.3816    0.6730  -19.4200 N   0  0  0  0  0  0  0  0  0  0  0  0
    9.5691    1.4801  -20.2277 C   0  0  0  0  0  0  0  0  0  0  0  0
    8.8480    0.8879  -21.2881 C   0  0  0  0  0  0  0  0  0  0  0  0
    8.0655    1.6691  -22.1565 C   0  0  0  0  0  0  0  0  0  0  0  0
    8.0002    3.0604  -21.9749 C   0  0  0  0  0  0  0  0  0  0  0  0
    7.0505    4.0253  -23.0470 Cl  0  0  0  0  0  0  0  0  0  0  0  0
    8.7170    3.6611  -20.9241 C   0  0  0  0  0  0  0  0  0  0  0  0
    9.5189    2.8907  -20.0526 C   0  0  0  0  0  0  0  0  0  0  0  0
   10.1622    3.5913  -19.0229 N   0  0  0  0  0  0  0  0  0  0  0  0
   11.3733    3.3599  -18.6190 C   0  0  0  0  0  0  0  0  0  0  0  0
   11.9451    4.1467  -17.6130 N   0  0  0  0  0  0  0  0  0  0  0  0
   11.7919    5.6010  -17.5964 C   0  0  0  0  0  0  0  0  0  0  0  0
   11.2944    6.1015  -16.2293 C   0  0  0  0  0  0  0  0  0  0  0  0
   12.1593    5.6000  -15.1344 N   0  0  0  0  0  0  0  0  0  0  0  0
   11.7653    6.1291  -13.8111 C   0  0  0  0  0  0  0  0  0  0  0  0
   12.2461    4.1226  -15.1581 C   0  0  0  0  0  0  0  0  0  0  0  0
   12.7689    3.6307  -16.5199 C   0  0  0  0  0  0  0  0  0  0  0  0
   12.2507    2.2556  -19.1659 C   0  0  0  0  0  0  0  0  0  0  0  0
   13.6314    2.5122  -19.3592 C   0  0  0  0  0  0  0  0  0  0  0  0
   14.5048    1.5042  -19.8099 C   0  0  0  0  0  0  0  0  0  0  0  0
   14.0084    0.2186  -20.0764 C   0  0  0  0  0  0  0  0  0  0  0  0
   12.6372   -0.0458  -19.9153 C   0  0  0  0  0  0  0  0  0  0  0  0
   11.7515    0.9613  -19.4724 C   0  0  0  0  0  0  0  0  0  0  0  0
   11.3485    0.9462  -16.6410 H   0  0  0  0  0  0  0  0  0  0  0  0
   11.0179    1.4816  -14.9978 H   0  0  0  0  0  0  0  0  0  0  0  0
   11.1010   -0.2300  -15.3476 H   0  0  0  0  0  0  0  0  0  0  0  0
    8.8082    1.6470  -14.1408 H   0  0  0  0  0  0  0  0  0  0  0  0
    6.3589    1.5709  -14.4780 H   0  0  0  0  0  0  0  0  0  0  0  0
    5.4184    0.5729  -16.5603 H   0  0  0  0  0  0  0  0  0  0  0  0
    6.9151   -0.3243  -18.2979 H   0  0  0  0  0  0  0  0  0  0  0  0
    8.9107   -0.1737  -21.4667 H   0  0  0  0  0  0  0  0  0  0  0  0
    7.5272    1.2004  -22.9674 H   0  0  0  0  0  0  0  0  0  0  0  0
    8.6505    4.7321  -20.7904 H   0  0  0  0  0  0  0  0  0  0  0  0
   12.7618    6.0505  -17.8260 H   0  0  0  0  0  0  0  0  0  0  0  0
   11.1101    5.9360  -18.3837 H   0  0  0  0  0  0  0  0  0  0  0  0
   11.2898    7.1876  -16.2184 H   0  0  0  0  0  0  0  0  0  0  0  0
   10.2673    5.7711  -16.0685 H   0  0  0  0  0  0  0  0  0  0  0  0
   10.7786    5.7656  -13.5228 H   0  0  0  0  0  0  0  0  0  0  0  0
   12.4832    5.8224  -13.0475 H   0  0  0  0  0  0  0  0  0  0  0  0
   11.7386    7.2183  -13.8234 H   0  0  0  0  0  0  0  0  0  0  0  0
   12.8969    3.7736  -14.3577 H   0  0  0  0  0  0  0  0  0  0  0  0
   11.2579    3.7057  -14.9680 H   0  0  0  0  0  0  0  0  0  0  0  0
   12.8064    2.5424  -16.5334 H   0  0  0  0  0  0  0  0  0  0  0  0
   13.7957    3.9714  -16.6611 H   0  0  0  0  0  0  0  0  0  0  0  0
   14.0379    3.4928  -19.1581 H   0  0  0  0  0  0  0  0  0  0  0  0
   15.5554    1.7173  -19.9507 H   0  0  0  0  0  0  0  0  0  0  0  0
   14.6726   -0.5612  -20.4199 H   0  0  0  0  0  0  0  0  0  0  0  0
   12.2591   -1.0280  -20.1557 H   0  0  0  0  0  0  0  0  0  0  0  0
   13.0910    5.9505  -15.3169 H   0  0  0  0  0  0  0  0  0  0  0  0
  2  1  1  0
  3  2  2  0
  4  3  1  0
  5  4  2  0
  6  5  1  0
  7  2  1  0
  7  6  2  0
  8  7  1  0
  9  8  2  0
 10  8  2  0
 11  8  1  0
 12 11  1  0
 13 12  1  0
 14 13  2  0
 15 14  1  0
 16 15  1  0
 17 15  2  0
 18 12  2  0
 18 17  1  0
 19 18  1  0
 20 19  2  0
 21 20  1  0
 22 21  1  0
 23 22  1  0
 24 23  1  0
 25 24  1  0
 26 24  1  0
 27 21  1  0
 27 26  1  0
 28 20  1  0
 29 28  2  0
 30 29  1  0
 31 30  2  0
 32 31  1  0
 33 11  1  0
 33 28  1  0
 33 32  2  0
 34  1  1  0
 35  1  1  0
 36  1  1  0
 37  3  1  0
 38  4  1  0
 39  5  1  0
 40  6  1  0
 41 13  1  0
 42 14  1  0
 43 17  1  0
 44 22  1  0
 45 22  1  0
 46 23  1  0
 47 23  1  0
 48 25  1  0
 49 25  1  0
 50 25  1  0
 51 26  1  0
 52 26  1  0
 53 27  1  0
 54 27  1  0
 55 29  1  0
 56 30  1  0
 57 31  1  0
 58 32  1  0
 59 24  1  0
M  CHG  1  24   1
M  END
>  <b_m_subgroup_collapsed>  (1581) 
0

>  <r_i_docking_score>  (1581) 
-3.7721199437904001

>  <s_m_subgroup_title>  (1581) 
glide-dock_SP_D22_pv

>  <s_m_subgroupid>  (1581) 
glide-dock_SP_D22_pv

>  <Molecule ChEMBL ID>  (1581) 
CHEMBL377452

>  <Standard Type>  (1581) 
Ki

>  <Standard Value>  (1581) 
63.0

>  <label>  (1581) 
1

$$$$
CHEMBL4238124
     RDKit          3D

 68 73  0  0  1  0  0  0  0  0999 V2000
    7.0946    2.5723  -14.9189 O   0  0  0  0  0  0  0  0  0  0  0  0
    7.7140    1.2609  -15.1507 S   0  0  0  0  0  0  0  0  0  0  0  0
    7.5733    0.1904  -14.1492 O   0  0  0  0  0  0  0  0  0  0  0  0
    7.1288    0.6341  -16.7587 C   0  0  0  0  0  0  0  0  0  0  0  0
    7.8675    0.9266  -17.9272 C   0  0  0  0  0  0  0  0  0  0  0  0
    7.4741    0.4421  -19.1804 C   0  0  0  0  0  0  0  0  0  0  0  0
    6.3279   -0.3544  -19.2824 C   0  0  0  0  0  0  0  0  0  0  0  0
    5.5620   -0.6741  -18.1455 C   0  0  0  0  0  0  0  0  0  0  0  0
    4.4758   -1.4535  -18.3185 N   0  0  0  0  0  0  0  0  0  0  0  0
    3.7324   -1.7799  -17.2503 C   0  0  0  0  0  0  0  0  0  0  0  0
    4.0105   -1.3140  -15.9551 C   0  0  0  0  0  0  0  0  0  0  0  0
    5.1358   -0.4930  -15.7629 C   0  0  0  0  0  0  0  0  0  0  0  0
    5.9576   -0.1679  -16.8696 C   0  0  0  0  0  0  0  0  0  0  0  0
    9.4260    1.5162  -15.3179 N   0  0  0  0  0  0  0  0  0  0  0  0
   10.2830    0.3429  -15.5021 C   0  0  0  0  0  0  0  0  0  0  0  0
   11.1444    0.6864  -16.7068 C   0  0  0  0  0  0  0  0  0  0  0  0
   11.3092    2.1950  -16.6220 C   0  0  0  0  0  0  0  0  0  0  0  0
   10.0131    2.7102  -15.9656 C   0  0  2  0  0  0  0  0  0  0  0  0
   10.2548    3.8681  -14.9705 C   0  0  0  0  0  0  0  0  0  0  0  0
   10.5749    5.2211  -15.6490 C   0  0  0  0  0  0  0  0  0  0  0  0
   11.9362    5.2425  -16.1909 N   0  0  0  0  0  0  0  0  0  0  0  0
   12.7658    6.2895  -15.5830 C   0  0  0  0  0  0  0  0  0  0  0  0
   14.2318    6.1508  -16.0569 C   0  0  0  0  0  0  0  0  0  0  0  0
   14.3326    6.1204  -17.5144 N   0  0  0  0  0  0  0  0  0  0  0  0
   14.8452    7.2571  -18.1655 C   0  0  0  0  0  0  0  0  0  0  0  0
   13.9751    8.2195  -18.7240 C   0  0  0  0  0  0  0  0  0  0  0  0
   14.4864    9.3707  -19.3480 C   0  0  0  0  0  0  0  0  0  0  0  0
   15.8747    9.5640  -19.4393 C   0  0  0  0  0  0  0  0  0  0  0  0
   16.7593    8.6093  -18.9046 C   0  0  0  0  0  0  0  0  0  0  0  0
   16.2480    7.4572  -18.2469 C   0  0  0  0  0  0  0  0  0  0  0  0
   17.1086    6.5389  -17.6790 O   0  0  0  0  0  0  0  0  0  0  0  0
   18.4407    7.0085  -17.4886 C   0  0  0  0  0  0  0  0  0  0  0  0
   18.9244    7.6919  -18.7725 C   0  0  0  0  0  0  0  0  0  0  0  0
   18.1121    8.8289  -19.0249 O   0  0  0  0  0  0  0  0  0  0  0  0
   13.3592    5.2711  -18.1954 C   0  0  0  0  0  0  0  0  0  0  0  0
   11.9311    5.4789  -17.6389 C   0  0  0  0  0  0  0  0  0  0  0  0
    8.7584    1.5185  -17.9025 H   0  0  0  0  0  0  0  0  0  0  0  0
    8.0544    0.6716  -20.0619 H   0  0  0  0  0  0  0  0  0  0  0  0
    6.0244   -0.7357  -20.2462 H   0  0  0  0  0  0  0  0  0  0  0  0
    2.8938   -2.4247  -17.4466 H   0  0  0  0  0  0  0  0  0  0  0  0
    3.3744   -1.5960  -15.1291 H   0  0  0  0  0  0  0  0  0  0  0  0
    5.3282   -0.1275  -14.7663 H   0  0  0  0  0  0  0  0  0  0  0  0
   10.8868    0.2059  -14.6031 H   0  0  0  0  0  0  0  0  0  0  0  0
    9.6992   -0.5667  -15.6606 H   0  0  0  0  0  0  0  0  0  0  0  0
   12.0959    0.1669  -16.6918 H   0  0  0  0  0  0  0  0  0  0  0  0
   10.6448    0.4051  -17.6346 H   0  0  0  0  0  0  0  0  0  0  0  0
   12.1706    2.4235  -15.9933 H   0  0  0  0  0  0  0  0  0  0  0  0
   11.4924    2.6311  -17.6063 H   0  0  0  0  0  0  0  0  0  0  0  0
    9.3255    3.0839  -16.7193 H   0  0  0  0  0  0  0  0  0  0  0  0
    9.3480    4.0060  -14.3836 H   0  0  0  0  0  0  0  0  0  0  0  0
   11.0294    3.6041  -14.2506 H   0  0  0  0  0  0  0  0  0  0  0  0
    9.8351    5.4240  -16.4276 H   0  0  0  0  0  0  0  0  0  0  0  0
   10.4519    6.0132  -14.9119 H   0  0  0  0  0  0  0  0  0  0  0  0
   12.3726    7.2766  -15.8334 H   0  0  0  0  0  0  0  0  0  0  0  0
   12.7339    6.1953  -14.4963 H   0  0  0  0  0  0  0  0  0  0  0  0
   14.8292    6.9699  -15.6576 H   0  0  0  0  0  0  0  0  0  0  0  0
   14.6586    5.2309  -15.6648 H   0  0  0  0  0  0  0  0  0  0  0  0
   12.9065    8.1007  -18.6546 H   0  0  0  0  0  0  0  0  0  0  0  0
   13.8110   10.1083  -19.7562 H   0  0  0  0  0  0  0  0  0  0  0  0
   16.2633   10.4481  -19.9214 H   0  0  0  0  0  0  0  0  0  0  0  0
   18.4851    7.7008  -16.6483 H   0  0  0  0  0  0  0  0  0  0  0  0
   19.0893    6.1722  -17.2384 H   0  0  0  0  0  0  0  0  0  0  0  0
   19.9588    8.0154  -18.6657 H   0  0  0  0  0  0  0  0  0  0  0  0
   18.8845    7.0076  -19.6211 H   0  0  0  0  0  0  0  0  0  0  0  0
   13.3818    5.4566  -19.2714 H   0  0  0  0  0  0  0  0  0  0  0  0
   13.6594    4.2312  -18.0499 H   0  0  0  0  0  0  0  0  0  0  0  0
   11.2541    4.7831  -18.1348 H   0  0  0  0  0  0  0  0  0  0  0  0
   11.5551    6.4784  -17.8652 H   0  0  0  0  0  0  0  0  0  0  0  0
  2  1  2  0
  3  2  2  0
  4  2  1  0
  5  4  1  0
  6  5  2  0
  7  6  1  0
  8  7  2  0
  9  8  1  0
 10  9  2  0
 11 10  1  0
 12 11  2  0
 13  4  2  0
 13  8  1  0
 13 12  1  0
 14  2  1  0
 15 14  1  0
 16 15  1  0
 17 16  1  0
 18 14  1  0
 18 17  1  0
 19 18  1  0
 20 19  1  0
 21 20  1  0
 22 21  1  0
 23 22  1  0
 24 23  1  0
 25 24  1  0
 26 25  2  0
 27 26  1  0
 28 27  2  0
 29 28  1  0
 30 25  1  0
 30 29  2  0
 31 30  1  0
 32 31  1  0
 33 32  1  0
 34 29  1  0
 34 33  1  0
 35 24  1  0
 36 21  1  0
 36 35  1  0
 37  5  1  0
 38  6  1  0
 39  7  1  0
 40 10  1  0
 41 11  1  0
 42 12  1  0
 43 15  1  0
 44 15  1  0
 45 16  1  0
 46 16  1  0
 47 17  1  0
 48 17  1  0
 18 49  1  6
 50 19  1  0
 51 19  1  0
 52 20  1  0
 53 20  1  0
 54 22  1  0
 55 22  1  0
 56 23  1  0
 57 23  1  0
 58 26  1  0
 59 27  1  0
 60 28  1  0
 61 32  1  0
 62 32  1  0
 63 33  1  0
 64 33  1  0
 65 35  1  0
 66 35  1  0
 67 36  1  0
 68 36  1  0
M  END
>  <b_m_subgroup_collapsed>  (1582) 
0

>  <r_i_docking_score>  (1582) 
-3.4828821991749299

>  <s_m_subgroup_title>  (1582) 
glide-dock_SP_D22_pv

>  <s_m_subgroupid>  (1582) 
glide-dock_SP_D22_pv

>  <Molecule ChEMBL ID>  (1582) 
CHEMBL4238124

>  <Standard Type>  (1582) 
Ki

>  <Standard Value>  (1582) 
12.0

>  <label>  (1582) 
1

$$$$
CHEMBL5094044
     RDKit          3D

 50 51  0  0  1  0  0  0  0  0999 V2000
   10.1824    5.3587   -8.6800 C   0  0  0  0  0  0  0  0  0  0  0  0
    9.4290    4.1992   -9.2231 N   0  0  0  0  0  0  0  0  0  0  0  0
    8.4586    3.6496   -8.2475 C   0  0  0  0  0  0  0  0  0  0  0  0
    8.7238    4.5390  -10.4803 C   0  0  0  0  0  0  0  0  0  0  0  0
    9.4427    4.0436  -11.7966 C   0  0  0  0  0  0  0  0  0  0  0  0
    8.8054    4.5263  -13.1354 C   0  0  0  0  0  0  0  0  0  0  0  0
    9.7901    4.4786  -14.3660 C   0  0  0  0  0  0  0  0  0  0  0  0
    9.6979    5.3720  -15.2013 O   0  0  0  0  0  0  0  0  0  0  0  0
   10.7031    3.4961  -14.5892 N   0  0  0  0  0  0  0  0  0  0  0  0
   10.6775    2.1443  -14.0409 C   0  0  0  0  0  0  0  0  0  0  0  0
   11.7097    3.6705  -15.6450 C   0  0  0  0  0  0  0  0  0  0  0  0
    7.5289    3.6472  -13.4486 C   0  0  0  0  0  0  0  0  0  0  0  0
    7.4882    2.6878  -14.5026 C   0  0  0  0  0  0  0  0  0  0  0  0
    6.5269    1.6604  -14.5399 C   0  0  0  0  0  0  0  0  0  0  0  0
    5.5266    1.5936  -13.5578 C   0  0  0  0  0  0  0  0  0  0  0  0
    5.4349    2.6237  -12.6131 C   0  0  0  0  0  0  0  0  0  0  0  0
    6.4004    3.6506  -12.5835 C   0  0  0  0  0  0  0  0  0  0  0  0
    8.5572    6.0217  -12.8389 C   0  0  0  0  0  0  0  0  0  0  0  0
    9.5751    6.8383  -12.2481 C   0  0  0  0  0  0  0  0  0  0  0  0
    9.3252    8.1782  -11.9013 C   0  0  0  0  0  0  0  0  0  0  0  0
    8.0880    8.7380  -12.2522 C   0  0  0  0  0  0  0  0  0  0  0  0
    7.0586    7.9297  -12.7512 C   0  0  0  0  0  0  0  0  0  0  0  0
    7.2912    6.5866  -13.0316 C   0  0  0  0  0  0  0  0  0  0  0  0
    9.4995    6.1316   -8.3229 H   0  0  0  0  0  0  0  0  0  0  0  0
   10.8222    5.0691   -7.8466 H   0  0  0  0  0  0  0  0  0  0  0  0
   10.8135    5.8169   -9.4414 H   0  0  0  0  0  0  0  0  0  0  0  0
    7.8955    4.4804   -7.8282 H   0  0  0  0  0  0  0  0  0  0  0  0
    7.7107    2.9690   -8.6462 H   0  0  0  0  0  0  0  0  0  0  0  0
    8.8863    3.0454   -7.4563 H   0  0  0  0  0  0  0  0  0  0  0  0
    8.4823    5.5976  -10.4164 H   0  0  0  0  0  0  0  0  0  0  0  0
    7.7378    4.0931  -10.4474 H   0  0  0  0  0  0  0  0  0  0  0  0
    9.4890    2.9717  -11.8497 H   0  0  0  0  0  0  0  0  0  0  0  0
   10.4846    4.3475  -11.7575 H   0  0  0  0  0  0  0  0  0  0  0  0
   11.0666    2.1681  -13.0468 H   0  0  0  0  0  0  0  0  0  0  0  0
    9.6945    1.7006  -13.9565 H   0  0  0  0  0  0  0  0  0  0  0  0
   11.2766    1.4453  -14.6236 H   0  0  0  0  0  0  0  0  0  0  0  0
   11.2596    3.4983  -16.6252 H   0  0  0  0  0  0  0  0  0  0  0  0
   12.1252    4.6819  -15.6396 H   0  0  0  0  0  0  0  0  0  0  0  0
   12.5548    2.9898  -15.5429 H   0  0  0  0  0  0  0  0  0  0  0  0
    8.2375    2.6437  -15.2766 H   0  0  0  0  0  0  0  0  0  0  0  0
    6.5707    0.9102  -15.3154 H   0  0  0  0  0  0  0  0  0  0  0  0
    4.8047    0.7905  -13.5671 H   0  0  0  0  0  0  0  0  0  0  0  0
    4.6723    2.5737  -11.8605 H   0  0  0  0  0  0  0  0  0  0  0  0
    6.2872    4.3985  -11.8138 H   0  0  0  0  0  0  0  0  0  0  0  0
   10.5658    6.4531  -12.0610 H   0  0  0  0  0  0  0  0  0  0  0  0
   10.0973    8.7894  -11.4621 H   0  0  0  0  0  0  0  0  0  0  0  0
    7.8852    9.7726  -12.1152 H   0  0  0  0  0  0  0  0  0  0  0  0
    6.0719    8.3327  -12.9207 H   0  0  0  0  0  0  0  0  0  0  0  0
    6.4624    6.0117  -13.4103 H   0  0  0  0  0  0  0  0  0  0  0  0
   10.0844    3.4646   -9.4494 H   0  0  0  0  0  0  0  0  0  0  0  0
  2  1  1  0
  3  2  1  0
  4  2  1  0
  5  4  1  0
  6  5  1  0
  7  6  1  0
  8  7  2  0
  9  7  1  0
 10  9  1  0
 11  9  1  0
 12  6  1  0
 13 12  2  0
 14 13  1  0
 15 14  2  0
 16 15  1  0
 17 12  1  0
 17 16  2  0
 18  6  1  0
 19 18  2  0
 20 19  1  0
 21 20  2  0
 22 21  1  0
 23 18  1  0
 23 22  2  0
 24  1  1  0
 25  1  1  0
 26  1  1  0
 27  3  1  0
 28  3  1  0
 29  3  1  0
 30  4  1  0
 31  4  1  0
 32  5  1  0
 33  5  1  0
 34 10  1  0
 35 10  1  0
 36 10  1  0
 37 11  1  0
 38 11  1  0
 39 11  1  0
 40 13  1  0
 41 14  1  0
 42 15  1  0
 43 16  1  0
 44 17  1  0
 45 19  1  0
 46 20  1  0
 47 21  1  0
 48 22  1  0
 49 23  1  0
 50  2  1  0
M  CHG  1   2   1
M  END
>  <b_m_subgroup_collapsed>  (1583) 
0

>  <r_i_docking_score>  (1583) 
-3.4312002649759199

>  <s_m_subgroup_title>  (1583) 
glide-dock_SP_D22_pv

>  <s_m_subgroupid>  (1583) 
glide-dock_SP_D22_pv

>  <Molecule ChEMBL ID>  (1583) 
CHEMBL5094044

>  <Standard Type>  (1583) 
Ki

>  <Standard Value>  (1583) 
100000.0

>  <label>  (1583) 
0

$$$$
